MODEL 1
REMARK VINA RESULT:      -9.9      0.000      0.000
REMARK  8 active torsions:
REMARK  status: ('A' for Active; 'I' for Inactive)
REMARK    1  A    between atoms: C_5  and  O_6 
REMARK    2  A    between atoms: O_6  and  C_7 
REMARK    3  A    between atoms: C_7  and  C_8 
REMARK    4  A    between atoms: C_8  and  C_9 
REMARK    5  A    between atoms: C_9  and  C_10 
REMARK    6  A    between atoms: C_10  and  N_11 
REMARK       I    between atoms: N_11  and  C_12 
REMARK    7  A    between atoms: C_12  and  C_13 
REMARK    8  A    between atoms: C_17  and  C_18 
ROOT
HETATM    1  N   UNL     1       9.039  30.047  58.457  1.00  0.00    -0.345 N 
HETATM    2  C   UNL     1       9.343  31.239  59.065  1.00  0.00     0.270 C 
HETATM    3  O   UNL     1      10.031  32.099  58.525  1.00  0.00    -0.266 OA
HETATM    4  H   UNL     1       8.401  29.402  58.896  1.00  0.00     0.163 HD
ENDROOT
BRANCH   2   5
HETATM    5  C   UNL     1       8.793  31.411  60.381  1.00  0.00     0.120 A 
HETATM    6  N   UNL     1       8.920  30.449  61.344  1.00  0.00    -0.272 N 
HETATM    7  H   UNL     1       9.393  29.556  61.252  1.00  0.00     0.189 HD
HETATM    8  N   UNL     1       8.335  30.757  62.512  1.00  0.00    -0.174 NA
HETATM    9  C   UNL     1       7.811  31.978  62.318  1.00  0.00     0.089 A 
HETATM   10  C   UNL     1       8.076  32.421  60.991  1.00  0.00     0.071 A 
BRANCH   9  11
HETATM   11  C   UNL     1       7.075  32.680  63.374  1.00  0.00    -0.003 A 
HETATM   12  C   UNL     1       5.678  32.816  63.306  1.00  0.00     0.053 A 
HETATM   13  C   UNL     1       5.035  33.475  64.334  1.00  0.00     0.106 A 
HETATM   14  C   UNL     1       5.719  33.995  65.407  1.00  0.00     0.105 A 
HETATM   15  O   UNL     1       3.695  33.690  64.419  1.00  0.00    -0.323 OA
HETATM   16  O   UNL     1       4.897  34.602  66.303  1.00  0.00    -0.323 OA
HETATM   17  C   UNL     1       7.087  33.889  65.511  1.00  0.00     0.040 A 
HETATM   18  C   UNL     1       3.615  34.408  65.669  1.00  0.00     0.352 A 
HETATM   19  C   UNL     1       7.767  33.226  64.482  1.00  0.00     0.017 A 
ENDBRANCH   9  11
ENDBRANCH   2   5
BRANCH   1  20
HETATM   20  C   UNL     1       9.485  29.766  57.118  1.00  0.00     0.217 C 
BRANCH  20  21
HETATM   21  C   UNL     1       8.799  28.577  56.609  1.00  0.00    -0.085 C 
BRANCH  21  22
HETATM   22  C   UNL     1       8.169  27.527  56.160  1.00  0.00    -0.078 C 
BRANCH  22  23
HETATM   23  C   UNL     1       7.434  26.304  55.639  1.00  0.00     0.269 C 
BRANCH  23  24
HETATM   24  O   UNL     1       7.973  25.143  56.265  1.00  0.00    -0.338 OA
BRANCH  24  25
HETATM   25  C   UNL     1       8.085  24.028  55.486  1.00  0.00     0.087 A 
HETATM   26  C   UNL     1       8.768  22.857  55.788  1.00  0.00     0.153 A 
HETATM   27  N   UNL     1       8.835  21.779  54.968  1.00  0.00    -0.263 NA
HETATM   28  C   UNL     1       8.192  21.861  53.780  1.00  0.00     0.030 A 
HETATM   29  C   UNL     1       8.263  20.668  52.874  1.00  0.00     0.070 C 
HETATM   30  C   UNL     1       7.487  22.995  53.391  1.00  0.00     0.029 A 
HETATM   31  C   UNL     1       7.437  24.086  54.257  1.00  0.00     0.040 A 
ENDBRANCH  24  25
ENDBRANCH  23  24
ENDBRANCH  22  23
ENDBRANCH  21  22
ENDBRANCH  20  21
ENDBRANCH   1  20
TORSDOF 8
ENDMDL
MODEL 2
REMARK VINA RESULT:      -9.3      2.539     12.374
REMARK  8 active torsions:
REMARK  status: ('A' for Active; 'I' for Inactive)
REMARK    1  A    between atoms: C_5  and  O_6 
REMARK    2  A    between atoms: O_6  and  C_7 
REMARK    3  A    between atoms: C_7  and  C_8 
REMARK    4  A    between atoms: C_8  and  C_9 
REMARK    5  A    between atoms: C_9  and  C_10 
REMARK    6  A    between atoms: C_10  and  N_11 
REMARK       I    between atoms: N_11  and  C_12 
REMARK    7  A    between atoms: C_12  and  C_13 
REMARK    8  A    between atoms: C_17  and  C_18 
ROOT
HETATM    1  N   UNL     1       8.652  28.884  57.789  1.00  0.00    -0.345 N 
HETATM    2  C   UNL     1       7.365  28.536  57.468  1.00  0.00     0.270 C 
HETATM    3  O   UNL     1       6.440  29.343  57.477  1.00  0.00    -0.266 OA
HETATM    4  H   UNL     1       9.398  28.215  57.687  1.00  0.00     0.163 HD
ENDROOT
BRANCH   2   5
HETATM    5  C   UNL     1       7.174  27.156  57.116  1.00  0.00     0.120 A 
HETATM    6  N   UNL     1       5.985  26.517  57.331  1.00  0.00    -0.272 N 
HETATM    7  H   UNL     1       5.144  26.919  57.734  1.00  0.00     0.189 HD
HETATM    8  N   UNL     1       5.978  25.227  56.964  1.00  0.00    -0.174 NA
HETATM    9  C   UNL     1       7.209  25.006  56.474  1.00  0.00     0.089 A 
HETATM   10  C   UNL     1       7.990  26.193  56.556  1.00  0.00     0.071 A 
BRANCH   9  11
HETATM   11  C   UNL     1       7.612  23.693  55.960  1.00  0.00    -0.003 A 
HETATM   12  C   UNL     1       7.410  23.359  54.611  1.00  0.00     0.053 A 
HETATM   13  C   UNL     1       7.820  22.114  54.178  1.00  0.00     0.106 A 
HETATM   14  C   UNL     1       8.412  21.206  55.024  1.00  0.00     0.105 A 
HETATM   15  O   UNL     1       7.698  21.638  52.910  1.00  0.00    -0.323 OA
HETATM   16  O   UNL     1       8.738  20.046  54.395  1.00  0.00    -0.323 OA
HETATM   17  C   UNL     1       8.624  21.491  56.353  1.00  0.00     0.040 A 
HETATM   18  C   UNL     1       8.278  20.325  53.056  1.00  0.00     0.352 A 
HETATM   19  C   UNL     1       8.217  22.746  56.821  1.00  0.00     0.017 A 
ENDBRANCH   9  11
ENDBRANCH   2   5
BRANCH   1  20
HETATM   20  C   UNL     1       8.991  30.244  58.112  1.00  0.00     0.217 C 
BRANCH  20  21
HETATM   21  C   UNL     1       8.687  30.508  59.520  1.00  0.00    -0.085 C 
BRANCH  21  22
HETATM   22  C   UNL     1       8.434  30.733  60.779  1.00  0.00    -0.078 C 
BRANCH  22  23
HETATM   23  C   UNL     1       8.139  30.994  62.247  1.00  0.00     0.269 C 
BRANCH  23  24
HETATM   24  O   UNL     1       7.936  32.392  62.432  1.00  0.00    -0.338 OA
BRANCH  24  25
HETATM   25  C   UNL     1       7.049  32.753  63.405  1.00  0.00     0.087 A 
HETATM   26  C   UNL     1       5.679  32.525  63.420  1.00  0.00     0.153 A 
HETATM   27  N   UNL     1       4.852  32.908  64.425  1.00  0.00    -0.263 NA
HETATM   28  C   UNL     1       5.409  33.552  65.476  1.00  0.00     0.030 A 
HETATM   29  C   UNL     1       4.495  33.972  66.589  1.00  0.00     0.070 C 
HETATM   30  C   UNL     1       6.770  33.828  65.546  1.00  0.00     0.029 A 
HETATM   31  C   UNL     1       7.593  33.422  64.496  1.00  0.00     0.040 A 
ENDBRANCH  24  25
ENDBRANCH  23  24
ENDBRANCH  22  23
ENDBRANCH  21  22
ENDBRANCH  20  21
ENDBRANCH   1  20
TORSDOF 8
ENDMDL
MODEL 3
REMARK VINA RESULT:      -9.2      1.643      2.118
REMARK  8 active torsions:
REMARK  status: ('A' for Active; 'I' for Inactive)
REMARK    1  A    between atoms: C_5  and  O_6 
REMARK    2  A    between atoms: O_6  and  C_7 
REMARK    3  A    between atoms: C_7  and  C_8 
REMARK    4  A    between atoms: C_8  and  C_9 
REMARK    5  A    between atoms: C_9  and  C_10 
REMARK    6  A    between atoms: C_10  and  N_11 
REMARK       I    between atoms: N_11  and  C_12 
REMARK    7  A    between atoms: C_12  and  C_13 
REMARK    8  A    between atoms: C_17  and  C_18 
ROOT
HETATM    1  N   UNL     1       8.252  29.277  58.474  1.00  0.00    -0.345 N 
HETATM    2  C   UNL     1       8.903  30.382  58.962  1.00  0.00     0.270 C 
HETATM    3  O   UNL     1       9.746  30.993  58.313  1.00  0.00    -0.266 OA
HETATM    4  H   UNL     1       7.506  28.855  59.002  1.00  0.00     0.163 HD
ENDROOT
BRANCH   2   5
HETATM    5  C   UNL     1       8.525  30.777  60.291  1.00  0.00     0.120 A 
HETATM    6  N   UNL     1       8.990  30.121  61.396  1.00  0.00    -0.272 N 
HETATM    7  H   UNL     1       9.624  29.328  61.409  1.00  0.00     0.189 HD
HETATM    8  N   UNL     1       8.527  30.603  62.559  1.00  0.00    -0.174 NA
HETATM    9  C   UNL     1       7.733  31.628  62.210  1.00  0.00     0.089 A 
HETATM   10  C   UNL     1       7.704  31.767  60.794  1.00  0.00     0.071 A 
BRANCH   9  11
HETATM   11  C   UNL     1       7.024  32.432  63.212  1.00  0.00    -0.003 A 
HETATM   12  C   UNL     1       5.626  32.564  63.166  1.00  0.00     0.053 A 
HETATM   13  C   UNL     1       5.009  33.322  64.140  1.00  0.00     0.106 A 
HETATM   14  C   UNL     1       5.720  33.942  65.140  1.00  0.00     0.105 A 
HETATM   15  O   UNL     1       3.672  33.547  64.238  1.00  0.00    -0.323 OA
HETATM   16  O   UNL     1       4.921  34.635  65.994  1.00  0.00    -0.323 OA
HETATM   17  C   UNL     1       7.090  33.843  65.219  1.00  0.00     0.040 A 
HETATM   18  C   UNL     1       3.624  34.384  65.413  1.00  0.00     0.352 A 
HETATM   19  C   UNL     1       7.744  33.081  64.243  1.00  0.00     0.017 A 
ENDBRANCH   9  11
ENDBRANCH   2   5
BRANCH   1  20
HETATM   20  C   UNL     1       8.500  28.804  57.139  1.00  0.00     0.217 C 
BRANCH  20  21
HETATM   21  C   UNL     1       8.161  27.383  57.047  1.00  0.00    -0.085 C 
BRANCH  21  22
HETATM   22  C   UNL     1       7.838  26.122  56.968  1.00  0.00    -0.078 C 
BRANCH  22  23
HETATM   23  C   UNL     1       7.459  24.653  56.875  1.00  0.00     0.269 C 
BRANCH  23  24
HETATM   24  O   UNL     1       7.889  24.148  55.614  1.00  0.00    -0.338 OA
BRANCH  24  25
HETATM   25  C   UNL     1       7.184  24.561  54.521  1.00  0.00     0.087 A 
HETATM   26  C   UNL     1       5.814  24.766  54.433  1.00  0.00     0.153 A 
HETATM   27  N   UNL     1       5.174  25.185  53.312  1.00  0.00    -0.263 NA
HETATM   28  C   UNL     1       5.931  25.415  52.214  1.00  0.00     0.030 A 
HETATM   29  C   UNL     1       5.225  25.881  50.976  1.00  0.00     0.070 C 
HETATM   30  C   UNL     1       7.310  25.231  52.207  1.00  0.00     0.029 A 
HETATM   31  C   UNL     1       7.936  24.800  53.375  1.00  0.00     0.040 A 
ENDBRANCH  24  25
ENDBRANCH  23  24
ENDBRANCH  22  23
ENDBRANCH  21  22
ENDBRANCH  20  21
ENDBRANCH   1  20
TORSDOF 8
ENDMDL
MODEL 4
REMARK VINA RESULT:      -9.0      2.971     12.401
REMARK  8 active torsions:
REMARK  status: ('A' for Active; 'I' for Inactive)
REMARK    1  A    between atoms: C_5  and  O_6 
REMARK    2  A    between atoms: O_6  and  C_7 
REMARK    3  A    between atoms: C_7  and  C_8 
REMARK    4  A    between atoms: C_8  and  C_9 
REMARK    5  A    between atoms: C_9  and  C_10 
REMARK    6  A    between atoms: C_10  and  N_11 
REMARK       I    between atoms: N_11  and  C_12 
REMARK    7  A    between atoms: C_12  and  C_13 
REMARK    8  A    between atoms: C_17  and  C_18 
ROOT
HETATM    1  N   UNL     1       5.686  29.532  56.656  1.00  0.00    -0.345 N 
HETATM    2  C   UNL     1       5.365  28.897  55.483  1.00  0.00     0.270 C 
HETATM    3  O   UNL     1       4.898  29.490  54.516  1.00  0.00    -0.266 OA
HETATM    4  H   UNL     1       6.147  29.028  57.396  1.00  0.00     0.163 HD
ENDROOT
BRANCH   2   5
HETATM    5  C   UNL     1       5.620  27.483  55.465  1.00  0.00     0.120 A 
HETATM    6  N   UNL     1       5.006  26.631  56.340  1.00  0.00    -0.272 N 
HETATM    7  H   UNL     1       4.335  26.879  57.059  1.00  0.00     0.189 HD
HETATM    8  N   UNL     1       5.367  25.346  56.203  1.00  0.00    -0.174 NA
HETATM    9  C   UNL     1       6.245  25.345  55.187  1.00  0.00     0.089 A 
HETATM   10  C   UNL     1       6.431  26.669  54.699  1.00  0.00     0.071 A 
BRANCH   9  11
HETATM   11  C   UNL     1       6.884  24.111  54.718  1.00  0.00    -0.003 A 
HETATM   12  C   UNL     1       7.242  23.100  55.624  1.00  0.00     0.053 A 
HETATM   13  C   UNL     1       7.829  21.954  55.126  1.00  0.00     0.106 A 
HETATM   14  C   UNL     1       8.069  21.783  53.783  1.00  0.00     0.105 A 
HETATM   15  O   UNL     1       8.232  20.887  55.866  1.00  0.00    -0.323 OA
HETATM   16  O   UNL     1       8.652  20.586  53.508  1.00  0.00    -0.323 OA
HETATM   17  C   UNL     1       7.739  22.750  52.862  1.00  0.00     0.040 A 
HETATM   18  C   UNL     1       8.757  20.025  54.833  1.00  0.00     0.352 A 
HETATM   19  C   UNL     1       7.143  23.924  53.339  1.00  0.00     0.017 A 
ENDBRANCH   9  11
ENDBRANCH   2   5
BRANCH   1  20
HETATM   20  C   UNL     1       5.527  30.956  56.792  1.00  0.00     0.217 C 
BRANCH  20  21
HETATM   21  C   UNL     1       6.176  31.409  58.024  1.00  0.00    -0.085 C 
BRANCH  21  22
HETATM   22  C   UNL     1       6.735  31.818  59.129  1.00  0.00    -0.078 C 
BRANCH  22  23
HETATM   23  C   UNL     1       7.385  32.293  60.417  1.00  0.00     0.269 C 
BRANCH  23  24
HETATM   24  O   UNL     1       6.940  31.465  61.488  1.00  0.00    -0.338 OA
BRANCH  24  25
HETATM   25  C   UNL     1       6.625  32.098  62.656  1.00  0.00     0.087 A 
HETATM   26  C   UNL     1       5.385  32.143  63.279  1.00  0.00     0.153 A 
HETATM   27  N   UNL     1       5.141  32.788  64.447  1.00  0.00    -0.263 NA
HETATM   28  C   UNL     1       6.180  33.426  65.034  1.00  0.00     0.030 A 
HETATM   29  C   UNL     1       5.911  34.136  66.327  1.00  0.00     0.070 C 
HETATM   30  C   UNL     1       7.455  33.439  64.480  1.00  0.00     0.029 A 
HETATM   31  C   UNL     1       7.674  32.767  63.279  1.00  0.00     0.040 A 
ENDBRANCH  24  25
ENDBRANCH  23  24
ENDBRANCH  22  23
ENDBRANCH  21  22
ENDBRANCH  20  21
ENDBRANCH   1  20
TORSDOF 8
ENDMDL
MODEL 5
REMARK VINA RESULT:      -8.9      3.572     11.005
REMARK  8 active torsions:
REMARK  status: ('A' for Active; 'I' for Inactive)
REMARK    1  A    between atoms: C_5  and  O_6 
REMARK    2  A    between atoms: O_6  and  C_7 
REMARK    3  A    between atoms: C_7  and  C_8 
REMARK    4  A    between atoms: C_8  and  C_9 
REMARK    5  A    between atoms: C_9  and  C_10 
REMARK    6  A    between atoms: C_10  and  N_11 
REMARK       I    between atoms: N_11  and  C_12 
REMARK    7  A    between atoms: C_12  and  C_13 
REMARK    8  A    between atoms: C_17  and  C_18 
ROOT
HETATM    1  N   UNL     1       4.051  29.328  57.072  1.00  0.00    -0.345 N 
HETATM    2  C   UNL     1       4.529  28.900  55.859  1.00  0.00     0.270 C 
HETATM    3  O   UNL     1       4.571  29.627  54.871  1.00  0.00    -0.266 OA
HETATM    4  H   UNL     1       4.112  28.730  57.880  1.00  0.00     0.163 HD
ENDROOT
BRANCH   2   5
HETATM    5  C   UNL     1       4.981  27.536  55.827  1.00  0.00     0.120 A 
HETATM    6  N   UNL     1       4.600  26.631  56.777  1.00  0.00    -0.272 N 
HETATM    7  H   UNL     1       3.986  26.802  57.567  1.00  0.00     0.189 HD
HETATM    8  N   UNL     1       5.125  25.407  56.614  1.00  0.00    -0.174 NA
HETATM    9  C   UNL     1       5.872  25.503  55.502  1.00  0.00     0.089 A 
HETATM   10  C   UNL     1       5.809  26.825  54.981  1.00  0.00     0.071 A 
BRANCH   9  11
HETATM   11  C   UNL     1       6.624  24.359  54.976  1.00  0.00    -0.003 A 
HETATM   12  C   UNL     1       7.169  23.398  55.844  1.00  0.00     0.053 A 
HETATM   13  C   UNL     1       7.858  22.336  55.293  1.00  0.00     0.106 A 
HETATM   14  C   UNL     1       8.021  22.199  53.935  1.00  0.00     0.105 A 
HETATM   15  O   UNL     1       8.442  21.326  55.991  1.00  0.00    -0.323 OA
HETATM   16  O   UNL     1       8.727  21.085  53.606  1.00  0.00    -0.323 OA
HETATM   17  C   UNL     1       7.508  23.119  53.050  1.00  0.00     0.040 A 
HETATM   18  C   UNL     1       8.995  20.539  54.915  1.00  0.00     0.352 A 
HETATM   19  C   UNL     1       6.806  24.209  53.580  1.00  0.00     0.017 A 
ENDBRANCH   9  11
ENDBRANCH   2   5
BRANCH   1  20
HETATM   20  C   UNL     1       3.612  30.686  57.255  1.00  0.00     0.217 C 
BRANCH  20  21
HETATM   21  C   UNL     1       4.474  31.356  58.230  1.00  0.00    -0.085 C 
BRANCH  21  22
HETATM   22  C   UNL     1       5.240  31.971  59.088  1.00  0.00    -0.078 C 
BRANCH  22  23
HETATM   23  C   UNL     1       6.135  32.687  60.086  1.00  0.00     0.269 C 
BRANCH  23  24
HETATM   24  O   UNL     1       7.089  31.760  60.595  1.00  0.00    -0.338 OA
BRANCH  24  25
HETATM   25  C   UNL     1       8.115  31.423  59.760  1.00  0.00     0.087 A 
HETATM   26  C   UNL     1       9.243  32.179  59.468  1.00  0.00     0.153 A 
HETATM   27  N   UNL     1      10.233  31.781  58.630  1.00  0.00    -0.263 NA
HETATM   28  C   UNL     1      10.103  30.568  58.047  1.00  0.00     0.030 A 
HETATM   29  C   UNL     1      11.199  30.126  57.123  1.00  0.00     0.070 C 
HETATM   30  C   UNL     1       9.006  29.744  58.276  1.00  0.00     0.029 A 
HETATM   31  C   UNL     1       8.006  30.182  59.143  1.00  0.00     0.040 A 
ENDBRANCH  24  25
ENDBRANCH  23  24
ENDBRANCH  22  23
ENDBRANCH  21  22
ENDBRANCH  20  21
ENDBRANCH   1  20
TORSDOF 8
ENDMDL
MODEL 6
REMARK VINA RESULT:      -8.8      1.654      2.402
REMARK  8 active torsions:
REMARK  status: ('A' for Active; 'I' for Inactive)
REMARK    1  A    between atoms: C_5  and  O_6 
REMARK    2  A    between atoms: O_6  and  C_7 
REMARK    3  A    between atoms: C_7  and  C_8 
REMARK    4  A    between atoms: C_8  and  C_9 
REMARK    5  A    between atoms: C_9  and  C_10 
REMARK    6  A    between atoms: C_10  and  N_11 
REMARK       I    between atoms: N_11  and  C_12 
REMARK    7  A    between atoms: C_12  and  C_13 
REMARK    8  A    between atoms: C_17  and  C_18 
ROOT
HETATM    1  N   UNL     1       8.367  30.984  59.473  1.00  0.00    -0.345 N 
HETATM    2  C   UNL     1       8.574  30.779  60.813  1.00  0.00     0.270 C 
HETATM    3  O   UNL     1       9.479  30.070  61.242  1.00  0.00    -0.266 OA
HETATM    4  H   UNL     1       7.669  31.641  59.162  1.00  0.00     0.163 HD
ENDROOT
BRANCH   2   5
HETATM    5  C   UNL     1       7.655  31.459  61.684  1.00  0.00     0.120 A 
HETATM    6  N   UNL     1       6.378  31.752  61.295  1.00  0.00    -0.272 N 
HETATM    7  H   UNL     1       5.951  31.532  60.401  1.00  0.00     0.189 HD
HETATM    8  N   UNL     1       5.657  32.405  62.218  1.00  0.00    -0.174 NA
HETATM    9  C   UNL     1       6.485  32.539  63.266  1.00  0.00     0.089 A 
HETATM   10  C   UNL     1       7.750  31.959  62.968  1.00  0.00     0.071 A 
BRANCH   9  11
HETATM   11  C   UNL     1       6.068  33.211  64.501  1.00  0.00    -0.003 A 
HETATM   12  C   UNL     1       6.999  33.492  65.514  1.00  0.00     0.053 A 
HETATM   13  C   UNL     1       6.553  34.137  66.650  1.00  0.00     0.106 A 
HETATM   14  C   UNL     1       5.238  34.505  66.811  1.00  0.00     0.105 A 
HETATM   15  O   UNL     1       7.322  34.481  67.718  1.00  0.00    -0.323 OA
HETATM   16  O   UNL     1       5.014  35.128  67.998  1.00  0.00    -0.323 OA
HETATM   17  C   UNL     1       4.293  34.245  65.846  1.00  0.00     0.040 A 
HETATM   18  C   UNL     1       6.339  35.105  68.570  1.00  0.00     0.352 A 
HETATM   19  C   UNL     1       4.716  33.590  64.683  1.00  0.00     0.017 A 
ENDBRANCH   9  11
ENDBRANCH   2   5
BRANCH   1  20
HETATM   20  C   UNL     1       9.244  30.402  58.492  1.00  0.00     0.217 C 
BRANCH  20  21
HETATM   21  C   UNL     1       8.609  29.225  57.898  1.00  0.00    -0.085 C 
BRANCH  21  22
HETATM   22  C   UNL     1       8.030  28.175  57.385  1.00  0.00    -0.078 C 
BRANCH  22  23
HETATM   23  C   UNL     1       7.355  26.953  56.786  1.00  0.00     0.269 C 
BRANCH  23  24
HETATM   24  O   UNL     1       8.194  25.819  56.992  1.00  0.00    -0.338 OA
BRANCH  24  25
HETATM   25  C   UNL     1       8.075  24.803  56.088  1.00  0.00     0.087 A 
HETATM   26  C   UNL     1       7.409  24.835  54.870  1.00  0.00     0.153 A 
HETATM   27  N   UNL     1       7.334  23.786  54.013  1.00  0.00    -0.263 NA
HETATM   28  C   UNL     1       7.953  22.640  54.378  1.00  0.00     0.030 A 
HETATM   29  C   UNL     1       7.874  21.481  53.429  1.00  0.00     0.070 C 
HETATM   30  C   UNL     1       8.640  22.514  55.581  1.00  0.00     0.029 A 
HETATM   31  C   UNL     1       8.698  23.610  56.440  1.00  0.00     0.040 A 
ENDBRANCH  24  25
ENDBRANCH  23  24
ENDBRANCH  22  23
ENDBRANCH  21  22
ENDBRANCH  20  21
ENDBRANCH   1  20
TORSDOF 8
ENDMDL
MODEL 7
REMARK VINA RESULT:      -8.7      3.088     12.266
REMARK  8 active torsions:
REMARK  status: ('A' for Active; 'I' for Inactive)
REMARK    1  A    between atoms: C_5  and  O_6 
REMARK    2  A    between atoms: O_6  and  C_7 
REMARK    3  A    between atoms: C_7  and  C_8 
REMARK    4  A    between atoms: C_8  and  C_9 
REMARK    5  A    between atoms: C_9  and  C_10 
REMARK    6  A    between atoms: C_10  and  N_11 
REMARK       I    between atoms: N_11  and  C_12 
REMARK    7  A    between atoms: C_12  and  C_13 
REMARK    8  A    between atoms: C_17  and  C_18 
ROOT
HETATM    1  N   UNL     1       4.861  28.320  56.133  1.00  0.00    -0.345 N 
HETATM    2  C   UNL     1       5.213  28.315  54.807  1.00  0.00     0.270 C 
HETATM    3  O   UNL     1       5.029  29.280  54.071  1.00  0.00    -0.266 OA
HETATM    4  H   UNL     1       5.107  27.543  56.724  1.00  0.00     0.163 HD
ENDROOT
BRANCH   2   5
HETATM    5  C   UNL     1       5.818  27.099  54.339  1.00  0.00     0.120 A 
HETATM    6  N   UNL     1       6.191  26.937  53.034  1.00  0.00    -0.272 N 
HETATM    7  H   UNL     1       6.095  27.618  52.287  1.00  0.00     0.189 HD
HETATM    8  N   UNL     1       6.724  25.738  52.757  1.00  0.00    -0.174 NA
HETATM    9  C   UNL     1       6.715  25.083  53.930  1.00  0.00     0.089 A 
HETATM   10  C   UNL     1       6.152  25.905  54.946  1.00  0.00     0.071 A 
BRANCH   9  11
HETATM   11  C   UNL     1       7.224  23.713  54.054  1.00  0.00    -0.003 A 
HETATM   12  C   UNL     1       7.403  23.126  55.317  1.00  0.00     0.053 A 
HETATM   13  C   UNL     1       7.873  21.830  55.374  1.00  0.00     0.106 A 
HETATM   14  C   UNL     1       8.166  21.110  54.241  1.00  0.00     0.105 A 
HETATM   15  O   UNL     1       8.099  21.121  56.513  1.00  0.00    -0.323 OA
HETATM   16  O   UNL     1       8.612  19.857  54.522  1.00  0.00    -0.323 OA
HETATM   17  C   UNL     1       8.009  21.648  52.984  1.00  0.00     0.040 A 
HETATM   18  C   UNL     1       8.572  19.872  55.964  1.00  0.00     0.352 A 
HETATM   19  C   UNL     1       7.536  22.962  52.895  1.00  0.00     0.017 A 
ENDBRANCH   9  11
ENDBRANCH   2   5
BRANCH   1  20
HETATM   20  C   UNL     1       4.291  29.492  56.742  1.00  0.00     0.217 C 
BRANCH  20  21
HETATM   21  C   UNL     1       5.330  30.229  57.463  1.00  0.00    -0.085 C 
BRANCH  21  22
HETATM   22  C   UNL     1       6.271  30.872  58.096  1.00  0.00    -0.078 C 
BRANCH  22  23
HETATM   23  C   UNL     1       7.367  31.622  58.835  1.00  0.00     0.269 C 
BRANCH  23  24
HETATM   24  O   UNL     1       7.590  30.987  60.091  1.00  0.00    -0.338 OA
BRANCH  24  25
HETATM   25  C   UNL     1       7.350  31.739  61.204  1.00  0.00     0.087 A 
HETATM   26  C   UNL     1       6.249  32.548  61.451  1.00  0.00     0.153 A 
HETATM   27  N   UNL     1       6.069  33.268  62.586  1.00  0.00    -0.263 NA
HETATM   28  C   UNL     1       7.031  33.185  63.534  1.00  0.00     0.030 A 
HETATM   29  C   UNL     1       6.831  33.979  64.791  1.00  0.00     0.070 C 
HETATM   30  C   UNL     1       8.171  32.405  63.372  1.00  0.00     0.029 A 
HETATM   31  C   UNL     1       8.326  31.677  62.194  1.00  0.00     0.040 A 
ENDBRANCH  24  25
ENDBRANCH  23  24
ENDBRANCH  22  23
ENDBRANCH  21  22
ENDBRANCH  20  21
ENDBRANCH   1  20
TORSDOF 8
ENDMDL
MODEL 8
REMARK VINA RESULT:      -8.6      2.410     12.430
REMARK  8 active torsions:
REMARK  status: ('A' for Active; 'I' for Inactive)
REMARK    1  A    between atoms: C_5  and  O_6 
REMARK    2  A    between atoms: O_6  and  C_7 
REMARK    3  A    between atoms: C_7  and  C_8 
REMARK    4  A    between atoms: C_8  and  C_9 
REMARK    5  A    between atoms: C_9  and  C_10 
REMARK    6  A    between atoms: C_10  and  N_11 
REMARK       I    between atoms: N_11  and  C_12 
REMARK    7  A    between atoms: C_12  and  C_13 
REMARK    8  A    between atoms: C_17  and  C_18 
ROOT
HETATM    1  N   UNL     1       8.141  30.479  60.641  1.00  0.00    -0.345 N 
HETATM    2  C   UNL     1       7.957  30.836  59.330  1.00  0.00     0.270 C 
HETATM    3  O   UNL     1       8.110  31.986  58.930  1.00  0.00    -0.266 OA
HETATM    4  H   UNL     1       8.091  29.511  60.914  1.00  0.00     0.163 HD
ENDROOT
BRANCH   2   5
HETATM    5  C   UNL     1       7.573  29.765  58.452  1.00  0.00     0.120 A 
HETATM    6  N   UNL     1       6.303  29.660  57.959  1.00  0.00    -0.272 N 
HETATM    7  H   UNL     1       5.528  30.291  58.138  1.00  0.00     0.189 HD
HETATM    8  N   UNL     1       6.104  28.594  57.170  1.00  0.00    -0.174 NA
HETATM    9  C   UNL     1       7.294  27.974  57.129  1.00  0.00     0.089 A 
HETATM   10  C   UNL     1       8.242  28.679  57.924  1.00  0.00     0.071 A 
BRANCH   9  11
HETATM   11  C   UNL     1       7.499  26.744  56.358  1.00  0.00    -0.003 A 
HETATM   12  C   UNL     1       7.234  26.709  54.979  1.00  0.00     0.053 A 
HETATM   13  C   UNL     1       7.456  25.527  54.301  1.00  0.00     0.106 A 
HETATM   14  C   UNL     1       7.924  24.400  54.934  1.00  0.00     0.105 A 
HETATM   15  O   UNL     1       7.251  25.328  52.971  1.00  0.00    -0.323 OA
HETATM   16  O   UNL     1       8.073  23.350  54.084  1.00  0.00    -0.323 OA
HETATM   17  C   UNL     1       8.191  24.389  56.284  1.00  0.00     0.040 A 
HETATM   18  C   UNL     1       7.640  23.944  52.842  1.00  0.00     0.352 A 
HETATM   19  C   UNL     1       7.974  25.574  56.998  1.00  0.00     0.017 A 
ENDBRANCH   9  11
ENDBRANCH   2   5
BRANCH   1  20
HETATM   20  C   UNL     1       8.575  31.444  61.616  1.00  0.00     0.217 C 
BRANCH  20  21
HETATM   21  C   UNL     1       7.433  31.878  62.424  1.00  0.00    -0.085 C 
BRANCH  21  22
HETATM   22  C   UNL     1       6.405  32.266  63.125  1.00  0.00    -0.078 C 
BRANCH  22  23
HETATM   23  C   UNL     1       5.207  32.717  63.943  1.00  0.00     0.269 C 
BRANCH  23  24
HETATM   24  O   UNL     1       5.486  34.000  64.497  1.00  0.00    -0.338 OA
BRANCH  24  25
HETATM   25  C   UNL     1       5.530  34.078  65.859  1.00  0.00     0.087 A 
HETATM   26  C   UNL     1       4.455  34.048  66.738  1.00  0.00     0.153 A 
HETATM   27  N   UNL     1       4.569  34.124  68.087  1.00  0.00    -0.263 NA
HETATM   28  C   UNL     1       5.816  34.237  68.599  1.00  0.00     0.030 A 
HETATM   29  C   UNL     1       5.943  34.318  70.092  1.00  0.00     0.070 C 
HETATM   30  C   UNL     1       6.951  34.281  67.797  1.00  0.00     0.029 A 
HETATM   31  C   UNL     1       6.800  34.200  66.414  1.00  0.00     0.040 A 
ENDBRANCH  24  25
ENDBRANCH  23  24
ENDBRANCH  22  23
ENDBRANCH  21  22
ENDBRANCH  20  21
ENDBRANCH   1  20
TORSDOF 8
ENDMDL
MODEL 9
REMARK VINA RESULT:      -8.4      2.355     11.131
REMARK  8 active torsions:
REMARK  status: ('A' for Active; 'I' for Inactive)
REMARK    1  A    between atoms: C_5  and  O_6 
REMARK    2  A    between atoms: O_6  and  C_7 
REMARK    3  A    between atoms: C_7  and  C_8 
REMARK    4  A    between atoms: C_8  and  C_9 
REMARK    5  A    between atoms: C_9  and  C_10 
REMARK    6  A    between atoms: C_10  and  N_11 
REMARK       I    between atoms: N_11  and  C_12 
REMARK    7  A    between atoms: C_12  and  C_13 
REMARK    8  A    between atoms: C_17  and  C_18 
ROOT
HETATM    1  N   UNL     1       8.624  30.501  60.662  1.00  0.00    -0.345 N 
HETATM    2  C   UNL     1       8.362  30.861  59.364  1.00  0.00     0.270 C 
HETATM    3  O   UNL     1       8.618  31.978  58.924  1.00  0.00    -0.266 OA
HETATM    4  H   UNL     1       8.480  29.550  60.962  1.00  0.00     0.163 HD
ENDROOT
BRANCH   2   5
HETATM    5  C   UNL     1       7.768  29.835  58.553  1.00  0.00     0.120 A 
HETATM    6  N   UNL     1       6.445  29.865  58.212  1.00  0.00    -0.272 N 
HETATM    7  H   UNL     1       5.767  30.575  58.470  1.00  0.00     0.189 HD
HETATM    8  N   UNL     1       6.045  28.824  57.466  1.00  0.00    -0.174 NA
HETATM    9  C   UNL     1       7.150  28.081  57.296  1.00  0.00     0.089 A 
HETATM   10  C   UNL     1       8.253  28.683  57.966  1.00  0.00     0.071 A 
BRANCH   9  11
HETATM   11  C   UNL     1       7.133  26.834  56.525  1.00  0.00    -0.003 A 
HETATM   12  C   UNL     1       7.572  25.630  57.099  1.00  0.00     0.053 A 
HETATM   13  C   UNL     1       7.523  24.484  56.330  1.00  0.00     0.106 A 
HETATM   14  C   UNL     1       7.062  24.494  55.035  1.00  0.00     0.105 A 
HETATM   15  O   UNL     1       7.907  23.244  56.735  1.00  0.00    -0.323 OA
HETATM   16  O   UNL     1       7.097  23.262  54.462  1.00  0.00    -0.323 OA
HETATM   17  C   UNL     1       6.628  25.653  54.433  1.00  0.00     0.040 A 
HETATM   18  C   UNL     1       7.638  22.475  55.543  1.00  0.00     0.352 A 
HETATM   19  C   UNL     1       6.668  26.831  55.188  1.00  0.00     0.017 A 
ENDBRANCH   9  11
ENDBRANCH   2   5
BRANCH   1  20
HETATM   20  C   UNL     1       9.263  31.417  61.569  1.00  0.00     0.217 C 
BRANCH  20  21
HETATM   21  C   UNL     1       8.265  31.999  62.468  1.00  0.00    -0.085 C 
BRANCH  21  22
HETATM   22  C   UNL     1       7.388  32.511  63.286  1.00  0.00    -0.078 C 
BRANCH  22  23
HETATM   23  C   UNL     1       6.367  33.108  64.239  1.00  0.00     0.269 C 
BRANCH  23  24
HETATM   24  O   UNL     1       5.120  32.446  64.049  1.00  0.00    -0.338 OA
BRANCH  24  25
HETATM   25  C   UNL     1       4.268  33.003  63.140  1.00  0.00     0.087 A 
HETATM   26  C   UNL     1       3.989  32.546  61.859  1.00  0.00     0.153 A 
HETATM   27  N   UNL     1       3.123  33.146  61.005  1.00  0.00    -0.263 NA
HETATM   28  C   UNL     1       2.496  34.264  61.440  1.00  0.00     0.030 A 
HETATM   29  C   UNL     1       1.535  34.926  60.497  1.00  0.00     0.070 C 
HETATM   30  C   UNL     1       2.716  34.798  62.705  1.00  0.00     0.029 A 
HETATM   31  C   UNL     1       3.612  34.156  63.559  1.00  0.00     0.040 A 
ENDBRANCH  24  25
ENDBRANCH  23  24
ENDBRANCH  22  23
ENDBRANCH  21  22
ENDBRANCH  20  21
ENDBRANCH   1  20
TORSDOF 8
ENDMDL
MODEL 10
REMARK VINA RESULT:      -8.4      2.238     12.233
REMARK  8 active torsions:
REMARK  status: ('A' for Active; 'I' for Inactive)
REMARK    1  A    between atoms: C_5  and  O_6 
REMARK    2  A    between atoms: O_6  and  C_7 
REMARK    3  A    between atoms: C_7  and  C_8 
REMARK    4  A    between atoms: C_8  and  C_9 
REMARK    5  A    between atoms: C_9  and  C_10 
REMARK    6  A    between atoms: C_10  and  N_11 
REMARK       I    between atoms: N_11  and  C_12 
REMARK    7  A    between atoms: C_12  and  C_13 
REMARK    8  A    between atoms: C_17  and  C_18 
ROOT
HETATM    1  N   UNL     1       7.949  29.895  59.444  1.00  0.00    -0.345 N 
HETATM    2  C   UNL     1       8.447  29.569  58.208  1.00  0.00     0.270 C 
HETATM    3  O   UNL     1       9.285  30.254  57.631  1.00  0.00    -0.266 OA
HETATM    4  H   UNL     1       7.328  29.263  59.923  1.00  0.00     0.163 HD
ENDROOT
BRANCH   2   5
HETATM    5  C   UNL     1       7.920  28.361  57.636  1.00  0.00     0.120 A 
HETATM    6  N   UNL     1       6.577  28.169  57.475  1.00  0.00    -0.272 N 
HETATM    7  H   UNL     1       5.837  28.819  57.720  1.00  0.00     0.189 HD
HETATM    8  N   UNL     1       6.249  26.981  56.944  1.00  0.00    -0.174 NA
HETATM    9  C   UNL     1       7.424  26.367  56.733  1.00  0.00     0.089 A 
HETATM   10  C   UNL     1       8.497  27.201  57.158  1.00  0.00     0.071 A 
BRANCH   9  11
HETATM   11  C   UNL     1       7.501  25.022  56.154  1.00  0.00    -0.003 A 
HETATM   12  C   UNL     1       7.987  23.942  56.909  1.00  0.00     0.053 A 
HETATM   13  C   UNL     1       8.026  22.696  56.317  1.00  0.00     0.106 A 
HETATM   14  C   UNL     1       7.605  22.490  55.025  1.00  0.00     0.105 A 
HETATM   15  O   UNL     1       8.466  21.553  56.909  1.00  0.00    -0.323 OA
HETATM   16  O   UNL     1       7.727  21.191  54.640  1.00  0.00    -0.323 OA
HETATM   17  C   UNL     1       7.126  23.520  54.248  1.00  0.00     0.040 A 
HETATM   18  C   UNL     1       8.277  20.604  55.837  1.00  0.00     0.352 A 
HETATM   19  C   UNL     1       7.077  24.796  54.822  1.00  0.00     0.017 A 
ENDBRANCH   9  11
ENDBRANCH   2   5
BRANCH   1  20
HETATM   20  C   UNL     1       8.428  31.053  60.152  1.00  0.00     0.217 C 
BRANCH  20  21
HETATM   21  C   UNL     1       7.295  31.876  60.577  1.00  0.00    -0.085 C 
BRANCH  21  22
HETATM   22  C   UNL     1       6.271  32.593  60.949  1.00  0.00    -0.078 C 
BRANCH  22  23
HETATM   23  C   UNL     1       5.079  33.429  61.384  1.00  0.00     0.269 C 
BRANCH  23  24
HETATM   24  O   UNL     1       5.545  34.509  62.187  1.00  0.00    -0.338 OA
BRANCH  24  25
HETATM   25  C   UNL     1       5.388  34.376  63.537  1.00  0.00     0.087 A 
HETATM   26  C   UNL     1       6.381  34.146  64.480  1.00  0.00     0.153 A 
HETATM   27  N   UNL     1       6.157  34.029  65.812  1.00  0.00    -0.263 NA
HETATM   28  C   UNL     1       4.878  34.144  66.239  1.00  0.00     0.030 A 
HETATM   29  C   UNL     1       4.630  34.017  67.713  1.00  0.00     0.070 C 
HETATM   30  C   UNL     1       3.818  34.369  65.368  1.00  0.00     0.029 A 
HETATM   31  C   UNL     1       4.082  34.485  64.004  1.00  0.00     0.040 A 
ENDBRANCH  24  25
ENDBRANCH  23  24
ENDBRANCH  22  23
ENDBRANCH  21  22
ENDBRANCH  20  21
ENDBRANCH   1  20
TORSDOF 8
ENDMDL
