MODEL 1
REMARK VINA RESULT:      -8.4      0.000      0.000
REMARK  8 active torsions:
REMARK  status: ('A' for Active; 'I' for Inactive)
REMARK    1  A    between atoms: C_2  and  C_3 
REMARK    2  A    between atoms: C_3  and  N_4 
REMARK    3  A    between atoms: C_3  and  C_20 
REMARK    4  A    between atoms: N_4  and  C_7 
REMARK    5  A    between atoms: C_7  and  C_8 
REMARK    6  A    between atoms: C_10  and  O_11 
REMARK    7  A    between atoms: C_13  and  O_14 
REMARK    8  A    between atoms: C_16  and  O_17 
ROOT
HETATM    1  N   UNL     1       6.775  25.527  51.498  1.00  0.00    -0.060 N 
HETATM    2  H   UNL     1       6.282  24.633  51.560  1.00  0.00     0.278 HD
HETATM    3  H   UNL     1       7.098  25.615  50.520  1.00  0.00     0.278 HD
ENDROOT
BRANCH   1   4
HETATM    4  C   UNL     1       5.887  26.718  51.724  1.00  0.00     0.258 C 
BRANCH   4   5
HETATM    5  C   UNL     1       5.088  26.560  53.042  1.00  0.00     0.016 C 
HETATM    6  C   UNL     1       4.483  25.156  53.167  1.00  0.00     0.012 C 
HETATM    7  C   UNL     1       3.991  27.614  53.239  1.00  0.00     0.012 C 
ENDBRANCH   4   5
BRANCH   4   8
HETATM    8  C   UNL     1       4.984  26.850  50.535  1.00  0.00     0.136 A 
HETATM    9  N   UNL     1       4.636  28.009  50.005  1.00  0.00    -0.231 NA
HETATM   10  C   UNL     1       3.801  27.696  48.959  1.00  0.00     0.085 A 
HETATM   11  C   UNL     1       3.622  26.319  48.868  1.00  0.00     0.062 A 
HETATM   12  C   UNL     1       3.153  28.537  48.045  1.00  0.00     0.034 A 
HETATM   13  N   UNL     1       4.390  25.800  49.879  1.00  0.00    -0.341 N 
HETATM   14  C   UNL     1       2.811  25.717  47.904  1.00  0.00     0.032 A 
HETATM   15  H   UNL     1       4.489  24.813  50.081  1.00  0.00     0.167 HD
HETATM   16  C   UNL     1       2.168  26.572  47.001  1.00  0.00     0.002 A 
HETATM   17  C   UNL     1       2.335  27.957  47.067  1.00  0.00     0.002 A 
ENDBRANCH   4   8
ENDBRANCH   1   4
BRANCH   1  18
HETATM   18  C   UNL     1       8.001  25.486  52.339  1.00  0.00     0.272 C 
BRANCH  18  19
HETATM   19  C   UNL     1       7.943  24.337  53.303  1.00  0.00    -0.027 A 
HETATM   20  C   UNL     1       7.880  23.018  52.840  1.00  0.00     0.048 A 
HETATM   21  C   UNL     1       7.765  21.952  53.742  1.00  0.00     0.104 A 
HETATM   22  C   UNL     1       7.693  22.199  55.130  1.00  0.00     0.135 A 
HETATM   23  C   UNL     1       7.732  23.521  55.599  1.00  0.00     0.104 A 
HETATM   24  C   UNL     1       7.864  24.572  54.679  1.00  0.00     0.048 A 
BRANCH  21  25
HETATM   25  O   UNL     1       7.614  20.657  53.313  1.00  0.00    -0.353 OA
HETATM   26  C   UNL     1       8.799  20.008  52.863  1.00  0.00     0.210 C 
ENDBRANCH  21  25
BRANCH  22  27
HETATM   27  O   UNL     1       7.491  21.178  56.023  1.00  0.00    -0.351 OA
HETATM   28  C   UNL     1       8.693  20.674  56.606  1.00  0.00     0.210 C 
ENDBRANCH  22  27
BRANCH  23  29
HETATM   29  O   UNL     1       7.647  23.984  56.885  1.00  0.00    -0.353 OA
HETATM   30  C   UNL     1       8.825  24.451  57.528  1.00  0.00     0.210 C 
ENDBRANCH  23  29
ENDBRANCH  18  19
ENDBRANCH   1  18
TORSDOF 8
ENDMDL
MODEL 2
REMARK VINA RESULT:      -8.3      0.330      2.443
REMARK  8 active torsions:
REMARK  status: ('A' for Active; 'I' for Inactive)
REMARK    1  A    between atoms: C_2  and  C_3 
REMARK    2  A    between atoms: C_3  and  N_4 
REMARK    3  A    between atoms: C_3  and  C_20 
REMARK    4  A    between atoms: N_4  and  C_7 
REMARK    5  A    between atoms: C_7  and  C_8 
REMARK    6  A    between atoms: C_10  and  O_11 
REMARK    7  A    between atoms: C_13  and  O_14 
REMARK    8  A    between atoms: C_16  and  O_17 
ROOT
HETATM    1  N   UNL     1       6.872  25.503  51.556  1.00  0.00    -0.060 N 
HETATM    2  H   UNL     1       6.355  24.620  51.547  1.00  0.00     0.278 HD
HETATM    3  H   UNL     1       7.212  25.652  50.591  1.00  0.00     0.278 HD
ENDROOT
BRANCH   1   4
HETATM    4  C   UNL     1       6.010  26.697  51.855  1.00  0.00     0.258 C 
BRANCH   4   5
HETATM    5  C   UNL     1       5.162  26.452  53.128  1.00  0.00     0.016 C 
HETATM    6  C   UNL     1       4.518  25.061  53.114  1.00  0.00     0.012 C 
HETATM    7  C   UNL     1       4.085  27.516  53.377  1.00  0.00     0.012 C 
ENDBRANCH   4   5
BRANCH   4   8
HETATM    8  C   UNL     1       5.154  26.959  50.653  1.00  0.00     0.136 A 
HETATM    9  N   UNL     1       4.946  28.163  50.150  1.00  0.00    -0.231 NA
HETATM   10  C   UNL     1       4.104  27.970  49.079  1.00  0.00     0.085 A 
HETATM   11  C   UNL     1       3.777  26.625  48.947  1.00  0.00     0.062 A 
HETATM   12  C   UNL     1       3.573  28.901  48.178  1.00  0.00     0.034 A 
HETATM   13  N   UNL     1       4.462  25.998  49.958  1.00  0.00    -0.341 N 
HETATM   14  C   UNL     1       2.926  26.140  47.952  1.00  0.00     0.032 A 
HETATM   15  H   UNL     1       4.447  25.001  50.134  1.00  0.00     0.167 HD
HETATM   16  C   UNL     1       2.401  27.084  47.061  1.00  0.00     0.002 A 
HETATM   17  C   UNL     1       2.718  28.440  47.169  1.00  0.00     0.002 A 
ENDBRANCH   4   8
ENDBRANCH   1   4
BRANCH   1  18
HETATM   18  C   UNL     1       8.083  25.370  52.408  1.00  0.00     0.272 C 
BRANCH  18  19
HETATM   19  C   UNL     1       7.910  24.261  53.404  1.00  0.00    -0.027 A 
HETATM   20  C   UNL     1       7.956  24.521  54.779  1.00  0.00     0.048 A 
HETATM   21  C   UNL     1       7.854  23.475  55.705  1.00  0.00     0.104 A 
HETATM   22  C   UNL     1       7.721  22.141  55.260  1.00  0.00     0.135 A 
HETATM   23  C   UNL     1       7.698  21.872  53.883  1.00  0.00     0.104 A 
HETATM   24  C   UNL     1       7.785  22.936  52.973  1.00  0.00     0.048 A 
BRANCH  21  25
HETATM   25  O   UNL     1       7.983  23.690  57.054  1.00  0.00    -0.353 OA
HETATM   26  C   UNL     1       8.487  24.967  57.435  1.00  0.00     0.210 C 
ENDBRANCH  21  25
BRANCH  22  27
HETATM   27  O   UNL     1       7.709  21.095  56.146  1.00  0.00    -0.351 OA
HETATM   28  C   UNL     1       9.002  20.557  56.424  1.00  0.00     0.210 C 
ENDBRANCH  22  27
BRANCH  23  29
HETATM   29  O   UNL     1       7.609  20.666  53.240  1.00  0.00    -0.353 OA
HETATM   30  C   UNL     1       8.794  20.066  52.734  1.00  0.00     0.210 C 
ENDBRANCH  23  29
ENDBRANCH  18  19
ENDBRANCH   1  18
TORSDOF 8
ENDMDL
MODEL 3
REMARK VINA RESULT:      -8.2      3.756      8.315
REMARK  8 active torsions:
REMARK  status: ('A' for Active; 'I' for Inactive)
REMARK    1  A    between atoms: C_2  and  C_3 
REMARK    2  A    between atoms: C_3  and  N_4 
REMARK    3  A    between atoms: C_3  and  C_20 
REMARK    4  A    between atoms: N_4  and  C_7 
REMARK    5  A    between atoms: C_7  and  C_8 
REMARK    6  A    between atoms: C_10  and  O_11 
REMARK    7  A    between atoms: C_13  and  O_14 
REMARK    8  A    between atoms: C_16  and  O_17 
ROOT
HETATM    1  N   UNL     1       6.397  25.870  52.509  1.00  0.00    -0.060 N 
HETATM    2  H   UNL     1       6.801  26.782  52.277  1.00  0.00     0.278 HD
HETATM    3  H   UNL     1       7.025  25.160  52.095  1.00  0.00     0.278 HD
ENDROOT
BRANCH   1   4
HETATM    4  C   UNL     1       6.392  25.576  53.982  1.00  0.00     0.258 C 
BRANCH   4   5
HETATM    5  C   UNL     1       7.220  26.634  54.753  1.00  0.00     0.016 C 
HETATM    6  C   UNL     1       6.452  27.173  55.965  1.00  0.00     0.012 C 
HETATM    7  C   UNL     1       7.703  27.804  53.886  1.00  0.00     0.012 C 
ENDBRANCH   4   5
BRANCH   4   8
HETATM    8  C   UNL     1       6.933  24.191  54.176  1.00  0.00     0.136 A 
HETATM    9  N   UNL     1       7.101  23.630  55.360  1.00  0.00    -0.231 NA
HETATM   10  C   UNL     1       7.625  22.385  55.103  1.00  0.00     0.085 A 
HETATM   11  C   UNL     1       7.800  22.198  53.735  1.00  0.00     0.062 A 
HETATM   12  C   UNL     1       7.982  21.361  55.989  1.00  0.00     0.034 A 
HETATM   13  N   UNL     1       7.347  23.361  53.164  1.00  0.00    -0.341 N 
HETATM   14  C   UNL     1       8.329  21.029  53.185  1.00  0.00     0.032 A 
HETATM   15  H   UNL     1       7.326  23.546  52.169  1.00  0.00     0.167 HD
HETATM   16  C   UNL     1       8.684  20.017  54.085  1.00  0.00     0.002 A 
HETATM   17  C   UNL     1       8.514  20.177  55.462  1.00  0.00     0.002 A 
ENDBRANCH   4   8
ENDBRANCH   1   4
BRANCH   1  18
HETATM   18  C   UNL     1       5.084  25.713  51.829  1.00  0.00     0.272 C 
BRANCH  18  19
HETATM   19  C   UNL     1       4.999  26.609  50.629  1.00  0.00    -0.027 A 
HETATM   20  C   UNL     1       4.458  26.143  49.425  1.00  0.00     0.048 A 
HETATM   21  C   UNL     1       4.436  26.964  48.290  1.00  0.00     0.104 A 
HETATM   22  C   UNL     1       4.978  28.266  48.343  1.00  0.00     0.135 A 
HETATM   23  C   UNL     1       5.544  28.731  49.540  1.00  0.00     0.104 A 
HETATM   24  C   UNL     1       5.540  27.898  50.669  1.00  0.00     0.048 A 
BRANCH  21  25
HETATM   25  O   UNL     1       3.991  26.504  47.075  1.00  0.00    -0.353 OA
HETATM   26  C   UNL     1       2.588  26.281  46.970  1.00  0.00     0.210 C 
ENDBRANCH  21  25
BRANCH  22  27
HETATM   27  O   UNL     1       5.047  29.053  47.222  1.00  0.00    -0.351 OA
HETATM   28  C   UNL     1       3.952  29.959  47.083  1.00  0.00     0.210 C 
ENDBRANCH  22  27
BRANCH  23  29
HETATM   29  O   UNL     1       6.145  29.933  49.803  1.00  0.00    -0.353 OA
HETATM   30  C   UNL     1       5.393  30.953  50.447  1.00  0.00     0.210 C 
ENDBRANCH  23  29
ENDBRANCH  18  19
ENDBRANCH   1  18
TORSDOF 8
ENDMDL
MODEL 4
REMARK VINA RESULT:      -8.2      4.936      8.406
REMARK  8 active torsions:
REMARK  status: ('A' for Active; 'I' for Inactive)
REMARK    1  A    between atoms: C_2  and  C_3 
REMARK    2  A    between atoms: C_3  and  N_4 
REMARK    3  A    between atoms: C_3  and  C_20 
REMARK    4  A    between atoms: N_4  and  C_7 
REMARK    5  A    between atoms: C_7  and  C_8 
REMARK    6  A    between atoms: C_10  and  O_11 
REMARK    7  A    between atoms: C_13  and  O_14 
REMARK    8  A    between atoms: C_16  and  O_17 
ROOT
HETATM    1  N   UNL     1       7.384  26.760  56.363  1.00  0.00    -0.060 N 
HETATM    2  H   UNL     1       7.313  25.922  56.946  1.00  0.00     0.278 HD
HETATM    3  H   UNL     1       8.313  27.171  56.555  1.00  0.00     0.278 HD
ENDROOT
BRANCH   1   4
HETATM    4  C   UNL     1       7.383  26.466  54.889  1.00  0.00     0.258 C 
BRANCH   4   5
HETATM    5  C   UNL     1       6.091  27.004  54.226  1.00  0.00     0.016 C 
HETATM    6  C   UNL     1       5.160  25.862  53.803  1.00  0.00     0.012 C 
HETATM    7  C   UNL     1       6.341  27.935  53.033  1.00  0.00     0.012 C 
ENDBRANCH   4   5
BRANCH   4   8
HETATM    8  C   UNL     1       7.526  24.983  54.717  1.00  0.00     0.136 A 
HETATM    9  N   UNL     1       7.427  24.117  55.710  1.00  0.00    -0.231 NA
HETATM   10  C   UNL     1       7.633  22.883  55.139  1.00  0.00     0.085 A 
HETATM   11  C   UNL     1       7.886  23.007  53.777  1.00  0.00     0.062 A 
HETATM   12  C   UNL     1       7.625  21.611  55.726  1.00  0.00     0.034 A 
HETATM   13  N   UNL     1       7.807  24.355  53.528  1.00  0.00    -0.341 N 
HETATM   14  C   UNL     1       8.145  21.916  52.946  1.00  0.00     0.032 A 
HETATM   15  H   UNL     1       7.932  24.783  52.620  1.00  0.00     0.167 HD
HETATM   16  C   UNL     1       8.137  20.652  53.549  1.00  0.00     0.002 A 
HETATM   17  C   UNL     1       7.881  20.500  54.913  1.00  0.00     0.002 A 
ENDBRANCH   4   8
ENDBRANCH   1   4
BRANCH   1  18
HETATM   18  C   UNL     1       6.384  27.768  56.806  1.00  0.00     0.272 C 
BRANCH  18  19
HETATM   19  C   UNL     1       7.063  28.939  57.452  1.00  0.00    -0.027 A 
HETATM   20  C   UNL     1       6.332  30.070  57.832  1.00  0.00     0.048 A 
HETATM   21  C   UNL     1       6.979  31.185  58.380  1.00  0.00     0.104 A 
HETATM   22  C   UNL     1       8.382  31.186  58.538  1.00  0.00     0.135 A 
HETATM   23  C   UNL     1       9.124  30.065  58.138  1.00  0.00     0.104 A 
HETATM   24  C   UNL     1       8.453  28.953  57.606  1.00  0.00     0.048 A 
BRANCH  21  25
HETATM   25  O   UNL     1       6.299  32.339  58.681  1.00  0.00    -0.353 OA
HETATM   26  C   UNL     1       5.638  32.361  59.942  1.00  0.00     0.210 C 
ENDBRANCH  21  25
BRANCH  22  27
HETATM   27  O   UNL     1       9.044  32.299  58.990  1.00  0.00    -0.351 OA
HETATM   28  C   UNL     1       9.380  32.250  60.376  1.00  0.00     0.210 C 
ENDBRANCH  22  27
BRANCH  23  29
HETATM   29  O   UNL     1      10.479  29.867  58.171  1.00  0.00    -0.353 OA
HETATM   30  C   UNL     1      11.180  29.693  56.947  1.00  0.00     0.210 C 
ENDBRANCH  23  29
ENDBRANCH  18  19
ENDBRANCH   1  18
TORSDOF 8
ENDMDL
MODEL 5
REMARK VINA RESULT:      -8.2      3.926      7.735
REMARK  8 active torsions:
REMARK  status: ('A' for Active; 'I' for Inactive)
REMARK    1  A    between atoms: C_2  and  C_3 
REMARK    2  A    between atoms: C_3  and  N_4 
REMARK    3  A    between atoms: C_3  and  C_20 
REMARK    4  A    between atoms: N_4  and  C_7 
REMARK    5  A    between atoms: C_7  and  C_8 
REMARK    6  A    between atoms: C_10  and  O_11 
REMARK    7  A    between atoms: C_13  and  O_14 
REMARK    8  A    between atoms: C_16  and  O_17 
ROOT
HETATM    1  N   UNL     1       6.979  26.411  54.041  1.00  0.00    -0.060 N 
HETATM    2  H   UNL     1       5.995  26.573  54.274  1.00  0.00     0.278 HD
HETATM    3  H   UNL     1       7.394  25.920  54.851  1.00  0.00     0.278 HD
ENDROOT
BRANCH   1   4
HETATM    4  C   UNL     1       7.172  25.480  52.878  1.00  0.00     0.258 C 
BRANCH   4   5
HETATM    5  C   UNL     1       5.892  25.418  52.009  1.00  0.00     0.016 C 
HETATM    6  C   UNL     1       5.664  26.732  51.252  1.00  0.00     0.012 C 
HETATM    7  C   UNL     1       4.624  25.045  52.787  1.00  0.00     0.012 C 
ENDBRANCH   4   5
BRANCH   4   8
HETATM    8  C   UNL     1       7.543  24.134  53.424  1.00  0.00     0.136 A 
HETATM    9  N   UNL     1       7.971  23.132  52.677  1.00  0.00    -0.231 NA
HETATM   10  C   UNL     1       8.182  22.090  53.549  1.00  0.00     0.085 A 
HETATM   11  C   UNL     1       7.852  22.461  54.848  1.00  0.00     0.062 A 
HETATM   12  C   UNL     1       8.649  20.793  53.300  1.00  0.00     0.034 A 
HETATM   13  N   UNL     1       7.453  23.771  54.746  1.00  0.00    -0.341 N 
HETATM   14  C   UNL     1       7.954  21.597  55.939  1.00  0.00     0.032 A 
HETATM   15  H   UNL     1       7.154  24.346  55.523  1.00  0.00     0.167 HD
HETATM   16  C   UNL     1       8.420  20.303  55.673  1.00  0.00     0.002 A 
HETATM   17  C   UNL     1       8.763  19.906  54.379  1.00  0.00     0.002 A 
ENDBRANCH   4   8
ENDBRANCH   1   4
BRANCH   1  18
HETATM   18  C   UNL     1       7.691  27.712  53.933  1.00  0.00     0.272 C 
BRANCH  18  19
HETATM   19  C   UNL     1       7.634  28.456  55.234  1.00  0.00    -0.027 A 
HETATM   20  C   UNL     1       8.805  28.922  55.844  1.00  0.00     0.048 A 
HETATM   21  C   UNL     1       8.752  29.563  57.089  1.00  0.00     0.104 A 
HETATM   22  C   UNL     1       7.517  29.730  57.751  1.00  0.00     0.135 A 
HETATM   23  C   UNL     1       6.343  29.244  57.157  1.00  0.00     0.104 A 
HETATM   24  C   UNL     1       6.416  28.620  55.902  1.00  0.00     0.048 A 
BRANCH  21  25
HETATM   25  O   UNL     1       9.891  29.952  57.749  1.00  0.00    -0.353 OA
HETATM   26  C   UNL     1      11.115  29.755  57.047  1.00  0.00     0.210 C 
ENDBRANCH  21  25
BRANCH  22  27
HETATM   27  O   UNL     1       7.454  30.274  59.009  1.00  0.00    -0.351 OA
HETATM   28  C   UNL     1       7.179  31.675  59.019  1.00  0.00     0.210 C 
ENDBRANCH  22  27
BRANCH  23  29
HETATM   29  O   UNL     1       5.058  29.270  57.631  1.00  0.00    -0.353 OA
HETATM   30  C   UNL     1       4.198  30.329  57.232  1.00  0.00     0.210 C 
ENDBRANCH  23  29
ENDBRANCH  18  19
ENDBRANCH   1  18
TORSDOF 8
ENDMDL
MODEL 6
REMARK VINA RESULT:      -8.2      5.063      8.502
REMARK  8 active torsions:
REMARK  status: ('A' for Active; 'I' for Inactive)
REMARK    1  A    between atoms: C_2  and  C_3 
REMARK    2  A    between atoms: C_3  and  N_4 
REMARK    3  A    between atoms: C_3  and  C_20 
REMARK    4  A    between atoms: N_4  and  C_7 
REMARK    5  A    between atoms: C_7  and  C_8 
REMARK    6  A    between atoms: C_10  and  O_11 
REMARK    7  A    between atoms: C_13  and  O_14 
REMARK    8  A    between atoms: C_16  and  O_17 
ROOT
HETATM    1  N   UNL     1       6.737  26.322  56.609  1.00  0.00    -0.060 N 
HETATM    2  H   UNL     1       5.821  26.764  56.492  1.00  0.00     0.278 HD
HETATM    3  H   UNL     1       6.556  25.359  56.938  1.00  0.00     0.278 HD
ENDROOT
BRANCH   1   4
HETATM    4  C   UNL     1       7.491  26.160  55.320  1.00  0.00     0.258 C 
BRANCH   4   5
HETATM    5  C   UNL     1       6.765  26.895  54.167  1.00  0.00     0.016 C 
HETATM    6  C   UNL     1       7.345  28.296  53.940  1.00  0.00     0.012 C 
HETATM    7  C   UNL     1       5.244  26.989  54.343  1.00  0.00     0.012 C 
ENDBRANCH   4   5
BRANCH   4   8
HETATM    8  C   UNL     1       7.629  24.692  55.050  1.00  0.00     0.136 A 
HETATM    9  N   UNL     1       7.708  23.776  56.000  1.00  0.00    -0.231 NA
HETATM   10  C   UNL     1       7.840  22.577  55.340  1.00  0.00     0.085 A 
HETATM   11  C   UNL     1       7.865  22.773  53.963  1.00  0.00     0.062 A 
HETATM   12  C   UNL     1       7.950  21.278  55.853  1.00  0.00     0.034 A 
HETATM   13  N   UNL     1       7.724  24.129  53.801  1.00  0.00    -0.341 N 
HETATM   14  C   UNL     1       8.005  21.731  53.046  1.00  0.00     0.032 A 
HETATM   15  H   UNL     1       7.692  24.604  52.908  1.00  0.00     0.167 HD
HETATM   16  C   UNL     1       8.117  20.439  53.576  1.00  0.00     0.002 A 
HETATM   17  C   UNL     1       8.088  20.214  54.953  1.00  0.00     0.002 A 
ENDBRANCH   4   8
ENDBRANCH   1   4
BRANCH   1  18
HETATM   18  C   UNL     1       7.488  27.000  57.699  1.00  0.00     0.272 C 
BRANCH  18  19
HETATM   19  C   UNL     1       7.160  28.464  57.736  1.00  0.00    -0.027 A 
HETATM   20  C   UNL     1       8.104  29.397  58.182  1.00  0.00     0.048 A 
HETATM   21  C   UNL     1       7.773  30.756  58.272  1.00  0.00     0.104 A 
HETATM   22  C   UNL     1       6.476  31.197  57.930  1.00  0.00     0.135 A 
HETATM   23  C   UNL     1       5.519  30.263  57.505  1.00  0.00     0.104 A 
HETATM   24  C   UNL     1       5.876  28.910  57.407  1.00  0.00     0.048 A 
BRANCH  21  25
HETATM   25  O   UNL     1       8.649  31.679  58.787  1.00  0.00    -0.353 OA
HETATM   26  C   UNL     1      10.019  31.496  58.444  1.00  0.00     0.210 C 
ENDBRANCH  21  25
BRANCH  22  27
HETATM   27  O   UNL     1       6.106  32.507  58.094  1.00  0.00    -0.351 OA
HETATM   28  C   UNL     1       5.480  32.777  59.349  1.00  0.00     0.210 C 
ENDBRANCH  22  27
BRANCH  23  29
HETATM   29  O   UNL     1       4.209  30.464  57.158  1.00  0.00    -0.353 OA
HETATM   30  C   UNL     1       3.796  30.173  55.829  1.00  0.00     0.210 C 
ENDBRANCH  23  29
ENDBRANCH  18  19
ENDBRANCH   1  18
TORSDOF 8
ENDMDL
MODEL 7
REMARK VINA RESULT:      -8.1      3.778      8.599
REMARK  8 active torsions:
REMARK  status: ('A' for Active; 'I' for Inactive)
REMARK    1  A    between atoms: C_2  and  C_3 
REMARK    2  A    between atoms: C_3  and  N_4 
REMARK    3  A    between atoms: C_3  and  C_20 
REMARK    4  A    between atoms: N_4  and  C_7 
REMARK    5  A    between atoms: C_7  and  C_8 
REMARK    6  A    between atoms: C_10  and  O_11 
REMARK    7  A    between atoms: C_13  and  O_14 
REMARK    8  A    between atoms: C_16  and  O_17 
ROOT
HETATM    1  N   UNL     1       6.415  25.800  52.553  1.00  0.00    -0.060 N 
HETATM    2  H   UNL     1       6.948  26.641  52.316  1.00  0.00     0.278 HD
HETATM    3  H   UNL     1       6.927  25.004  52.137  1.00  0.00     0.278 HD
ENDROOT
BRANCH   1   4
HETATM    4  C   UNL     1       6.377  25.512  54.027  1.00  0.00     0.258 C 
BRANCH   4   5
HETATM    5  C   UNL     1       7.173  26.584  54.813  1.00  0.00     0.016 C 
HETATM    6  C   UNL     1       6.400  27.066  56.046  1.00  0.00     0.012 C 
HETATM    7  C   UNL     1       7.601  27.791  53.968  1.00  0.00     0.012 C 
ENDBRANCH   4   5
BRANCH   4   8
HETATM    8  C   UNL     1       6.930  24.135  54.241  1.00  0.00     0.136 A 
HETATM    9  N   UNL     1       7.127  23.602  55.434  1.00  0.00    -0.231 NA
HETATM   10  C   UNL     1       7.652  22.354  55.194  1.00  0.00     0.085 A 
HETATM   11  C   UNL     1       7.799  22.137  53.827  1.00  0.00     0.062 A 
HETATM   12  C   UNL     1       8.034  21.352  56.095  1.00  0.00     0.034 A 
HETATM   13  N   UNL     1       7.327  23.284  53.239  1.00  0.00    -0.341 N 
HETATM   14  C   UNL     1       8.323  20.959  53.293  1.00  0.00     0.032 A 
HETATM   15  H   UNL     1       7.285  23.447  52.241  1.00  0.00     0.167 HD
HETATM   16  C   UNL     1       8.703  19.970  54.208  1.00  0.00     0.002 A 
HETATM   17  C   UNL     1       8.561  20.160  55.584  1.00  0.00     0.002 A 
ENDBRANCH   4   8
ENDBRANCH   1   4
BRANCH   1  18
HETATM   18  C   UNL     1       5.088  25.838  51.883  1.00  0.00     0.272 C 
BRANCH  18  19
HETATM   19  C   UNL     1       5.146  26.681  50.643  1.00  0.00    -0.027 A 
HETATM   20  C   UNL     1       5.674  27.976  50.683  1.00  0.00     0.048 A 
HETATM   21  C   UNL     1       5.670  28.782  49.536  1.00  0.00     0.104 A 
HETATM   22  C   UNL     1       5.116  28.300  48.330  1.00  0.00     0.135 A 
HETATM   23  C   UNL     1       4.564  27.011  48.290  1.00  0.00     0.104 A 
HETATM   24  C   UNL     1       4.592  26.215  49.446  1.00  0.00     0.048 A 
BRANCH  21  25
HETATM   25  O   UNL     1       6.102  30.084  49.568  1.00  0.00    -0.353 OA
HETATM   26  C   UNL     1       5.395  30.953  50.449  1.00  0.00     0.210 C 
ENDBRANCH  21  25
BRANCH  22  27
HETATM   27  O   UNL     1       5.023  29.102  47.222  1.00  0.00    -0.351 OA
HETATM   28  C   UNL     1       3.774  29.784  47.105  1.00  0.00     0.210 C 
ENDBRANCH  22  27
BRANCH  23  29
HETATM   29  O   UNL     1       3.954  26.363  47.249  1.00  0.00    -0.353 OA
HETATM   30  C   UNL     1       3.046  25.307  47.531  1.00  0.00     0.210 C 
ENDBRANCH  23  29
ENDBRANCH  18  19
ENDBRANCH   1  18
TORSDOF 8
ENDMDL
MODEL 8
REMARK VINA RESULT:      -8.1      4.652      7.735
REMARK  8 active torsions:
REMARK  status: ('A' for Active; 'I' for Inactive)
REMARK    1  A    between atoms: C_2  and  C_3 
REMARK    2  A    between atoms: C_3  and  N_4 
REMARK    3  A    between atoms: C_3  and  C_20 
REMARK    4  A    between atoms: N_4  and  C_7 
REMARK    5  A    between atoms: C_7  and  C_8 
REMARK    6  A    between atoms: C_10  and  O_11 
REMARK    7  A    between atoms: C_13  and  O_14 
REMARK    8  A    between atoms: C_16  and  O_17 
ROOT
HETATM    1  N   UNL     1       7.851  26.839  56.806  1.00  0.00    -0.060 N 
HETATM    2  H   UNL     1       8.407  26.840  55.946  1.00  0.00     0.278 HD
HETATM    3  H   UNL     1       8.494  27.115  57.568  1.00  0.00     0.278 HD
ENDROOT
BRANCH   1   4
HETATM    4  C   UNL     1       6.765  27.877  56.816  1.00  0.00     0.258 C 
BRANCH   4   5
HETATM    5  C   UNL     1       6.494  28.397  55.383  1.00  0.00     0.016 C 
HETATM    6  C   UNL     1       5.312  27.667  54.735  1.00  0.00     0.012 C 
HETATM    7  C   UNL     1       7.712  28.334  54.453  1.00  0.00     0.012 C 
ENDBRANCH   4   5
BRANCH   4   8
HETATM    8  C   UNL     1       7.190  28.978  57.741  1.00  0.00     0.136 A 
HETATM    9  N   UNL     1       8.349  28.996  58.375  1.00  0.00    -0.231 NA
HETATM   10  C   UNL     1       8.339  30.151  59.121  1.00  0.00     0.085 A 
HETATM   11  C   UNL     1       7.138  30.834  58.954  1.00  0.00     0.062 A 
HETATM   12  C   UNL     1       9.319  30.679  59.971  1.00  0.00     0.034 A 
HETATM   13  N   UNL     1       6.423  30.070  58.066  1.00  0.00    -0.341 N 
HETATM   14  C   UNL     1       6.846  32.034  59.604  1.00  0.00     0.032 A 
HETATM   15  H   UNL     1       5.498  30.297  57.722  1.00  0.00     0.167 HD
HETATM   16  C   UNL     1       7.835  32.545  60.453  1.00  0.00     0.002 A 
HETATM   17  C   UNL     1       9.051  31.883  60.633  1.00  0.00     0.002 A 
ENDBRANCH   4   8
ENDBRANCH   1   4
BRANCH   1  18
HETATM   18  C   UNL     1       7.405  25.455  57.117  1.00  0.00     0.272 C 
BRANCH  18  19
HETATM   19  C   UNL     1       7.862  24.501  56.053  1.00  0.00    -0.027 A 
HETATM   20  C   UNL     1       7.674  24.797  54.698  1.00  0.00     0.048 A 
HETATM   21  C   UNL     1       8.047  23.876  53.710  1.00  0.00     0.104 A 
HETATM   22  C   UNL     1       8.600  22.629  54.073  1.00  0.00     0.135 A 
HETATM   23  C   UNL     1       8.768  22.316  55.430  1.00  0.00     0.104 A 
HETATM   24  C   UNL     1       8.403  23.259  56.402  1.00  0.00     0.048 A 
BRANCH  21  25
HETATM   25  O   UNL     1       7.796  24.104  52.380  1.00  0.00    -0.353 OA
HETATM   26  C   UNL     1       7.141  25.331  52.071  1.00  0.00     0.210 C 
ENDBRANCH  21  25
BRANCH  22  27
HETATM   27  O   UNL     1       8.889  21.679  53.126  1.00  0.00    -0.351 OA
HETATM   28  C   UNL     1       7.884  20.674  52.990  1.00  0.00     0.210 C 
ENDBRANCH  22  27
BRANCH  23  29
HETATM   29  O   UNL     1       9.250  21.167  55.999  1.00  0.00    -0.353 OA
HETATM   30  C   UNL     1       8.347  20.302  56.674  1.00  0.00     0.210 C 
ENDBRANCH  23  29
ENDBRANCH  18  19
ENDBRANCH   1  18
TORSDOF 8
ENDMDL
MODEL 9
REMARK VINA RESULT:      -8.1      5.082      8.333
REMARK  8 active torsions:
REMARK  status: ('A' for Active; 'I' for Inactive)
REMARK    1  A    between atoms: C_2  and  C_3 
REMARK    2  A    between atoms: C_3  and  N_4 
REMARK    3  A    between atoms: C_3  and  C_20 
REMARK    4  A    between atoms: N_4  and  C_7 
REMARK    5  A    between atoms: C_7  and  C_8 
REMARK    6  A    between atoms: C_10  and  O_11 
REMARK    7  A    between atoms: C_13  and  O_14 
REMARK    8  A    between atoms: C_16  and  O_17 
ROOT
HETATM    1  N   UNL     1       7.056  26.374  56.524  1.00  0.00    -0.060 N 
HETATM    2  H   UNL     1       6.115  26.777  56.529  1.00  0.00     0.278 HD
HETATM    3  H   UNL     1       6.966  25.420  56.913  1.00  0.00     0.278 HD
ENDROOT
BRANCH   1   4
HETATM    4  C   UNL     1       7.617  26.182  55.144  1.00  0.00     0.258 C 
BRANCH   4   5
HETATM    5  C   UNL     1       6.711  26.860  54.087  1.00  0.00     0.016 C 
HETATM    6  C   UNL     1       7.143  28.307  53.823  1.00  0.00     0.012 C 
HETATM    7  C   UNL     1       5.215  26.822  54.427  1.00  0.00     0.012 C 
ENDBRANCH   4   5
BRANCH   4   8
HETATM    8  C   UNL     1       7.752  24.708  54.904  1.00  0.00     0.136 A 
HETATM    9  N   UNL     1       7.889  24.171  53.704  1.00  0.00    -0.231 NA
HETATM   10  C   UNL     1       7.963  22.815  53.918  1.00  0.00     0.085 A 
HETATM   11  C   UNL     1       7.843  22.523  55.273  1.00  0.00     0.062 A 
HETATM   12  C   UNL     1       8.125  21.769  53.000  1.00  0.00     0.034 A 
HETATM   13  N   UNL     1       7.715  23.746  55.883  1.00  0.00    -0.341 N 
HETATM   14  C   UNL     1       7.868  21.223  55.779  1.00  0.00     0.032 A 
HETATM   15  H   UNL     1       7.618  23.887  56.881  1.00  0.00     0.167 HD
HETATM   16  C   UNL     1       8.028  20.190  54.848  1.00  0.00     0.002 A 
HETATM   17  C   UNL     1       8.156  20.455  53.483  1.00  0.00     0.002 A 
ENDBRANCH   4   8
ENDBRANCH   1   4
BRANCH   1  18
HETATM   18  C   UNL     1       7.931  27.125  57.463  1.00  0.00     0.272 C 
BRANCH  18  19
HETATM   19  C   UNL     1       7.395  28.508  57.694  1.00  0.00    -0.027 A 
HETATM   20  C   UNL     1       6.064  28.818  57.393  1.00  0.00     0.048 A 
HETATM   21  C   UNL     1       5.584  30.125  57.553  1.00  0.00     0.104 A 
HETATM   22  C   UNL     1       6.446  31.149  58.002  1.00  0.00     0.135 A 
HETATM   23  C   UNL     1       7.788  30.849  58.283  1.00  0.00     0.104 A 
HETATM   24  C   UNL     1       8.243  29.530  58.131  1.00  0.00     0.048 A 
BRANCH  21  25
HETATM   25  O   UNL     1       4.310  30.476  57.184  1.00  0.00    -0.353 OA
HETATM   26  C   UNL     1       3.975  30.259  55.816  1.00  0.00     0.210 C 
ENDBRANCH  21  25
BRANCH  22  27
HETATM   27  O   UNL     1       6.021  32.451  58.081  1.00  0.00    -0.351 OA
HETATM   28  C   UNL     1       5.581  32.837  59.383  1.00  0.00     0.210 C 
ENDBRANCH  22  27
BRANCH  23  29
HETATM   29  O   UNL     1       8.792  31.684  58.696  1.00  0.00    -0.353 OA
HETATM   30  C   UNL     1       9.204  31.646  60.056  1.00  0.00     0.210 C 
ENDBRANCH  23  29
ENDBRANCH  18  19
ENDBRANCH   1  18
TORSDOF 8
ENDMDL
MODEL 10
REMARK VINA RESULT:      -7.5      4.765      8.131
REMARK  8 active torsions:
REMARK  status: ('A' for Active; 'I' for Inactive)
REMARK    1  A    between atoms: C_2  and  C_3 
REMARK    2  A    between atoms: C_3  and  N_4 
REMARK    3  A    between atoms: C_3  and  C_20 
REMARK    4  A    between atoms: N_4  and  C_7 
REMARK    5  A    between atoms: C_7  and  C_8 
REMARK    6  A    between atoms: C_10  and  O_11 
REMARK    7  A    between atoms: C_13  and  O_14 
REMARK    8  A    between atoms: C_16  and  O_17 
ROOT
HETATM    1  N   UNL     1       7.551  26.393  55.071  1.00  0.00    -0.060 N 
HETATM    2  H   UNL     1       7.943  26.876  55.884  1.00  0.00     0.278 HD
HETATM    3  H   UNL     1       8.334  25.877  54.633  1.00  0.00     0.278 HD
ENDROOT
BRANCH   1   4
HETATM    4  C   UNL     1       6.542  25.339  55.431  1.00  0.00     0.258 C 
BRANCH   4   5
HETATM    5  C   UNL     1       6.225  25.383  56.946  1.00  0.00     0.016 C 
HETATM    6  C   UNL     1       4.875  26.056  57.218  1.00  0.00     0.012 C 
HETATM    7  C   UNL     1       7.314  26.051  57.795  1.00  0.00     0.012 C 
ENDBRANCH   4   5
BRANCH   4   8
HETATM    8  C   UNL     1       7.096  24.010  55.012  1.00  0.00     0.136 A 
HETATM    9  N   UNL     1       7.179  23.615  53.754  1.00  0.00    -0.231 NA
HETATM   10  C   UNL     1       7.720  22.351  53.804  1.00  0.00     0.085 A 
HETATM   11  C   UNL     1       7.946  21.965  55.121  1.00  0.00     0.062 A 
HETATM   12  C   UNL     1       8.040  21.471  52.763  1.00  0.00     0.034 A 
HETATM   13  N   UNL     1       7.546  23.041  55.874  1.00  0.00    -0.341 N 
HETATM   14  C   UNL     1       8.477  20.723  55.473  1.00  0.00     0.032 A 
HETATM   15  H   UNL     1       7.591  23.088  56.885  1.00  0.00     0.167 HD
HETATM   16  C   UNL     1       8.788  19.853  54.420  1.00  0.00     0.002 A 
HETATM   17  C   UNL     1       8.576  20.219  53.089  1.00  0.00     0.002 A 
ENDBRANCH   4   8
ENDBRANCH   1   4
BRANCH   1  18
HETATM   18  C   UNL     1       7.094  27.387  54.064  1.00  0.00     0.272 C 
BRANCH  18  19
HETATM   19  C   UNL     1       6.295  28.475  54.720  1.00  0.00    -0.027 A 
HETATM   20  C   UNL     1       5.115  28.948  54.135  1.00  0.00     0.048 A 
HETATM   21  C   UNL     1       4.405  30.005  54.720  1.00  0.00     0.104 A 
HETATM   22  C   UNL     1       4.882  30.616  55.899  1.00  0.00     0.135 A 
HETATM   23  C   UNL     1       6.077  30.162  56.478  1.00  0.00     0.104 A 
HETATM   24  C   UNL     1       6.764  29.092  55.884  1.00  0.00     0.048 A 
BRANCH  21  25
HETATM   25  O   UNL     1       3.294  30.545  54.122  1.00  0.00    -0.353 OA
HETATM   26  C   UNL     1       3.334  30.636  52.701  1.00  0.00     0.210 C 
ENDBRANCH  21  25
BRANCH  22  27
HETATM   27  O   UNL     1       4.251  31.708  56.438  1.00  0.00    -0.351 OA
HETATM   28  C   UNL     1       4.787  32.958  56.005  1.00  0.00     0.210 C 
ENDBRANCH  22  27
BRANCH  23  29
HETATM   29  O   UNL     1       6.730  30.626  57.589  1.00  0.00    -0.353 OA
HETATM   30  C   UNL     1       7.892  29.943  58.039  1.00  0.00     0.210 C 
ENDBRANCH  23  29
ENDBRANCH  18  19
ENDBRANCH   1  18
TORSDOF 8
ENDMDL
