MODEL 1
REMARK VINA RESULT:      -9.7      0.000      0.000
REMARK  10 active torsions:
REMARK  status: ('A' for Active; 'I' for Inactive)
REMARK    1  A    between atoms: C_4  and  C_5 
REMARK    2  A    between atoms: C_5  and  C_6 
REMARK    3  A    between atoms: C_6  and  N_7 
REMARK    4  A    between atoms: C_6  and  C_15 
REMARK       I    between atoms: N_7  and  C_8 
REMARK    5  A    between atoms: C_8  and  C_9 
REMARK       I    between atoms: C_15  and  N_16 
REMARK    6  A    between atoms: N_16  and  C_17 
REMARK    7  A    between atoms: C_17  and  C_18 
REMARK    8  A    between atoms: C_18  and  C_19 
REMARK    9  A    between atoms: C_21  and  O_22 
REMARK   10  A    between atoms: C_23  and  O_24 
ROOT
HETATM    1  C   UNL     1       6.844  25.507  52.871  1.00  0.00     0.181 C 
ENDROOT
BRANCH   1   2
HETATM    2  C   UNL     1       8.100  24.622  52.785  1.00  0.00     0.073 C 
BRANCH   2   3
HETATM    3  C   UNL     1       7.976  23.316  53.539  1.00  0.00    -0.056 A 
HETATM    4  C   UNL     1       8.033  22.092  52.859  1.00  0.00     0.007 A 
HETATM    5  C   UNL     1       7.927  20.888  53.558  1.00  0.00     0.001 A 
HETATM    6  C   UNL     1       7.764  20.895  54.942  1.00  0.00     0.000 A 
HETATM    7  C   UNL     1       7.711  22.106  55.628  1.00  0.00     0.001 A 
HETATM    8  C   UNL     1       7.821  23.311  54.932  1.00  0.00     0.007 A 
ENDBRANCH   2   3
ENDBRANCH   1   2
BRANCH   1   9
HETATM    9  N   UNL     1       6.418  25.966  51.545  1.00  0.00    -0.342 N 
HETATM   10  C   UNL     1       5.258  26.670  51.323  1.00  0.00     0.276 C 
HETATM   11  O   UNL     1       4.552  27.059  52.252  1.00  0.00    -0.265 OA
HETATM   12  H   UNL     1       6.961  25.703  50.730  1.00  0.00     0.163 HD
BRANCH  10  13
HETATM   13  C   UNL     1       4.976  26.936  49.929  1.00  0.00     0.142 A 
HETATM   14  O   UNL     1       5.456  28.084  49.351  1.00  0.00    -0.317 OA
HETATM   15  C   UNL     1       5.046  28.080  48.055  1.00  0.00     0.143 A 
HETATM   16  C   UNL     1       4.306  26.953  47.786  1.00  0.00     0.027 A 
HETATM   17  C   UNL     1       4.260  26.215  48.994  1.00  0.00     0.045 A 
ENDBRANCH  10  13
ENDBRANCH   1   9
BRANCH   1  18
HETATM   18  C   UNL     1       7.110  26.715  53.802  1.00  0.00     0.240 C 
HETATM   19  N   UNL     1       6.309  26.741  54.926  1.00  0.00    -0.359 N 
HETATM   20  H   UNL     1       5.633  25.986  55.045  1.00  0.00     0.162 HD
HETATM   21  O   UNL     1       7.993  27.545  53.595  1.00  0.00    -0.271 OA
BRANCH  19  22
HETATM   22  C   UNL     1       6.430  27.741  55.967  1.00  0.00     0.127 C 
BRANCH  22  23
HETATM   23  C   UNL     1       7.561  27.424  56.954  1.00  0.00     0.058 C 
BRANCH  23  24
HETATM   24  C   UNL     1       8.417  28.600  57.373  1.00  0.00    -0.054 A 
HETATM   25  C   UNL     1       9.763  28.702  56.984  1.00  0.00     0.046 A 
HETATM   26  C   UNL     1      10.506  29.818  57.357  1.00  0.00     0.099 A 
HETATM   27  C   UNL     1       9.922  30.840  58.100  1.00  0.00     0.098 A 
HETATM   28  C   UNL     1       8.595  30.763  58.488  1.00  0.00     0.040 A 
HETATM   29  C   UNL     1       7.842  29.645  58.122  1.00  0.00     0.010 A 
BRANCH  26  30
HETATM   30  O   UNL     1      11.823  29.954  57.013  1.00  0.00    -0.358 OA
HETATM   31  H   UNL     1      12.026  29.269  56.351  1.00  0.00     0.218 HD
ENDBRANCH  26  30
BRANCH  27  32
HETATM   32  O   UNL     1      10.660  31.934  58.452  1.00  0.00    -0.358 OA
HETATM   33  H   UNL     1      10.169  32.324  59.202  1.00  0.00     0.218 HD
ENDBRANCH  27  32
ENDBRANCH  23  24
ENDBRANCH  22  23
ENDBRANCH  19  22
ENDBRANCH   1  18
TORSDOF 10
ENDMDL
MODEL 2
REMARK VINA RESULT:      -9.6      1.349      1.705
REMARK  10 active torsions:
REMARK  status: ('A' for Active; 'I' for Inactive)
REMARK    1  A    between atoms: C_4  and  C_5 
REMARK    2  A    between atoms: C_5  and  C_6 
REMARK    3  A    between atoms: C_6  and  N_7 
REMARK    4  A    between atoms: C_6  and  C_15 
REMARK       I    between atoms: N_7  and  C_8 
REMARK    5  A    between atoms: C_8  and  C_9 
REMARK       I    between atoms: C_15  and  N_16 
REMARK    6  A    between atoms: N_16  and  C_17 
REMARK    7  A    between atoms: C_17  and  C_18 
REMARK    8  A    between atoms: C_18  and  C_19 
REMARK    9  A    between atoms: C_21  and  O_22 
REMARK   10  A    between atoms: C_23  and  O_24 
ROOT
HETATM    1  C   UNL     1       6.496  24.845  53.913  1.00  0.00     0.181 C 
ENDROOT
BRANCH   1   2
HETATM    2  C   UNL     1       7.970  24.404  53.866  1.00  0.00     0.073 C 
BRANCH   2   3
HETATM    3  C   UNL     1       8.165  22.916  54.057  1.00  0.00    -0.056 A 
HETATM    4  C   UNL     1       8.610  22.407  55.285  1.00  0.00     0.007 A 
HETATM    5  C   UNL     1       8.783  21.032  55.461  1.00  0.00     0.001 A 
HETATM    6  C   UNL     1       8.511  20.154  54.414  1.00  0.00     0.000 A 
HETATM    7  C   UNL     1       8.063  20.649  53.191  1.00  0.00     0.001 A 
HETATM    8  C   UNL     1       7.887  22.022  53.013  1.00  0.00     0.007 A 
ENDBRANCH   2   3
ENDBRANCH   1   2
BRANCH   1   9
HETATM    9  N   UNL     1       6.172  25.759  52.813  1.00  0.00    -0.342 N 
HETATM   10  C   UNL     1       5.212  25.494  51.865  1.00  0.00     0.276 C 
HETATM   11  O   UNL     1       4.478  24.512  51.948  1.00  0.00    -0.265 OA
HETATM   12  H   UNL     1       6.721  26.603  52.691  1.00  0.00     0.163 HD
BRANCH  10  13
HETATM   13  C   UNL     1       5.124  26.480  50.811  1.00  0.00     0.142 A 
HETATM   14  O   UNL     1       4.636  26.114  49.582  1.00  0.00    -0.317 OA
HETATM   15  C   UNL     1       4.667  27.221  48.794  1.00  0.00     0.143 A 
HETATM   16  C   UNL     1       5.170  28.295  49.488  1.00  0.00     0.027 A 
HETATM   17  C   UNL     1       5.466  27.819  50.788  1.00  0.00     0.045 A 
ENDBRANCH  10  13
ENDBRANCH   1   9
BRANCH   1  18
HETATM   18  C   UNL     1       6.185  25.509  55.277  1.00  0.00     0.240 C 
HETATM   19  N   UNL     1       6.436  26.866  55.307  1.00  0.00    -0.359 N 
HETATM   20  H   UNL     1       6.791  27.302  54.455  1.00  0.00     0.162 HD
HETATM   21  O   UNL     1       5.701  24.901  56.230  1.00  0.00    -0.271 OA
BRANCH  19  22
HETATM   22  C   UNL     1       6.155  27.703  56.455  1.00  0.00     0.127 C 
BRANCH  22  23
HETATM   23  C   UNL     1       7.191  27.529  57.573  1.00  0.00     0.058 C 
BRANCH  23  24
HETATM   24  C   UNL     1       8.157  28.680  57.760  1.00  0.00    -0.054 A 
HETATM   25  C   UNL     1       9.424  28.680  57.151  1.00  0.00     0.046 A 
HETATM   26  C   UNL     1      10.268  29.774  57.316  1.00  0.00     0.099 A 
HETATM   27  C   UNL     1       9.862  30.873  58.065  1.00  0.00     0.098 A 
HETATM   28  C   UNL     1       8.615  30.897  58.668  1.00  0.00     0.040 A 
HETATM   29  C   UNL     1       7.763  29.802  58.513  1.00  0.00     0.010 A 
BRANCH  26  30
HETATM   30  O   UNL     1      11.514  29.812  56.753  1.00  0.00    -0.358 OA
HETATM   31  H   UNL     1      11.523  29.181  56.012  1.00  0.00     0.218 HD
ENDBRANCH  26  30
BRANCH  27  32
HETATM   32  O   UNL     1      10.697  31.945  58.212  1.00  0.00    -0.358 OA
HETATM   33  H   UNL     1      10.882  32.231  57.296  1.00  0.00     0.218 HD
ENDBRANCH  27  32
ENDBRANCH  23  24
ENDBRANCH  22  23
ENDBRANCH  19  22
ENDBRANCH   1  18
TORSDOF 10
ENDMDL
MODEL 3
REMARK VINA RESULT:      -9.5      1.400      1.860
REMARK  10 active torsions:
REMARK  status: ('A' for Active; 'I' for Inactive)
REMARK    1  A    between atoms: C_4  and  C_5 
REMARK    2  A    between atoms: C_5  and  C_6 
REMARK    3  A    between atoms: C_6  and  N_7 
REMARK    4  A    between atoms: C_6  and  C_15 
REMARK       I    between atoms: N_7  and  C_8 
REMARK    5  A    between atoms: C_8  and  C_9 
REMARK       I    between atoms: C_15  and  N_16 
REMARK    6  A    between atoms: N_16  and  C_17 
REMARK    7  A    between atoms: C_17  and  C_18 
REMARK    8  A    between atoms: C_18  and  C_19 
REMARK    9  A    between atoms: C_21  and  O_22 
REMARK   10  A    between atoms: C_23  and  O_24 
ROOT
HETATM    1  C   UNL     1       6.465  24.859  53.869  1.00  0.00     0.181 C 
ENDROOT
BRANCH   1   2
HETATM    2  C   UNL     1       7.942  24.429  53.817  1.00  0.00     0.073 C 
BRANCH   2   3
HETATM    3  C   UNL     1       8.149  22.943  54.011  1.00  0.00    -0.056 A 
HETATM    4  C   UNL     1       7.841  22.041  52.984  1.00  0.00     0.007 A 
HETATM    5  C   UNL     1       8.040  20.670  53.162  1.00  0.00     0.001 A 
HETATM    6  C   UNL     1       8.550  20.188  54.366  1.00  0.00     0.000 A 
HETATM    7  C   UNL     1       8.865  21.077  55.392  1.00  0.00     0.001 A 
HETATM    8  C   UNL     1       8.669  22.448  55.215  1.00  0.00     0.007 A 
ENDBRANCH   2   3
ENDBRANCH   1   2
BRANCH   1   9
HETATM    9  N   UNL     1       6.135  25.782  52.779  1.00  0.00    -0.342 N 
HETATM   10  C   UNL     1       5.221  25.496  51.792  1.00  0.00     0.276 C 
HETATM   11  O   UNL     1       4.531  24.479  51.829  1.00  0.00    -0.265 OA
HETATM   12  H   UNL     1       6.647  26.654  52.693  1.00  0.00     0.163 HD
BRANCH  10  13
HETATM   13  C   UNL     1       5.121  26.501  50.757  1.00  0.00     0.142 A 
HETATM   14  O   UNL     1       5.588  27.768  50.999  1.00  0.00    -0.317 OA
HETATM   15  C   UNL     1       5.368  28.496  49.872  1.00  0.00     0.143 A 
HETATM   16  C   UNL     1       4.764  27.724  48.908  1.00  0.00     0.027 A 
HETATM   17  C   UNL     1       4.605  26.438  49.477  1.00  0.00     0.045 A 
ENDBRANCH  10  13
ENDBRANCH   1   9
BRANCH   1  18
HETATM   18  C   UNL     1       6.149  25.507  55.239  1.00  0.00     0.240 C 
HETATM   19  N   UNL     1       6.449  26.853  55.303  1.00  0.00    -0.359 N 
HETATM   20  H   UNL     1       6.840  27.293  54.469  1.00  0.00     0.162 HD
HETATM   21  O   UNL     1       5.623  24.899  56.169  1.00  0.00    -0.271 OA
BRANCH  19  22
HETATM   22  C   UNL     1       6.175  27.676  56.462  1.00  0.00     0.127 C 
BRANCH  22  23
HETATM   23  C   UNL     1       7.269  27.565  57.531  1.00  0.00     0.058 C 
BRANCH  23  24
HETATM   24  C   UNL     1       8.149  28.785  57.703  1.00  0.00    -0.054 A 
HETATM   25  C   UNL     1       7.712  29.908  58.425  1.00  0.00     0.046 A 
HETATM   26  C   UNL     1       8.564  30.995  58.594  1.00  0.00     0.099 A 
HETATM   27  C   UNL     1       9.852  30.972  58.065  1.00  0.00     0.098 A 
HETATM   28  C   UNL     1      10.305  29.872  57.356  1.00  0.00     0.040 A 
HETATM   29  C   UNL     1       9.455  28.778  57.178  1.00  0.00     0.010 A 
BRANCH  26  30
HETATM   30  O   UNL     1       8.177  32.114  59.277  1.00  0.00    -0.358 OA
HETATM   31  H   UNL     1       8.401  31.979  60.215  1.00  0.00     0.218 HD
ENDBRANCH  26  30
BRANCH  27  32
HETATM   32  O   UNL     1      10.682  32.041  58.246  1.00  0.00    -0.358 OA
HETATM   33  H   UNL     1      10.807  32.402  57.346  1.00  0.00     0.218 HD
ENDBRANCH  27  32
ENDBRANCH  23  24
ENDBRANCH  22  23
ENDBRANCH  19  22
ENDBRANCH   1  18
TORSDOF 10
ENDMDL
MODEL 4
REMARK VINA RESULT:      -8.9      3.294      8.076
REMARK  10 active torsions:
REMARK  status: ('A' for Active; 'I' for Inactive)
REMARK    1  A    between atoms: C_4  and  C_5 
REMARK    2  A    between atoms: C_5  and  C_6 
REMARK    3  A    between atoms: C_6  and  N_7 
REMARK    4  A    between atoms: C_6  and  C_15 
REMARK       I    between atoms: N_7  and  C_8 
REMARK    5  A    between atoms: C_8  and  C_9 
REMARK       I    between atoms: C_15  and  N_16 
REMARK    6  A    between atoms: N_16  and  C_17 
REMARK    7  A    between atoms: C_17  and  C_18 
REMARK    8  A    between atoms: C_18  and  C_19 
REMARK    9  A    between atoms: C_21  and  O_22 
REMARK   10  A    between atoms: C_23  and  O_24 
ROOT
HETATM    1  C   UNL     1       6.932  27.550  56.511  1.00  0.00     0.181 C 
ENDROOT
BRANCH   1   2
HETATM    2  C   UNL     1       7.466  27.760  55.082  1.00  0.00     0.073 C 
BRANCH   2   3
HETATM    3  C   UNL     1       6.846  26.832  54.060  1.00  0.00    -0.056 A 
HETATM    4  C   UNL     1       5.489  26.490  54.139  1.00  0.00     0.007 A 
HETATM    5  C   UNL     1       4.917  25.640  53.190  1.00  0.00     0.001 A 
HETATM    6  C   UNL     1       5.693  25.125  52.154  1.00  0.00     0.000 A 
HETATM    7  C   UNL     1       7.042  25.462  52.064  1.00  0.00     0.001 A 
HETATM    8  C   UNL     1       7.616  26.314  53.009  1.00  0.00     0.007 A 
ENDBRANCH   2   3
ENDBRANCH   1   2
BRANCH   1   9
HETATM    9  N   UNL     1       7.529  28.503  57.452  1.00  0.00    -0.342 N 
HETATM   10  C   UNL     1       6.908  29.663  57.852  1.00  0.00     0.276 C 
HETATM   11  O   UNL     1       5.750  29.920  57.526  1.00  0.00    -0.265 OA
HETATM   12  H   UNL     1       8.475  28.349  57.784  1.00  0.00     0.163 HD
BRANCH  10  13
HETATM   13  C   UNL     1       7.713  30.510  58.705  1.00  0.00     0.142 A 
HETATM   14  O   UNL     1       7.355  31.822  58.885  1.00  0.00    -0.317 OA
HETATM   15  C   UNL     1       8.275  32.376  59.718  1.00  0.00     0.143 A 
HETATM   16  C   UNL     1       9.223  31.447  60.078  1.00  0.00     0.027 A 
HETATM   17  C   UNL     1       8.862  30.244  59.424  1.00  0.00     0.045 A 
ENDBRANCH  10  13
ENDBRANCH   1   9
BRANCH   1  18
HETATM   18  C   UNL     1       7.204  26.096  56.970  1.00  0.00     0.240 C 
HETATM   19  N   UNL     1       8.516  25.697  56.815  1.00  0.00    -0.359 N 
HETATM   20  H   UNL     1       9.175  26.373  56.426  1.00  0.00     0.162 HD
HETATM   21  O   UNL     1       6.347  25.379  57.482  1.00  0.00    -0.271 OA
BRANCH  19  22
HETATM   22  C   UNL     1       9.011  24.404  57.239  1.00  0.00     0.127 C 
BRANCH  22  23
HETATM   23  C   UNL     1       7.959  23.298  57.092  1.00  0.00     0.058 C 
BRANCH  23  24
HETATM   24  C   UNL     1       8.068  22.447  55.845  1.00  0.00    -0.054 A 
HETATM   25  C   UNL     1       8.577  21.138  55.893  1.00  0.00     0.046 A 
HETATM   26  C   UNL     1       8.626  20.373  54.732  1.00  0.00     0.099 A 
HETATM   27  C   UNL     1       8.160  20.889  53.526  1.00  0.00     0.098 A 
HETATM   28  C   UNL     1       7.648  22.174  53.457  1.00  0.00     0.040 A 
HETATM   29  C   UNL     1       7.599  22.951  54.617  1.00  0.00     0.010 A 
BRANCH  26  30
HETATM   30  O   UNL     1       9.125  19.100  54.728  1.00  0.00    -0.358 OA
HETATM   31  H   UNL     1       9.983  19.119  55.188  1.00  0.00     0.218 HD
ENDBRANCH  26  30
BRANCH  27  32
HETATM   32  O   UNL     1       8.205  20.125  52.395  1.00  0.00    -0.358 OA
HETATM   33  H   UNL     1       8.968  19.531  52.536  1.00  0.00     0.218 HD
ENDBRANCH  27  32
ENDBRANCH  23  24
ENDBRANCH  22  23
ENDBRANCH  19  22
ENDBRANCH   1  18
TORSDOF 10
ENDMDL
MODEL 5
REMARK VINA RESULT:      -8.9      1.968      7.947
REMARK  10 active torsions:
REMARK  status: ('A' for Active; 'I' for Inactive)
REMARK    1  A    between atoms: C_4  and  C_5 
REMARK    2  A    between atoms: C_5  and  C_6 
REMARK    3  A    between atoms: C_6  and  N_7 
REMARK    4  A    between atoms: C_6  and  C_15 
REMARK       I    between atoms: N_7  and  C_8 
REMARK    5  A    between atoms: C_8  and  C_9 
REMARK       I    between atoms: C_15  and  N_16 
REMARK    6  A    between atoms: N_16  and  C_17 
REMARK    7  A    between atoms: C_17  and  C_18 
REMARK    8  A    between atoms: C_18  and  C_19 
REMARK    9  A    between atoms: C_21  and  O_22 
REMARK   10  A    between atoms: C_23  and  O_24 
ROOT
HETATM    1  C   UNL     1       6.287  27.009  54.700  1.00  0.00     0.181 C 
ENDROOT
BRANCH   1   2
HETATM    2  C   UNL     1       5.994  25.640  55.340  1.00  0.00     0.073 C 
BRANCH   2   3
HETATM    3  C   UNL     1       6.720  24.491  54.675  1.00  0.00    -0.056 A 
HETATM    4  C   UNL     1       7.009  24.528  53.304  1.00  0.00     0.007 A 
HETATM    5  C   UNL     1       7.686  23.470  52.694  1.00  0.00     0.001 A 
HETATM    6  C   UNL     1       8.080  22.365  53.447  1.00  0.00     0.000 A 
HETATM    7  C   UNL     1       7.802  22.321  54.811  1.00  0.00     0.001 A 
HETATM    8  C   UNL     1       7.129  23.379  55.424  1.00  0.00     0.007 A 
ENDBRANCH   2   3
ENDBRANCH   1   2
BRANCH   1   9
HETATM    9  N   UNL     1       7.118  27.843  55.573  1.00  0.00    -0.342 N 
HETATM   10  C   UNL     1       8.210  28.553  55.130  1.00  0.00     0.276 C 
HETATM   11  O   UNL     1       8.493  28.620  53.935  1.00  0.00    -0.265 OA
HETATM   12  H   UNL     1       6.933  27.858  56.570  1.00  0.00     0.163 HD
BRANCH  10  13
HETATM   13  C   UNL     1       8.949  29.229  56.174  1.00  0.00     0.142 A 
HETATM   14  O   UNL     1      10.132  29.853  55.868  1.00  0.00    -0.317 OA
HETATM   15  C   UNL     1      10.606  30.395  57.020  1.00  0.00     0.143 A 
HETATM   16  C   UNL     1       9.755  30.130  58.066  1.00  0.00     0.027 A 
HETATM   17  C   UNL     1       8.686  29.378  57.522  1.00  0.00     0.045 A 
ENDBRANCH  10  13
ENDBRANCH   1   9
BRANCH   1  18
HETATM   18  C   UNL     1       4.960  27.732  54.364  1.00  0.00     0.240 C 
HETATM   19  N   UNL     1       4.674  27.777  53.015  1.00  0.00    -0.359 N 
HETATM   20  H   UNL     1       5.340  27.343  52.373  1.00  0.00     0.162 HD
HETATM   21  O   UNL     1       4.197  28.173  55.220  1.00  0.00    -0.271 OA
BRANCH  19  22
HETATM   22  C   UNL     1       3.456  28.344  52.476  1.00  0.00     0.127 C 
BRANCH  22  23
HETATM   23  C   UNL     1       3.697  29.127  51.179  1.00  0.00     0.058 C 
BRANCH  23  24
HETATM   24  C   UNL     1       3.519  28.344  49.896  1.00  0.00    -0.054 A 
HETATM   25  C   UNL     1       4.611  27.748  49.244  1.00  0.00     0.046 A 
HETATM   26  C   UNL     1       4.401  27.004  48.086  1.00  0.00     0.099 A 
HETATM   27  C   UNL     1       3.117  26.834  47.578  1.00  0.00     0.098 A 
HETATM   28  C   UNL     1       2.026  27.408  48.209  1.00  0.00     0.040 A 
HETATM   29  C   UNL     1       2.226  28.160  49.369  1.00  0.00     0.010 A 
BRANCH  26  30
HETATM   30  O   UNL     1       5.435  26.416  47.411  1.00  0.00    -0.358 OA
HETATM   31  H   UNL     1       5.719  27.032  46.712  1.00  0.00     0.218 HD
ENDBRANCH  26  30
BRANCH  27  32
HETATM   32  O   UNL     1       2.923  26.094  46.447  1.00  0.00    -0.358 OA
HETATM   33  H   UNL     1       1.993  25.800  46.509  1.00  0.00     0.218 HD
ENDBRANCH  27  32
ENDBRANCH  23  24
ENDBRANCH  22  23
ENDBRANCH  19  22
ENDBRANCH   1  18
TORSDOF 10
ENDMDL
MODEL 6
REMARK VINA RESULT:      -8.8      2.696      7.271
REMARK  10 active torsions:
REMARK  status: ('A' for Active; 'I' for Inactive)
REMARK    1  A    between atoms: C_4  and  C_5 
REMARK    2  A    between atoms: C_5  and  C_6 
REMARK    3  A    between atoms: C_6  and  N_7 
REMARK    4  A    between atoms: C_6  and  C_15 
REMARK       I    between atoms: N_7  and  C_8 
REMARK    5  A    between atoms: C_8  and  C_9 
REMARK       I    between atoms: C_15  and  N_16 
REMARK    6  A    between atoms: N_16  and  C_17 
REMARK    7  A    between atoms: C_17  and  C_18 
REMARK    8  A    between atoms: C_18  and  C_19 
REMARK    9  A    between atoms: C_21  and  O_22 
REMARK   10  A    between atoms: C_23  and  O_24 
ROOT
HETATM    1  C   UNL     1       6.161  28.175  55.781  1.00  0.00     0.181 C 
ENDROOT
BRANCH   1   2
HETATM    2  C   UNL     1       5.421  29.217  56.639  1.00  0.00     0.073 C 
BRANCH   2   3
HETATM    3  C   UNL     1       6.309  29.915  57.646  1.00  0.00    -0.056 A 
HETATM    4  C   UNL     1       7.534  29.351  58.027  1.00  0.00     0.007 A 
HETATM    5  C   UNL     1       8.356  30.001  58.951  1.00  0.00     0.001 A 
HETATM    6  C   UNL     1       7.963  31.219  59.500  1.00  0.00     0.000 A 
HETATM    7  C   UNL     1       6.750  31.791  59.124  1.00  0.00     0.001 A 
HETATM    8  C   UNL     1       5.928  31.145  58.199  1.00  0.00     0.007 A 
ENDBRANCH   2   3
ENDBRANCH   1   2
BRANCH   1   9
HETATM    9  N   UNL     1       5.722  28.222  54.383  1.00  0.00    -0.342 N 
HETATM   10  C   UNL     1       6.516  27.844  53.325  1.00  0.00     0.276 C 
HETATM   11  O   UNL     1       7.619  27.330  53.500  1.00  0.00    -0.265 OA
HETATM   12  H   UNL     1       4.813  28.613  54.159  1.00  0.00     0.163 HD
BRANCH  10  13
HETATM   13  C   UNL     1       5.925  28.065  52.023  1.00  0.00     0.142 A 
HETATM   14  O   UNL     1       5.954  29.321  51.473  1.00  0.00    -0.317 OA
HETATM   15  C   UNL     1       5.335  29.243  50.266  1.00  0.00     0.143 A 
HETATM   16  C   UNL     1       4.903  27.960  50.027  1.00  0.00     0.027 A 
HETATM   17  C   UNL     1       5.283  27.200  51.159  1.00  0.00     0.045 A 
ENDBRANCH  10  13
ENDBRANCH   1   9
BRANCH   1  18
HETATM   18  C   UNL     1       5.947  26.758  56.367  1.00  0.00     0.240 C 
HETATM   19  N   UNL     1       7.037  25.923  56.222  1.00  0.00    -0.359 N 
HETATM   20  H   UNL     1       7.865  26.299  55.758  1.00  0.00     0.162 HD
HETATM   21  O   UNL     1       4.925  26.420  56.961  1.00  0.00    -0.271 OA
BRANCH  19  22
HETATM   22  C   UNL     1       7.086  24.577  56.753  1.00  0.00     0.127 C 
BRANCH  22  23
HETATM   23  C   UNL     1       8.427  23.886  56.473  1.00  0.00     0.058 C 
BRANCH  23  24
HETATM   24  C   UNL     1       8.408  22.826  55.393  1.00  0.00    -0.054 A 
HETATM   25  C   UNL     1       8.758  21.494  55.667  1.00  0.00     0.046 A 
HETATM   26  C   UNL     1       8.690  20.540  54.656  1.00  0.00     0.099 A 
HETATM   27  C   UNL     1       8.265  20.893  53.379  1.00  0.00     0.098 A 
HETATM   28  C   UNL     1       7.909  22.199  53.089  1.00  0.00     0.040 A 
HETATM   29  C   UNL     1       7.977  23.164  54.096  1.00  0.00     0.010 A 
BRANCH  26  30
HETATM   30  O   UNL     1       9.034  19.234  54.874  1.00  0.00    -0.358 OA
HETATM   31  H   UNL     1       9.905  19.227  55.308  1.00  0.00     0.218 HD
ENDBRANCH  26  30
BRANCH  27  32
HETATM   32  O   UNL     1       8.194  19.946  52.398  1.00  0.00    -0.358 OA
HETATM   33  H   UNL     1       7.236  19.802  52.271  1.00  0.00     0.218 HD
ENDBRANCH  27  32
ENDBRANCH  23  24
ENDBRANCH  22  23
ENDBRANCH  19  22
ENDBRANCH   1  18
TORSDOF 10
ENDMDL
MODEL 7
REMARK VINA RESULT:      -8.7      3.068      8.863
REMARK  10 active torsions:
REMARK  status: ('A' for Active; 'I' for Inactive)
REMARK    1  A    between atoms: C_4  and  C_5 
REMARK    2  A    between atoms: C_5  and  C_6 
REMARK    3  A    between atoms: C_6  and  N_7 
REMARK    4  A    between atoms: C_6  and  C_15 
REMARK       I    between atoms: N_7  and  C_8 
REMARK    5  A    between atoms: C_8  and  C_9 
REMARK       I    between atoms: C_15  and  N_16 
REMARK    6  A    between atoms: N_16  and  C_17 
REMARK    7  A    between atoms: C_17  and  C_18 
REMARK    8  A    between atoms: C_18  and  C_19 
REMARK    9  A    between atoms: C_21  and  O_22 
REMARK   10  A    between atoms: C_23  and  O_24 
ROOT
HETATM    1  C   UNL     1       6.189  25.447  53.939  1.00  0.00     0.181 C 
ENDROOT
BRANCH   1   2
HETATM    2  C   UNL     1       7.285  26.525  54.008  1.00  0.00     0.073 C 
BRANCH   2   3
HETATM    3  C   UNL     1       7.249  27.347  55.277  1.00  0.00    -0.056 A 
HETATM    4  C   UNL     1       7.813  26.854  56.462  1.00  0.00     0.007 A 
HETATM    5  C   UNL     1       7.786  27.619  57.631  1.00  0.00     0.001 A 
HETATM    6  C   UNL     1       7.197  28.882  57.627  1.00  0.00     0.000 A 
HETATM    7  C   UNL     1       6.638  29.383  56.453  1.00  0.00     0.001 A 
HETATM    8  C   UNL     1       6.667  28.623  55.283  1.00  0.00     0.007 A 
ENDBRANCH   2   3
ENDBRANCH   1   2
BRANCH   1   9
HETATM    9  N   UNL     1       6.758  24.115  53.716  1.00  0.00    -0.342 N 
HETATM   10  C   UNL     1       7.170  23.286  54.734  1.00  0.00     0.276 C 
HETATM   11  O   UNL     1       6.978  23.572  55.915  1.00  0.00    -0.265 OA
HETATM   12  H   UNL     1       6.927  23.798  52.768  1.00  0.00     0.163 HD
BRANCH  10  13
HETATM   13  C   UNL     1       7.796  22.059  54.292  1.00  0.00     0.142 A 
HETATM   14  O   UNL     1       8.214  21.141  55.222  1.00  0.00    -0.317 OA
HETATM   15  C   UNL     1       8.760  20.101  54.538  1.00  0.00     0.143 A 
HETATM   16  C   UNL     1       8.706  20.331  53.184  1.00  0.00     0.027 A 
HETATM   17  C   UNL     1       8.085  21.593  53.024  1.00  0.00     0.045 A 
ENDBRANCH  10  13
ENDBRANCH   1   9
BRANCH   1  18
HETATM   18  C   UNL     1       5.174  25.794  52.822  1.00  0.00     0.240 C 
HETATM   19  N   UNL     1       5.317  27.070  52.314  1.00  0.00    -0.359 N 
HETATM   20  H   UNL     1       6.056  27.656  52.704  1.00  0.00     0.162 HD
HETATM   21  O   UNL     1       4.355  24.991  52.381  1.00  0.00    -0.271 OA
BRANCH  19  22
HETATM   22  C   UNL     1       4.523  27.585  51.219  1.00  0.00     0.127 C 
BRANCH  22  23
HETATM   23  C   UNL     1       4.887  26.938  49.876  1.00  0.00     0.058 C 
BRANCH  23  24
HETATM   24  C   UNL     1       3.793  26.933  48.830  1.00  0.00    -0.054 A 
HETATM   25  C   UNL     1       3.732  25.940  47.838  1.00  0.00     0.046 A 
HETATM   26  C   UNL     1       2.689  25.947  46.917  1.00  0.00     0.099 A 
HETATM   27  C   UNL     1       1.698  26.922  46.980  1.00  0.00     0.098 A 
HETATM   28  C   UNL     1       1.735  27.906  47.954  1.00  0.00     0.040 A 
HETATM   29  C   UNL     1       2.780  27.910  48.880  1.00  0.00     0.010 A 
BRANCH  26  30
HETATM   30  O   UNL     1       2.596  25.008  45.927  1.00  0.00    -0.358 OA
HETATM   31  H   UNL     1       3.451  24.546  45.878  1.00  0.00     0.218 HD
ENDBRANCH  26  30
BRANCH  27  32
HETATM   32  O   UNL     1       0.674  26.913  46.076  1.00  0.00    -0.358 OA
HETATM   33  H   UNL     1      -0.040  26.420  46.526  1.00  0.00     0.218 HD
ENDBRANCH  27  32
ENDBRANCH  23  24
ENDBRANCH  22  23
ENDBRANCH  19  22
ENDBRANCH   1  18
TORSDOF 10
ENDMDL
MODEL 8
REMARK VINA RESULT:      -8.6      2.443      8.058
REMARK  10 active torsions:
REMARK  status: ('A' for Active; 'I' for Inactive)
REMARK    1  A    between atoms: C_4  and  C_5 
REMARK    2  A    between atoms: C_5  and  C_6 
REMARK    3  A    between atoms: C_6  and  N_7 
REMARK    4  A    between atoms: C_6  and  C_15 
REMARK       I    between atoms: N_7  and  C_8 
REMARK    5  A    between atoms: C_8  and  C_9 
REMARK       I    between atoms: C_15  and  N_16 
REMARK    6  A    between atoms: N_16  and  C_17 
REMARK    7  A    between atoms: C_17  and  C_18 
REMARK    8  A    between atoms: C_18  and  C_19 
REMARK    9  A    between atoms: C_21  and  O_22 
REMARK   10  A    between atoms: C_23  and  O_24 
ROOT
HETATM    1  C   UNL     1       6.764  27.278  54.253  1.00  0.00     0.181 C 
ENDROOT
BRANCH   1   2
HETATM    2  C   UNL     1       7.961  28.239  54.136  1.00  0.00     0.073 C 
BRANCH   2   3
HETATM    3  C   UNL     1       8.425  28.795  55.464  1.00  0.00    -0.056 A 
HETATM    4  C   UNL     1       7.612  28.696  56.602  1.00  0.00     0.007 A 
HETATM    5  C   UNL     1       8.046  29.203  57.829  1.00  0.00     0.001 A 
HETATM    6  C   UNL     1       9.295  29.811  57.931  1.00  0.00     0.000 A 
HETATM    7  C   UNL     1      10.113  29.910  56.808  1.00  0.00     0.001 A 
HETATM    8  C   UNL     1       9.683  29.402  55.581  1.00  0.00     0.007 A 
ENDBRANCH   2   3
ENDBRANCH   1   2
BRANCH   1   9
HETATM    9  N   UNL     1       7.154  25.896  53.953  1.00  0.00    -0.342 N 
HETATM   10  C   UNL     1       7.480  24.973  54.918  1.00  0.00     0.276 C 
HETATM   11  O   UNL     1       7.353  25.222  56.116  1.00  0.00    -0.265 OA
HETATM   12  H   UNL     1       7.260  25.608  52.986  1.00  0.00     0.163 HD
BRANCH  10  13
HETATM   13  C   UNL     1       7.934  23.701  54.402  1.00  0.00     0.142 A 
HETATM   14  O   UNL     1       8.915  23.012  55.070  1.00  0.00    -0.317 OA
HETATM   15  C   UNL     1       9.146  21.869  54.372  1.00  0.00     0.143 A 
HETATM   16  C   UNL     1       8.335  21.807  53.264  1.00  0.00     0.027 A 
HETATM   17  C   UNL     1       7.554  22.987  53.282  1.00  0.00     0.045 A 
ENDBRANCH  10  13
ENDBRANCH   1   9
BRANCH   1  18
HETATM   18  C   UNL     1       5.624  27.734  53.310  1.00  0.00     0.240 C 
HETATM   19  N   UNL     1       5.545  29.102  53.151  1.00  0.00    -0.359 N 
HETATM   20  H   UNL     1       6.224  29.679  53.650  1.00  0.00     0.162 HD
HETATM   21  O   UNL     1       4.892  26.951  52.708  1.00  0.00    -0.271 OA
BRANCH  19  22
HETATM   22  C   UNL     1       4.599  29.748  52.265  1.00  0.00     0.127 C 
BRANCH  22  23
HETATM   23  C   UNL     1       5.191  30.020  50.876  1.00  0.00     0.058 C 
BRANCH  23  24
HETATM   24  C   UNL     1       4.744  29.082  49.775  1.00  0.00    -0.054 A 
HETATM   25  C   UNL     1       5.647  28.596  48.815  1.00  0.00     0.046 A 
HETATM   26  C   UNL     1       5.207  27.704  47.841  1.00  0.00     0.099 A 
HETATM   27  C   UNL     1       3.882  27.279  47.821  1.00  0.00     0.098 A 
HETATM   28  C   UNL     1       2.976  27.741  48.762  1.00  0.00     0.040 A 
HETATM   29  C   UNL     1       3.408  28.639  49.740  1.00  0.00     0.010 A 
BRANCH  26  30
HETATM   30  O   UNL     1       6.047  27.215  46.880  1.00  0.00    -0.358 OA
HETATM   31  H   UNL     1       6.197  27.925  46.231  1.00  0.00     0.218 HD
ENDBRANCH  26  30
BRANCH  27  32
HETATM   32  O   UNL     1       3.464  26.397  46.866  1.00  0.00    -0.358 OA
HETATM   33  H   UNL     1       2.495  26.521  46.832  1.00  0.00     0.218 HD
ENDBRANCH  27  32
ENDBRANCH  23  24
ENDBRANCH  22  23
ENDBRANCH  19  22
ENDBRANCH   1  18
TORSDOF 10
ENDMDL
MODEL 9
REMARK VINA RESULT:      -8.6      3.241      9.091
REMARK  10 active torsions:
REMARK  status: ('A' for Active; 'I' for Inactive)
REMARK    1  A    between atoms: C_4  and  C_5 
REMARK    2  A    between atoms: C_5  and  C_6 
REMARK    3  A    between atoms: C_6  and  N_7 
REMARK    4  A    between atoms: C_6  and  C_15 
REMARK       I    between atoms: N_7  and  C_8 
REMARK    5  A    between atoms: C_8  and  C_9 
REMARK       I    between atoms: C_15  and  N_16 
REMARK    6  A    between atoms: N_16  and  C_17 
REMARK    7  A    between atoms: C_17  and  C_18 
REMARK    8  A    between atoms: C_18  and  C_19 
REMARK    9  A    between atoms: C_21  and  O_22 
REMARK   10  A    between atoms: C_23  and  O_24 
ROOT
HETATM    1  C   UNL     1       6.497  28.435  55.827  1.00  0.00     0.181 C 
ENDROOT
BRANCH   1   2
HETATM    2  C   UNL     1       5.376  29.239  55.145  1.00  0.00     0.073 C 
BRANCH   2   3
HETATM    3  C   UNL     1       4.806  30.342  56.011  1.00  0.00    -0.056 A 
HETATM    4  C   UNL     1       4.996  31.687  55.668  1.00  0.00     0.007 A 
HETATM    5  C   UNL     1       4.463  32.703  56.465  1.00  0.00     0.001 A 
HETATM    6  C   UNL     1       3.734  32.384  57.609  1.00  0.00     0.000 A 
HETATM    7  C   UNL     1       3.534  31.050  57.955  1.00  0.00     0.001 A 
HETATM    8  C   UNL     1       4.064  30.033  57.159  1.00  0.00     0.007 A 
ENDBRANCH   2   3
ENDBRANCH   1   2
BRANCH   1   9
HETATM    9  N   UNL     1       7.341  29.293  56.665  1.00  0.00    -0.342 N 
HETATM   10  C   UNL     1       7.934  28.868  57.830  1.00  0.00     0.276 C 
HETATM   11  O   UNL     1       7.884  27.693  58.187  1.00  0.00    -0.265 OA
HETATM   12  H   UNL     1       7.449  30.272  56.423  1.00  0.00     0.163 HD
BRANCH  10  13
HETATM   13  C   UNL     1       8.641  29.902  58.554  1.00  0.00     0.142 A 
HETATM   14  O   UNL     1       8.487  30.000  59.914  1.00  0.00    -0.317 OA
HETATM   15  C   UNL     1       9.251  31.044  60.328  1.00  0.00     0.143 A 
HETATM   16  C   UNL     1       9.894  31.626  59.261  1.00  0.00     0.027 A 
HETATM   17  C   UNL     1       9.501  30.891  58.117  1.00  0.00     0.045 A 
ENDBRANCH  10  13
ENDBRANCH   1   9
BRANCH   1  18
HETATM   18  C   UNL     1       7.353  27.710  54.761  1.00  0.00     0.240 C 
HETATM   19  N   UNL     1       7.076  26.363  54.642  1.00  0.00    -0.359 N 
HETATM   20  H   UNL     1       6.352  25.972  55.246  1.00  0.00     0.162 HD
HETATM   21  O   UNL     1       8.165  28.287  54.040  1.00  0.00    -0.271 OA
BRANCH  19  22
HETATM   22  C   UNL     1       7.706  25.502  53.663  1.00  0.00     0.127 C 
BRANCH  22  23
HETATM   23  C   UNL     1       6.840  24.288  53.307  1.00  0.00     0.058 C 
BRANCH  23  24
HETATM   24  C   UNL     1       7.353  22.948  53.791  1.00  0.00    -0.054 A 
HETATM   25  C   UNL     1       7.727  21.938  52.891  1.00  0.00     0.046 A 
HETATM   26  C   UNL     1       8.231  20.734  53.374  1.00  0.00     0.099 A 
HETATM   27  C   UNL     1       8.380  20.529  54.742  1.00  0.00     0.098 A 
HETATM   28  C   UNL     1       8.024  21.515  55.648  1.00  0.00     0.040 A 
HETATM   29  C   UNL     1       7.514  22.725  55.172  1.00  0.00     0.010 A 
BRANCH  26  30
HETATM   30  O   UNL     1       8.595  19.717  52.535  1.00  0.00    -0.358 OA
HETATM   31  H   UNL     1       9.237  20.077  51.898  1.00  0.00     0.218 HD
ENDBRANCH  26  30
BRANCH  27  32
HETATM   32  O   UNL     1       8.884  19.347  55.204  1.00  0.00    -0.358 OA
HETATM   33  H   UNL     1       8.183  18.999  55.789  1.00  0.00     0.218 HD
ENDBRANCH  27  32
ENDBRANCH  23  24
ENDBRANCH  22  23
ENDBRANCH  19  22
ENDBRANCH   1  18
TORSDOF 10
ENDMDL
MODEL 10
REMARK VINA RESULT:      -8.6      2.023      2.559
REMARK  10 active torsions:
REMARK  status: ('A' for Active; 'I' for Inactive)
REMARK    1  A    between atoms: C_4  and  C_5 
REMARK    2  A    between atoms: C_5  and  C_6 
REMARK    3  A    between atoms: C_6  and  N_7 
REMARK    4  A    between atoms: C_6  and  C_15 
REMARK       I    between atoms: N_7  and  C_8 
REMARK    5  A    between atoms: C_8  and  C_9 
REMARK       I    between atoms: C_15  and  N_16 
REMARK    6  A    between atoms: N_16  and  C_17 
REMARK    7  A    between atoms: C_17  and  C_18 
REMARK    8  A    between atoms: C_18  and  C_19 
REMARK    9  A    between atoms: C_21  and  O_22 
REMARK   10  A    between atoms: C_23  and  O_24 
ROOT
HETATM    1  C   UNL     1       6.110  25.334  54.673  1.00  0.00     0.181 C 
ENDROOT
BRANCH   1   2
HETATM    2  C   UNL     1       7.562  24.822  54.662  1.00  0.00     0.073 C 
BRANCH   2   3
HETATM    3  C   UNL     1       7.677  23.326  54.471  1.00  0.00    -0.056 A 
HETATM    4  C   UNL     1       7.889  22.784  53.196  1.00  0.00     0.007 A 
HETATM    5  C   UNL     1       8.002  21.402  53.024  1.00  0.00     0.001 A 
HETATM    6  C   UNL     1       7.907  20.551  54.122  1.00  0.00     0.000 A 
HETATM    7  C   UNL     1       7.701  21.079  55.394  1.00  0.00     0.001 A 
HETATM    8  C   UNL     1       7.590  22.460  55.570  1.00  0.00     0.007 A 
ENDBRANCH   2   3
ENDBRANCH   1   2
BRANCH   1   9
HETATM    9  N   UNL     1       5.826  26.169  53.501  1.00  0.00    -0.342 N 
HETATM   10  C   UNL     1       5.258  25.686  52.346  1.00  0.00     0.276 C 
HETATM   11  O   UNL     1       4.846  24.531  52.264  1.00  0.00    -0.265 OA
HETATM   12  H   UNL     1       6.117  27.141  53.501  1.00  0.00     0.163 HD
BRANCH  10  13
HETATM   13  C   UNL     1       5.158  26.656  51.277  1.00  0.00     0.142 A 
HETATM   14  O   UNL     1       4.707  26.259  50.044  1.00  0.00    -0.317 OA
HETATM   15  C   UNL     1       4.716  27.356  49.242  1.00  0.00     0.143 A 
HETATM   16  C   UNL     1       5.170  28.455  49.932  1.00  0.00     0.027 A 
HETATM   17  C   UNL     1       5.456  28.005  51.244  1.00  0.00     0.045 A 
ENDBRANCH  10  13
ENDBRANCH   1   9
BRANCH   1  18
HETATM   18  C   UNL     1       5.836  26.122  55.977  1.00  0.00     0.240 C 
HETATM   19  N   UNL     1       6.569  27.285  56.092  1.00  0.00    -0.359 N 
HETATM   20  H   UNL     1       7.208  27.520  55.331  1.00  0.00     0.162 HD
HETATM   21  O   UNL     1       4.998  25.779  56.809  1.00  0.00    -0.271 OA
BRANCH  19  22
HETATM   22  C   UNL     1       6.426  28.212  57.195  1.00  0.00     0.127 C 
BRANCH  22  23
HETATM   23  C   UNL     1       7.700  29.031  57.440  1.00  0.00     0.058 C 
BRANCH  23  24
HETATM   24  C   UNL     1       7.605  30.090  58.518  1.00  0.00    -0.054 A 
HETATM   25  C   UNL     1       8.562  30.181  59.541  1.00  0.00     0.046 A 
HETATM   26  C   UNL     1       8.462  31.192  60.492  1.00  0.00     0.099 A 
HETATM   27  C   UNL     1       7.429  32.122  60.428  1.00  0.00     0.098 A 
HETATM   28  C   UNL     1       6.478  32.055  59.423  1.00  0.00     0.040 A 
HETATM   29  C   UNL     1       6.568  31.041  58.467  1.00  0.00     0.010 A 
BRANCH  26  30
HETATM   30  O   UNL     1       9.363  31.312  61.514  1.00  0.00    -0.358 OA
HETATM   31  H   UNL     1      10.195  30.899  61.222  1.00  0.00     0.218 HD
ENDBRANCH  26  30
BRANCH  27  32
HETATM   32  O   UNL     1       7.346  33.115  61.362  1.00  0.00    -0.358 OA
HETATM   33  H   UNL     1       7.128  33.915  60.844  1.00  0.00     0.218 HD
ENDBRANCH  27  32
ENDBRANCH  23  24
ENDBRANCH  22  23
ENDBRANCH  19  22
ENDBRANCH   1  18
TORSDOF 10
ENDMDL
