MODEL 1
REMARK VINA RESULT:      -8.8      0.000      0.000
REMARK  7 active torsions:
REMARK  status: ('A' for Active; 'I' for Inactive)
REMARK    1  A    between atoms: C_2  and  N_3 
REMARK    2  A    between atoms: C_8  and  C_9 
REMARK    3  A    between atoms: C_9  and  N_10 
REMARK       I    between atoms: N_10  and  C_11 
REMARK       I    between atoms: C_11  and  N_12 
REMARK    4  A    between atoms: N_12  and  C_13 
REMARK    5  A    between atoms: C_14  and  O_15 
REMARK    6  A    between atoms: C_18  and  O_19 
REMARK    7  A    between atoms: C_26  and  N_27 
ROOT
HETATM    1  C   UNL     1       7.632  26.280  56.243  1.00  0.00     0.118 C 
HETATM    2  C   UNL     1       6.522  26.067  57.271  1.00  0.00     0.037 C 
ENDROOT
BRANCH   1   3
HETATM    3  C   UNL     1       7.365  25.484  54.962  1.00  0.00     0.006 A 
HETATM    4  C   UNL     1       7.984  24.184  54.672  1.00  0.00    -0.031 A 
HETATM    5  C   UNL     1       7.541  23.644  53.482  1.00  0.00     0.017 A 
HETATM    6  C   UNL     1       8.958  23.411  55.525  1.00  0.00     0.068 C 
HETATM    7  C   UNL     1       7.970  22.338  52.899  1.00  0.00     0.281 C 
HETATM    8  S   UNL     1       6.428  24.632  52.698  1.00  0.00    -0.074 SA
HETATM    9  N   UNL     1       8.610  21.442  53.953  1.00  0.00    -0.067 N 
HETATM   10  H   UNL     1       9.151  20.736  53.440  1.00  0.00     0.280 HD
HETATM   11  C   UNL     1       9.617  22.241  54.770  1.00  0.00     0.240 C 
HETATM   12  C   UNL     1       6.516  25.841  53.907  1.00  0.00     0.089 A 
BRANCH   9  13
HETATM   13  C   UNL     1       7.611  20.695  54.811  1.00  0.00     0.231 C 
HETATM   14  C   UNL     1       8.325  19.950  55.925  1.00  0.00     0.034 C 
ENDBRANCH   9  13
BRANCH  12  15
HETATM   15  N   UNL     1       5.749  27.013  53.673  1.00  0.00    -0.327 N 
HETATM   16  C   UNL     1       4.648  27.451  54.406  1.00  0.00     0.097 A 
HETATM   17  C   UNL     1       4.173  28.638  53.895  1.00  0.00     0.019 A 
HETATM   18  C   UNL     1       4.977  28.955  52.791  1.00  0.00     0.019 A 
HETATM   19  C   UNL     1       5.909  27.949  52.665  1.00  0.00     0.097 A 
ENDBRANCH  12  15
ENDBRANCH   1   3
BRANCH   1  20
HETATM   20  N   UNL     1       7.958  27.654  55.857  1.00  0.00    -0.334 N 
HETATM   21  C   UNL     1       8.154  28.780  56.604  1.00  0.00     0.321 C 
HETATM   22  N   UNL     1       7.327  28.929  57.683  1.00  0.00    -0.306 N 
HETATM   23  O   UNL     1       8.922  29.629  56.161  1.00  0.00    -0.247 OA
HETATM   24  H   UNL     1       6.423  28.522  57.536  1.00  0.00     0.171 HD
HETATM   25  H   UNL     1       8.592  27.699  55.066  1.00  0.00     0.165 HD
BRANCH  22  26
HETATM   26  C   UNL     1       7.344  30.066  58.523  1.00  0.00     0.071 A 
HETATM   27  C   UNL     1       6.434  31.131  58.403  1.00  0.00     0.097 A 
HETATM   28  C   UNL     1       6.504  32.200  59.314  1.00  0.00     0.077 A 
HETATM   29  C   UNL     1       7.493  32.236  60.307  1.00  0.00     0.092 A 
HETATM   30  C   UNL     1       8.421  31.189  60.377  1.00  0.00     0.069 A 
HETATM   31 CL   UNL     1       9.671  31.157  61.572  1.00  0.00    -0.081 Cl
HETATM   32  C   UNL     1       8.361  30.122  59.481  1.00  0.00     0.059 A 
BRANCH  27  33
HETATM   33  O   UNL     1       5.566  31.078  57.343  1.00  0.00    -0.354 OA
HETATM   34  C   UNL     1       4.212  30.744  57.614  1.00  0.00     0.210 C 
ENDBRANCH  27  33
BRANCH  29  35
HETATM   35  O   UNL     1       7.626  33.231  61.239  1.00  0.00    -0.354 OA
HETATM   36  C   UNL     1       6.733  33.228  62.345  1.00  0.00     0.210 C 
ENDBRANCH  29  35
ENDBRANCH  22  26
ENDBRANCH   1  20
TORSDOF 7
ENDMDL
MODEL 2
REMARK VINA RESULT:      -8.7      4.563      7.935
REMARK  7 active torsions:
REMARK  status: ('A' for Active; 'I' for Inactive)
REMARK    1  A    between atoms: C_2  and  N_3 
REMARK    2  A    between atoms: C_8  and  C_9 
REMARK    3  A    between atoms: C_9  and  N_10 
REMARK       I    between atoms: N_10  and  C_11 
REMARK       I    between atoms: C_11  and  N_12 
REMARK    4  A    between atoms: N_12  and  C_13 
REMARK    5  A    between atoms: C_14  and  O_15 
REMARK    6  A    between atoms: C_18  and  O_19 
REMARK    7  A    between atoms: C_26  and  N_27 
ROOT
HETATM    1  C   UNL     1       7.768  27.913  53.901  1.00  0.00     0.118 C 
HETATM    2  C   UNL     1       8.968  28.750  54.341  1.00  0.00     0.037 C 
ENDROOT
BRANCH   1   3
HETATM    3  C   UNL     1       7.413  26.855  54.950  1.00  0.00     0.006 A 
HETATM    4  C   UNL     1       7.342  25.417  54.660  1.00  0.00    -0.031 A 
HETATM    5  C   UNL     1       7.059  24.666  55.781  1.00  0.00     0.017 A 
HETATM    6  C   UNL     1       7.586  24.725  53.341  1.00  0.00     0.068 C 
HETATM    7  C   UNL     1       6.919  23.181  55.830  1.00  0.00     0.281 C 
HETATM    8  S   UNL     1       6.863  25.611  57.159  1.00  0.00    -0.074 SA
HETATM    9  N   UNL     1       7.558  22.522  54.613  1.00  0.00    -0.067 N 
HETATM   10  H   UNL     1       7.155  21.579  54.550  1.00  0.00     0.280 HD
HETATM   11  C   UNL     1       7.133  23.253  53.346  1.00  0.00     0.240 C 
HETATM   12  C   UNL     1       7.121  27.070  56.303  1.00  0.00     0.089 A 
BRANCH   9  13
HETATM   13  C   UNL     1       9.058  22.353  54.724  1.00  0.00     0.231 C 
HETATM   14  C   UNL     1       9.392  21.075  55.473  1.00  0.00     0.034 C 
ENDBRANCH   9  13
BRANCH  12  15
HETATM   15  N   UNL     1       6.993  28.267  57.057  1.00  0.00    -0.327 N 
HETATM   16  C   UNL     1       7.926  28.798  57.946  1.00  0.00     0.097 A 
HETATM   17  C   UNL     1       7.462  29.979  58.478  1.00  0.00     0.019 A 
HETATM   18  C   UNL     1       6.188  30.197  57.935  1.00  0.00     0.019 A 
HETATM   19  C   UNL     1       5.918  29.139  57.095  1.00  0.00     0.097 A 
ENDBRANCH  12  15
ENDBRANCH   1   3
BRANCH   1  20
HETATM   20  N   UNL     1       6.535  28.614  53.537  1.00  0.00    -0.334 N 
HETATM   21  C   UNL     1       5.628  28.388  52.542  1.00  0.00     0.321 C 
HETATM   22  N   UNL     1       6.150  27.993  51.341  1.00  0.00    -0.306 N 
HETATM   23  O   UNL     1       4.464  28.714  52.751  1.00  0.00    -0.247 OA
HETATM   24  H   UNL     1       7.061  28.371  51.172  1.00  0.00     0.171 HD
HETATM   25  H   UNL     1       6.024  28.952  54.345  1.00  0.00     0.165 HD
BRANCH  22  26
HETATM   26  C   UNL     1       5.362  27.783  50.185  1.00  0.00     0.071 A 
HETATM   27  C   UNL     1       5.116  28.781  49.225  1.00  0.00     0.097 A 
HETATM   28  C   UNL     1       4.356  28.464  48.086  1.00  0.00     0.077 A 
HETATM   29  C   UNL     1       3.807  27.184  47.919  1.00  0.00     0.092 A 
HETATM   30  C   UNL     1       4.023  26.220  48.912  1.00  0.00     0.069 A 
HETATM   31 CL   UNL     1       3.382  24.618  48.783  1.00  0.00    -0.081 Cl
HETATM   32  C   UNL     1       4.777  26.521  50.046  1.00  0.00     0.059 A 
BRANCH  27  33
HETATM   33  O   UNL     1       5.593  30.034  49.509  1.00  0.00    -0.354 OA
HETATM   34  C   UNL     1       4.643  31.053  49.792  1.00  0.00     0.210 C 
ENDBRANCH  27  33
BRANCH  29  35
HETATM   35  O   UNL     1       3.065  26.788  46.838  1.00  0.00    -0.354 OA
HETATM   36  C   UNL     1       1.675  27.087  46.842  1.00  0.00     0.210 C 
ENDBRANCH  29  35
ENDBRANCH  22  26
ENDBRANCH   1  20
TORSDOF 7
ENDMDL
MODEL 3
REMARK VINA RESULT:      -8.6      3.909      8.199
REMARK  7 active torsions:
REMARK  status: ('A' for Active; 'I' for Inactive)
REMARK    1  A    between atoms: C_2  and  N_3 
REMARK    2  A    between atoms: C_8  and  C_9 
REMARK    3  A    between atoms: C_9  and  N_10 
REMARK       I    between atoms: N_10  and  C_11 
REMARK       I    between atoms: C_11  and  N_12 
REMARK    4  A    between atoms: N_12  and  C_13 
REMARK    5  A    between atoms: C_14  and  O_15 
REMARK    6  A    between atoms: C_18  and  O_19 
REMARK    7  A    between atoms: C_26  and  N_27 
ROOT
HETATM    1  C   UNL     1       5.648  28.141  52.632  1.00  0.00     0.118 C 
HETATM    2  C   UNL     1       5.773  28.836  51.277  1.00  0.00     0.037 C 
ENDROOT
BRANCH   1   3
HETATM    3  C   UNL     1       4.832  28.984  53.617  1.00  0.00     0.006 A 
HETATM    4  C   UNL     1       5.083  29.010  55.063  1.00  0.00    -0.031 A 
HETATM    5  C   UNL     1       4.252  29.888  55.727  1.00  0.00     0.017 A 
HETATM    6  C   UNL     1       6.136  28.252  55.834  1.00  0.00     0.068 C 
HETATM    7  C   UNL     1       4.249  30.152  57.196  1.00  0.00     0.281 C 
HETATM    8  S   UNL     1       3.179  30.668  54.692  1.00  0.00    -0.074 SA
HETATM    9  N   UNL     1       5.550  29.696  57.845  1.00  0.00    -0.067 N 
HETATM   10  H   UNL     1       5.355  29.608  58.850  1.00  0.00     0.280 HD
HETATM   11  C   UNL     1       5.910  28.299  57.358  1.00  0.00     0.240 C 
HETATM   12  C   UNL     1       3.765  29.839  53.315  1.00  0.00     0.089 A 
BRANCH   9  13
HETATM   13  C   UNL     1       6.687  30.685  57.701  1.00  0.00     0.231 C 
HETATM   14  C   UNL     1       7.922  30.179  58.427  1.00  0.00     0.034 C 
ENDBRANCH   9  13
BRANCH  12  15
HETATM   15  N   UNL     1       3.098  30.114  52.091  1.00  0.00    -0.327 N 
HETATM   16  C   UNL     1       3.022  31.343  51.439  1.00  0.00     0.097 A 
HETATM   17  C   UNL     1       2.306  31.221  50.269  1.00  0.00     0.019 A 
HETATM   18  C   UNL     1       1.893  29.884  50.183  1.00  0.00     0.019 A 
HETATM   19  C   UNL     1       2.366  29.240  51.305  1.00  0.00     0.097 A 
ENDBRANCH  12  15
ENDBRANCH   1   3
BRANCH   1  20
HETATM   20  N   UNL     1       5.116  26.777  52.660  1.00  0.00    -0.334 N 
HETATM   21  C   UNL     1       5.542  25.654  53.309  1.00  0.00     0.321 C 
HETATM   22  N   UNL     1       6.897  25.480  53.367  1.00  0.00    -0.306 N 
HETATM   23  O   UNL     1       4.694  24.828  53.630  1.00  0.00    -0.247 OA
HETATM   24  H   UNL     1       7.371  25.863  52.572  1.00  0.00     0.171 HD
HETATM   25  H   UNL     1       4.102  26.753  52.642  1.00  0.00     0.165 HD
BRANCH  22  26
HETATM   26  C   UNL     1       7.509  24.341  53.939  1.00  0.00     0.071 A 
HETATM   27  C   UNL     1       7.990  24.302  55.260  1.00  0.00     0.097 A 
HETATM   28  C   UNL     1       8.544  23.108  55.753  1.00  0.00     0.077 A 
HETATM   29  C   UNL     1       8.661  21.975  54.935  1.00  0.00     0.092 A 
HETATM   30  C   UNL     1       8.220  22.052  53.607  1.00  0.00     0.069 A 
HETATM   31 CL   UNL     1       8.327  20.700  52.532  1.00  0.00    -0.081 Cl
HETATM   32  C   UNL     1       7.667  23.230  53.106  1.00  0.00     0.059 A 
BRANCH  27  33
HETATM   33  O   UNL     1       7.942  25.477  55.965  1.00  0.00    -0.354 OA
HETATM   34  C   UNL     1       8.407  25.461  57.307  1.00  0.00     0.210 C 
ENDBRANCH  27  33
BRANCH  29  35
HETATM   35  O   UNL     1       9.177  20.772  55.337  1.00  0.00    -0.354 OA
HETATM   36  C   UNL     1       8.424  20.004  56.266  1.00  0.00     0.210 C 
ENDBRANCH  29  35
ENDBRANCH  22  26
ENDBRANCH   1  20
TORSDOF 7
ENDMDL
MODEL 4
REMARK VINA RESULT:      -8.4      1.992      4.893
REMARK  7 active torsions:
REMARK  status: ('A' for Active; 'I' for Inactive)
REMARK    1  A    between atoms: C_2  and  N_3 
REMARK    2  A    between atoms: C_8  and  C_9 
REMARK    3  A    between atoms: C_9  and  N_10 
REMARK       I    between atoms: N_10  and  C_11 
REMARK       I    between atoms: C_11  and  N_12 
REMARK    4  A    between atoms: N_12  and  C_13 
REMARK    5  A    between atoms: C_14  and  O_15 
REMARK    6  A    between atoms: C_18  and  O_19 
REMARK    7  A    between atoms: C_26  and  N_27 
ROOT
HETATM    1  C   UNL     1       6.937  28.328  54.306  1.00  0.00     0.118 C 
HETATM    2  C   UNL     1       8.458  28.268  54.173  1.00  0.00     0.037 C 
ENDROOT
BRANCH   1   3
HETATM    3  C   UNL     1       6.252  27.442  53.260  1.00  0.00     0.006 A 
HETATM    4  C   UNL     1       5.454  27.971  52.147  1.00  0.00    -0.031 A 
HETATM    5  C   UNL     1       4.989  26.977  51.312  1.00  0.00     0.017 A 
HETATM    6  C   UNL     1       5.157  29.415  51.824  1.00  0.00     0.068 C 
HETATM    7  C   UNL     1       4.153  27.175  50.093  1.00  0.00     0.281 C 
HETATM    8  S   UNL     1       5.459  25.441  51.814  1.00  0.00    -0.074 SA
HETATM    9  N   UNL     1       4.226  28.615  49.596  1.00  0.00    -0.067 N 
HETATM   10  H   UNL     1       3.411  28.751  48.986  1.00  0.00     0.280 HD
HETATM   11  C   UNL     1       4.049  29.575  50.765  1.00  0.00     0.240 C 
HETATM   12  C   UNL     1       6.281  26.044  53.189  1.00  0.00     0.089 A 
BRANCH   9  13
HETATM   13  C   UNL     1       5.455  28.914  48.764  1.00  0.00     0.231 C 
HETATM   14  C   UNL     1       5.454  28.072  47.500  1.00  0.00     0.034 C 
ENDBRANCH   9  13
BRANCH  12  15
HETATM   15  N   UNL     1       6.850  25.070  54.051  1.00  0.00    -0.327 N 
HETATM   16  C   UNL     1       6.355  24.657  55.287  1.00  0.00     0.097 A 
HETATM   17  C   UNL     1       7.164  23.683  55.826  1.00  0.00     0.019 A 
HETATM   18  C   UNL     1       8.217  23.484  54.923  1.00  0.00     0.019 A 
HETATM   19  C   UNL     1       8.017  24.347  53.868  1.00  0.00     0.097 A 
ENDBRANCH  12  15
ENDBRANCH   1   3
BRANCH   1  20
HETATM   20  N   UNL     1       6.347  28.021  55.610  1.00  0.00    -0.334 N 
HETATM   21  C   UNL     1       6.171  28.789  56.725  1.00  0.00     0.321 C 
HETATM   22  N   UNL     1       7.192  29.650  57.020  1.00  0.00    -0.306 N 
HETATM   23  O   UNL     1       5.215  28.529  57.448  1.00  0.00    -0.247 OA
HETATM   24  H   UNL     1       8.086  29.303  56.732  1.00  0.00     0.171 HD
HETATM   25  H   UNL     1       5.551  27.396  55.542  1.00  0.00     0.165 HD
BRANCH  22  26
HETATM   26  C   UNL     1       7.208  30.467  58.174  1.00  0.00     0.071 A 
HETATM   27  C   UNL     1       6.372  31.586  58.342  1.00  0.00     0.097 A 
HETATM   28  C   UNL     1       6.431  32.312  59.544  1.00  0.00     0.077 A 
HETATM   29  C   UNL     1       7.339  31.962  60.554  1.00  0.00     0.092 A 
HETATM   30  C   UNL     1       8.197  30.874  60.345  1.00  0.00     0.069 A 
HETATM   31 CL   UNL     1       9.345  30.377  61.540  1.00  0.00    -0.081 Cl
HETATM   32  C   UNL     1       8.148  30.145  59.157  1.00  0.00     0.059 A 
BRANCH  27  33
HETATM   33  O   UNL     1       5.589  31.931  57.271  1.00  0.00    -0.354 OA
HETATM   34  C   UNL     1       4.225  32.241  57.523  1.00  0.00     0.210 C 
ENDBRANCH  27  33
BRANCH  29  35
HETATM   35  O   UNL     1       7.454  32.607  61.757  1.00  0.00    -0.354 OA
HETATM   36  C   UNL     1       6.496  32.309  62.764  1.00  0.00     0.210 C 
ENDBRANCH  29  35
ENDBRANCH  22  26
ENDBRANCH   1  20
TORSDOF 7
ENDMDL
MODEL 5
REMARK VINA RESULT:      -8.2      1.859      2.382
REMARK  7 active torsions:
REMARK  status: ('A' for Active; 'I' for Inactive)
REMARK    1  A    between atoms: C_2  and  N_3 
REMARK    2  A    between atoms: C_8  and  C_9 
REMARK    3  A    between atoms: C_9  and  N_10 
REMARK       I    between atoms: N_10  and  C_11 
REMARK       I    between atoms: C_11  and  N_12 
REMARK    4  A    between atoms: N_12  and  C_13 
REMARK    5  A    between atoms: C_14  and  O_15 
REMARK    6  A    between atoms: C_18  and  O_19 
REMARK    7  A    between atoms: C_26  and  N_27 
ROOT
HETATM    1  C   UNL     1       7.860  26.356  56.220  1.00  0.00     0.118 C 
HETATM    2  C   UNL     1       6.861  26.229  57.369  1.00  0.00     0.037 C 
ENDROOT
BRANCH   1   3
HETATM    3  C   UNL     1       7.433  25.511  55.016  1.00  0.00     0.006 A 
HETATM    4  C   UNL     1       7.974  24.175  54.731  1.00  0.00    -0.031 A 
HETATM    5  C   UNL     1       7.391  23.596  53.623  1.00  0.00     0.017 A 
HETATM    6  C   UNL     1       9.005  23.406  55.519  1.00  0.00     0.068 C 
HETATM    7  C   UNL     1       7.711  22.248  53.067  1.00  0.00     0.281 C 
HETATM    8  S   UNL     1       6.237  24.589  52.907  1.00  0.00    -0.074 SA
HETATM    9  N   UNL     1       8.427  21.379  54.094  1.00  0.00    -0.067 N 
HETATM   10  H   UNL     1       8.887  20.628  53.566  1.00  0.00     0.280 HD
HETATM   11  C   UNL     1       9.540  22.175  54.762  1.00  0.00     0.240 C 
HETATM   12  C   UNL     1       6.492  25.850  54.036  1.00  0.00     0.089 A 
BRANCH   9  13
HETATM   13  C   UNL     1       7.498  20.714  55.088  1.00  0.00     0.231 C 
HETATM   14  C   UNL     1       8.297  20.047  56.194  1.00  0.00     0.034 C 
ENDBRANCH   9  13
BRANCH  12  15
HETATM   15  N   UNL     1       5.745  27.039  53.821  1.00  0.00    -0.327 N 
HETATM   16  C   UNL     1       4.650  27.483  54.561  1.00  0.00     0.097 A 
HETATM   17  C   UNL     1       4.197  28.686  54.070  1.00  0.00     0.019 A 
HETATM   18  C   UNL     1       5.008  29.008  52.973  1.00  0.00     0.019 A 
HETATM   19  C   UNL     1       5.923  27.989  52.830  1.00  0.00     0.097 A 
ENDBRANCH  12  15
ENDBRANCH   1   3
BRANCH   1  20
HETATM   20  N   UNL     1       8.182  27.699  55.733  1.00  0.00    -0.334 N 
HETATM   21  C   UNL     1       7.949  28.933  56.267  1.00  0.00     0.321 C 
HETATM   22  N   UNL     1       6.744  29.091  56.895  1.00  0.00    -0.306 N 
HETATM   23  O   UNL     1       8.745  29.827  55.999  1.00  0.00    -0.247 OA
HETATM   24  H   UNL     1       6.022  28.525  56.493  1.00  0.00     0.171 HD
HETATM   25  H   UNL     1       9.075  27.738  55.254  1.00  0.00     0.165 HD
BRANCH  22  26
HETATM   26  C   UNL     1       6.310  30.320  57.442  1.00  0.00     0.071 A 
HETATM   27  C   UNL     1       6.885  30.905  58.585  1.00  0.00     0.097 A 
HETATM   28  C   UNL     1       6.412  32.152  59.028  1.00  0.00     0.077 A 
HETATM   29  C   UNL     1       5.352  32.796  58.374  1.00  0.00     0.092 A 
HETATM   30  C   UNL     1       4.761  32.172  57.267  1.00  0.00     0.069 A 
HETATM   31 CL   UNL     1       3.449  32.899  56.404  1.00  0.00    -0.081 Cl
HETATM   32  C   UNL     1       5.221  30.935  56.816  1.00  0.00     0.059 A 
BRANCH  27  33
HETATM   33  O   UNL     1       7.841  30.168  59.234  1.00  0.00    -0.354 OA
HETATM   34  C   UNL     1       9.108  30.775  59.449  1.00  0.00     0.210 C 
ENDBRANCH  27  33
BRANCH  29  35
HETATM   35  O   UNL     1       4.838  34.014  58.732  1.00  0.00    -0.354 OA
HETATM   36  C   UNL     1       4.306  34.150  60.043  1.00  0.00     0.210 C 
ENDBRANCH  29  35
ENDBRANCH  22  26
ENDBRANCH   1  20
TORSDOF 7
ENDMDL
MODEL 6
REMARK VINA RESULT:      -8.2      5.298      9.638
REMARK  7 active torsions:
REMARK  status: ('A' for Active; 'I' for Inactive)
REMARK    1  A    between atoms: C_2  and  N_3 
REMARK    2  A    between atoms: C_8  and  C_9 
REMARK    3  A    between atoms: C_9  and  N_10 
REMARK       I    between atoms: N_10  and  C_11 
REMARK       I    between atoms: C_11  and  N_12 
REMARK    4  A    between atoms: N_12  and  C_13 
REMARK    5  A    between atoms: C_14  and  O_15 
REMARK    6  A    between atoms: C_18  and  O_19 
REMARK    7  A    between atoms: C_26  and  N_27 
ROOT
HETATM    1  C   UNL     1       4.954  26.320  52.912  1.00  0.00     0.118 C 
HETATM    2  C   UNL     1       4.593  24.836  52.927  1.00  0.00     0.037 C 
ENDROOT
BRANCH   1   3
HETATM    3  C   UNL     1       5.873  26.681  54.084  1.00  0.00     0.006 A 
HETATM    4  C   UNL     1       5.825  27.970  54.784  1.00  0.00    -0.031 A 
HETATM    5  C   UNL     1       6.713  28.032  55.838  1.00  0.00     0.017 A 
HETATM    6  C   UNL     1       4.914  29.141  54.508  1.00  0.00     0.068 C 
HETATM    7  C   UNL     1       6.912  29.195  56.751  1.00  0.00     0.281 C 
HETATM    8  S   UNL     1       7.607  26.617  56.011  1.00  0.00    -0.074 SA
HETATM    9  N   UNL     1       5.729  30.155  56.694  1.00  0.00    -0.067 N 
HETATM   10  H   UNL     1       6.064  31.049  57.073  1.00  0.00     0.280 HD
HETATM   11  C   UNL     1       5.348  30.423  55.244  1.00  0.00     0.240 C 
HETATM   12  C   UNL     1       6.861  25.874  54.662  1.00  0.00     0.089 A 
BRANCH   9  13
HETATM   13  C   UNL     1       4.552  29.728  57.546  1.00  0.00     0.231 C 
HETATM   14  C   UNL     1       3.508  30.829  57.594  1.00  0.00     0.034 C 
ENDBRANCH   9  13
BRANCH  12  15
HETATM   15  N   UNL     1       7.343  24.584  54.316  1.00  0.00    -0.327 N 
HETATM   16  C   UNL     1       7.264  23.427  55.090  1.00  0.00     0.097 A 
HETATM   17  C   UNL     1       7.822  22.363  54.419  1.00  0.00     0.019 A 
HETATM   18  C   UNL     1       8.292  22.856  53.194  1.00  0.00     0.019 A 
HETATM   19  C   UNL     1       8.008  24.204  53.163  1.00  0.00     0.097 A 
ENDBRANCH  12  15
ENDBRANCH   1   3
BRANCH   1  20
HETATM   20  N   UNL     1       5.546  26.872  51.692  1.00  0.00    -0.334 N 
HETATM   21  C   UNL     1       5.003  27.608  50.678  1.00  0.00     0.321 C 
HETATM   22  N   UNL     1       3.737  27.253  50.300  1.00  0.00    -0.306 N 
HETATM   23  O   UNL     1       5.738  28.393  50.089  1.00  0.00    -0.247 OA
HETATM   24  H   UNL     1       3.556  26.276  50.422  1.00  0.00     0.171 HD
HETATM   25  H   UNL     1       6.496  27.200  51.831  1.00  0.00     0.165 HD
BRANCH  22  26
HETATM   26  C   UNL     1       3.051  27.861  49.222  1.00  0.00     0.071 A 
HETATM   27  C   UNL     1       2.989  27.305  47.932  1.00  0.00     0.097 A 
HETATM   28  C   UNL     1       2.246  27.963  46.937  1.00  0.00     0.077 A 
HETATM   29  C   UNL     1       1.605  29.181  47.203  1.00  0.00     0.092 A 
HETATM   30  C   UNL     1       1.721  29.742  48.481  1.00  0.00     0.069 A 
HETATM   31 CL   UNL     1       0.961  31.241  48.891  1.00  0.00    -0.081 Cl
HETATM   32  C   UNL     1       2.454  29.099  49.478  1.00  0.00     0.059 A 
BRANCH  27  33
HETATM   33  O   UNL     1       3.729  26.171  47.718  1.00  0.00    -0.354 OA
HETATM   34  C   UNL     1       3.037  24.930  47.678  1.00  0.00     0.210 C 
ENDBRANCH  27  33
BRANCH  29  35
HETATM   35  O   UNL     1       0.853  29.882  46.296  1.00  0.00    -0.354 OA
HETATM   36  C   UNL     1      -0.396  29.330  45.903  1.00  0.00     0.210 C 
ENDBRANCH  29  35
ENDBRANCH  22  26
ENDBRANCH   1  20
TORSDOF 7
ENDMDL
MODEL 7
REMARK VINA RESULT:      -8.1      4.904      8.466
REMARK  7 active torsions:
REMARK  status: ('A' for Active; 'I' for Inactive)
REMARK    1  A    between atoms: C_2  and  N_3 
REMARK    2  A    between atoms: C_8  and  C_9 
REMARK    3  A    between atoms: C_9  and  N_10 
REMARK       I    between atoms: N_10  and  C_11 
REMARK       I    between atoms: C_11  and  N_12 
REMARK    4  A    between atoms: N_12  and  C_13 
REMARK    5  A    between atoms: C_14  and  O_15 
REMARK    6  A    between atoms: C_18  and  O_19 
REMARK    7  A    between atoms: C_26  and  N_27 
ROOT
HETATM    1  C   UNL     1       4.803  27.987  52.492  1.00  0.00     0.118 C 
HETATM    2  C   UNL     1       6.275  28.385  52.570  1.00  0.00     0.037 C 
ENDROOT
BRANCH   1   3
HETATM    3  C   UNL     1       4.091  28.711  51.346  1.00  0.00     0.006 A 
HETATM    4  C   UNL     1       4.069  28.216  49.963  1.00  0.00    -0.031 A 
HETATM    5  C   UNL     1       3.316  29.016  49.129  1.00  0.00     0.017 A 
HETATM    6  C   UNL     1       4.710  26.964  49.417  1.00  0.00     0.068 C 
HETATM    7  C   UNL     1       3.089  28.794  47.671  1.00  0.00     0.281 C 
HETATM    8  S   UNL     1       2.649  30.337  49.929  1.00  0.00    -0.074 SA
HETATM    9  N   UNL     1       3.398  27.355  47.273  1.00  0.00    -0.067 N 
HETATM   10  H   UNL     1       3.533  27.360  46.254  1.00  0.00     0.280 HD
HETATM   11  C   UNL     1       4.728  26.925  47.877  1.00  0.00     0.240 C 
HETATM   12  C   UNL     1       3.366  29.907  51.423  1.00  0.00     0.089 A 
BRANCH   9  13
HETATM   13  C   UNL     1       2.274  26.384  47.564  1.00  0.00     0.231 C 
HETATM   14  C   UNL     1       0.928  27.051  47.339  1.00  0.00     0.034 C 
ENDBRANCH   9  13
BRANCH  12  15
HETATM   15  N   UNL     1       3.146  30.805  52.501  1.00  0.00    -0.327 N 
HETATM   16  C   UNL     1       3.335  30.544  53.857  1.00  0.00     0.097 A 
HETATM   17  C   UNL     1       3.036  31.660  54.606  1.00  0.00     0.019 A 
HETATM   18  C   UNL     1       2.621  32.653  53.707  1.00  0.00     0.019 A 
HETATM   19  C   UNL     1       2.677  32.106  52.444  1.00  0.00     0.097 A 
ENDBRANCH  12  15
ENDBRANCH   1   3
BRANCH   1  20
HETATM   20  N   UNL     1       4.479  26.562  52.391  1.00  0.00    -0.334 N 
HETATM   21  C   UNL     1       4.967  25.476  53.059  1.00  0.00     0.321 C 
HETATM   22  N   UNL     1       6.310  25.491  53.316  1.00  0.00    -0.306 N 
HETATM   23  O   UNL     1       4.213  24.521  53.218  1.00  0.00    -0.247 OA
HETATM   24  H   UNL     1       6.833  25.981  52.616  1.00  0.00     0.171 HD
HETATM   25  H   UNL     1       3.494  26.396  52.218  1.00  0.00     0.165 HD
BRANCH  22  26
HETATM   26  C   UNL     1       6.993  24.418  53.935  1.00  0.00     0.071 A 
HETATM   27  C   UNL     1       7.398  24.432  55.282  1.00  0.00     0.097 A 
HETATM   28  C   UNL     1       8.034  23.299  55.818  1.00  0.00     0.077 A 
HETATM   29  C   UNL     1       8.306  22.179  55.020  1.00  0.00     0.092 A 
HETATM   30  C   UNL     1       7.939  22.207  53.668  1.00  0.00     0.069 A 
HETATM   31 CL   UNL     1       8.238  20.866  52.615  1.00  0.00    -0.081 Cl
HETATM   32  C   UNL     1       7.306  23.323  53.124  1.00  0.00     0.059 A 
BRANCH  27  33
HETATM   33  O   UNL     1       7.196  25.601  55.969  1.00  0.00    -0.354 OA
HETATM   34  C   UNL     1       6.206  25.603  56.989  1.00  0.00     0.210 C 
ENDBRANCH  27  33
BRANCH  29  35
HETATM   35  O   UNL     1       8.910  21.033  55.464  1.00  0.00    -0.354 OA
HETATM   36  C   UNL     1       8.564  20.559  56.758  1.00  0.00     0.210 C 
ENDBRANCH  29  35
ENDBRANCH  22  26
ENDBRANCH   1  20
TORSDOF 7
ENDMDL
MODEL 8
REMARK VINA RESULT:      -8.1      4.232      8.442
REMARK  7 active torsions:
REMARK  status: ('A' for Active; 'I' for Inactive)
REMARK    1  A    between atoms: C_2  and  N_3 
REMARK    2  A    between atoms: C_8  and  C_9 
REMARK    3  A    between atoms: C_9  and  N_10 
REMARK       I    between atoms: N_10  and  C_11 
REMARK       I    between atoms: C_11  and  N_12 
REMARK    4  A    between atoms: N_12  and  C_13 
REMARK    5  A    between atoms: C_14  and  O_15 
REMARK    6  A    between atoms: C_18  and  O_19 
REMARK    7  A    between atoms: C_26  and  N_27 
ROOT
HETATM    1  C   UNL     1       5.288  27.623  51.196  1.00  0.00     0.118 C 
HETATM    2  C   UNL     1       5.466  27.806  49.690  1.00  0.00     0.037 C 
ENDROOT
BRANCH   1   3
HETATM    3  C   UNL     1       4.437  28.746  51.796  1.00  0.00     0.006 A 
HETATM    4  C   UNL     1       4.315  28.988  53.239  1.00  0.00    -0.031 A 
HETATM    5  C   UNL     1       3.537  30.091  53.525  1.00  0.00     0.017 A 
HETATM    6  C   UNL     1       4.964  28.222  54.365  1.00  0.00     0.068 C 
HETATM    7  C   UNL     1       3.217  30.609  54.888  1.00  0.00     0.281 C 
HETATM    8  S   UNL     1       2.940  30.836  52.140  1.00  0.00    -0.074 SA
HETATM    9  N   UNL     1       4.192  30.073  55.929  1.00  0.00    -0.067 N 
HETATM   10  H   UNL     1       3.737  30.197  56.842  1.00  0.00     0.280 HD
HETATM   11  C   UNL     1       4.374  28.573  55.745  1.00  0.00     0.240 C 
HETATM   12  C   UNL     1       3.676  29.693  51.100  1.00  0.00     0.089 A 
BRANCH   9  13
HETATM   13  C   UNL     1       5.504  30.827  55.986  1.00  0.00     0.231 C 
HETATM   14  C   UNL     1       6.358  30.316  57.134  1.00  0.00     0.034 C 
ENDBRANCH   9  13
BRANCH  12  15
HETATM   15  N   UNL     1       3.408  29.850  49.714  1.00  0.00    -0.327 N 
HETATM   16  C   UNL     1       2.462  29.156  48.962  1.00  0.00     0.097 A 
HETATM   17  C   UNL     1       2.477  29.589  47.655  1.00  0.00     0.019 A 
HETATM   18  C   UNL     1       3.475  30.569  47.564  1.00  0.00     0.019 A 
HETATM   19  C   UNL     1       4.037  30.695  48.815  1.00  0.00     0.097 A 
ENDBRANCH  12  15
ENDBRANCH   1   3
BRANCH   1  20
HETATM   20  N   UNL     1       4.751  26.348  51.677  1.00  0.00    -0.334 N 
HETATM   21  C   UNL     1       5.239  25.445  52.577  1.00  0.00     0.321 C 
HETATM   22  N   UNL     1       6.591  25.240  52.539  1.00  0.00    -0.306 N 
HETATM   23  O   UNL     1       4.427  24.781  53.212  1.00  0.00    -0.247 OA
HETATM   24  H   UNL     1       6.975  25.358  51.622  1.00  0.00     0.171 HD
HETATM   25  H   UNL     1       3.742  26.360  51.773  1.00  0.00     0.165 HD
BRANCH  22  26
HETATM   26  C   UNL     1       7.254  24.291  53.351  1.00  0.00     0.071 A 
HETATM   27  C   UNL     1       7.681  24.559  54.664  1.00  0.00     0.097 A 
HETATM   28  C   UNL     1       8.294  23.536  55.408  1.00  0.00     0.077 A 
HETATM   29  C   UNL     1       8.522  22.272  54.844  1.00  0.00     0.092 A 
HETATM   30  C   UNL     1       8.133  22.043  53.518  1.00  0.00     0.069 A 
HETATM   31 CL   UNL     1       8.378  20.512  52.749  1.00  0.00    -0.081 Cl
HETATM   32  C   UNL     1       7.523  23.048  52.770  1.00  0.00     0.059 A 
BRANCH  27  33
HETATM   33  O   UNL     1       7.523  25.846  55.109  1.00  0.00    -0.354 OA
HETATM   34  C   UNL     1       7.566  26.069  56.512  1.00  0.00     0.210 C 
ENDBRANCH  27  33
BRANCH  29  35
HETATM   35  O   UNL     1       9.102  21.218  55.500  1.00  0.00    -0.354 OA
HETATM   36  C   UNL     1       8.497  20.775  56.708  1.00  0.00     0.210 C 
ENDBRANCH  29  35
ENDBRANCH  22  26
ENDBRANCH   1  20
TORSDOF 7
ENDMDL
MODEL 9
REMARK VINA RESULT:      -8.0      3.737      9.058
REMARK  7 active torsions:
REMARK  status: ('A' for Active; 'I' for Inactive)
REMARK    1  A    between atoms: C_2  and  N_3 
REMARK    2  A    between atoms: C_8  and  C_9 
REMARK    3  A    between atoms: C_9  and  N_10 
REMARK       I    between atoms: N_10  and  C_11 
REMARK       I    between atoms: C_11  and  N_12 
REMARK    4  A    between atoms: N_12  and  C_13 
REMARK    5  A    between atoms: C_14  and  O_15 
REMARK    6  A    between atoms: C_18  and  O_19 
REMARK    7  A    between atoms: C_26  and  N_27 
ROOT
HETATM    1  C   UNL     1       7.412  28.724  57.906  1.00  0.00     0.118 C 
HETATM    2  C   UNL     1       8.775  28.724  57.216  1.00  0.00     0.037 C 
ENDROOT
BRANCH   1   3
HETATM    3  C   UNL     1       6.829  30.138  57.986  1.00  0.00     0.006 A 
HETATM    4  C   UNL     1       6.000  30.734  56.931  1.00  0.00    -0.031 A 
HETATM    5  C   UNL     1       5.550  31.995  57.262  1.00  0.00     0.017 A 
HETATM    6  C   UNL     1       5.579  30.112  55.622  1.00  0.00     0.068 C 
HETATM    7  C   UNL     1       4.688  32.870  56.414  1.00  0.00     0.281 C 
HETATM    8  S   UNL     1       6.090  32.496  58.775  1.00  0.00    -0.074 SA
HETATM    9  N   UNL     1       3.978  32.067  55.331  1.00  0.00    -0.067 N 
HETATM   10  H   UNL     1       3.681  32.745  54.618  1.00  0.00     0.280 HD
HETATM   11  C   UNL     1       4.966  31.134  54.645  1.00  0.00     0.240 C 
HETATM   12  C   UNL     1       6.974  31.054  59.036  1.00  0.00     0.089 A 
BRANCH   9  13
HETATM   13  C   UNL     1       2.730  31.358  55.812  1.00  0.00     0.231 C 
HETATM   14  C   UNL     1       1.494  32.171  55.468  1.00  0.00     0.034 C 
ENDBRANCH   9  13
BRANCH  12  15
HETATM   15  N   UNL     1       7.723  30.992  60.241  1.00  0.00    -0.327 N 
HETATM   16  C   UNL     1       7.316  31.426  61.501  1.00  0.00     0.097 A 
HETATM   17  C   UNL     1       8.301  31.187  62.432  1.00  0.00     0.019 A 
HETATM   18  C   UNL     1       9.377  30.607  61.745  1.00  0.00     0.019 A 
HETATM   19  C   UNL     1       9.012  30.518  60.420  1.00  0.00     0.097 A 
ENDBRANCH  12  15
ENDBRANCH   1   3
BRANCH   1  20
HETATM   20  N   UNL     1       6.372  27.840  57.378  1.00  0.00    -0.334 N 
HETATM   21  C   UNL     1       6.421  26.545  56.946  1.00  0.00     0.321 C 
HETATM   22  N   UNL     1       7.540  26.196  56.241  1.00  0.00    -0.306 N 
HETATM   23  O   UNL     1       5.407  25.866  57.074  1.00  0.00    -0.247 OA
HETATM   24  H   UNL     1       7.921  26.960  55.718  1.00  0.00     0.171 HD
HETATM   25  H   UNL     1       5.475  27.976  57.831  1.00  0.00     0.165 HD
BRANCH  22  26
HETATM   26  C   UNL     1       7.723  24.920  55.661  1.00  0.00     0.071 A 
HETATM   27  C   UNL     1       7.686  24.687  54.274  1.00  0.00     0.097 A 
HETATM   28  C   UNL     1       7.923  23.389  53.790  1.00  0.00     0.077 A 
HETATM   29  C   UNL     1       8.153  22.322  54.670  1.00  0.00     0.092 A 
HETATM   30  C   UNL     1       8.136  22.567  56.050  1.00  0.00     0.069 A 
HETATM   31 CL   UNL     1       8.411  21.306  57.203  1.00  0.00    -0.081 Cl
HETATM   32  C   UNL     1       7.904  23.850  56.543  1.00  0.00     0.059 A 
BRANCH  27  33
HETATM   33  O   UNL     1       7.349  25.755  53.483  1.00  0.00    -0.354 OA
HETATM   34  C   UNL     1       6.155  25.659  52.719  1.00  0.00     0.210 C 
ENDBRANCH  27  33
BRANCH  29  35
HETATM   35  O   UNL     1       8.403  21.032  54.284  1.00  0.00    -0.354 OA
HETATM   36  C   UNL     1       7.915  20.613  53.016  1.00  0.00     0.210 C 
ENDBRANCH  29  35
ENDBRANCH  22  26
ENDBRANCH   1  20
TORSDOF 7
ENDMDL
MODEL 10
REMARK VINA RESULT:      -7.7      2.595      5.392
REMARK  7 active torsions:
REMARK  status: ('A' for Active; 'I' for Inactive)
REMARK    1  A    between atoms: C_2  and  N_3 
REMARK    2  A    between atoms: C_8  and  C_9 
REMARK    3  A    between atoms: C_9  and  N_10 
REMARK       I    between atoms: N_10  and  C_11 
REMARK       I    between atoms: C_11  and  N_12 
REMARK    4  A    between atoms: N_12  and  C_13 
REMARK    5  A    between atoms: C_14  and  O_15 
REMARK    6  A    between atoms: C_18  and  O_19 
REMARK    7  A    between atoms: C_26  and  N_27 
ROOT
HETATM    1  C   UNL     1       6.956  28.343  54.241  1.00  0.00     0.118 C 
HETATM    2  C   UNL     1       8.473  28.202  54.141  1.00  0.00     0.037 C 
ENDROOT
BRANCH   1   3
HETATM    3  C   UNL     1       6.247  27.491  53.183  1.00  0.00     0.006 A 
HETATM    4  C   UNL     1       5.431  28.056  52.101  1.00  0.00    -0.031 A 
HETATM    5  C   UNL     1       4.946  27.088  51.246  1.00  0.00     0.017 A 
HETATM    6  C   UNL     1       5.136  29.509  51.826  1.00  0.00     0.068 C 
HETATM    7  C   UNL     1       4.089  27.326  50.048  1.00  0.00     0.281 C 
HETATM    8  S   UNL     1       5.418  25.536  51.694  1.00  0.00    -0.074 SA
HETATM    9  N   UNL     1       4.160  28.778  49.593  1.00  0.00    -0.067 N 
HETATM   10  H   UNL     1       3.335  28.937  49.002  1.00  0.00     0.280 HD
HETATM   11  C   UNL     1       4.010  29.705  50.792  1.00  0.00     0.240 C 
HETATM   12  C   UNL     1       6.268  26.095  53.071  1.00  0.00     0.089 A 
BRANCH   9  13
HETATM   13  C   UNL     1       5.375  29.097  48.747  1.00  0.00     0.231 C 
HETATM   14  C   UNL     1       5.495  28.106  47.602  1.00  0.00     0.034 C 
ENDBRANCH   9  13
BRANCH  12  15
HETATM   15  N   UNL     1       6.847  25.094  53.894  1.00  0.00    -0.327 N 
HETATM   16  C   UNL     1       6.391  24.670  55.141  1.00  0.00     0.097 A 
HETATM   17  C   UNL     1       7.198  23.669  55.631  1.00  0.00     0.019 A 
HETATM   18  C   UNL     1       8.211  23.464  54.685  1.00  0.00     0.019 A 
HETATM   19  C   UNL     1       7.990  24.350  53.654  1.00  0.00     0.097 A 
ENDBRANCH  12  15
ENDBRANCH   1   3
BRANCH   1  20
HETATM   20  N   UNL     1       6.322  28.072  55.533  1.00  0.00    -0.334 N 
HETATM   21  C   UNL     1       5.829  28.910  56.491  1.00  0.00     0.321 C 
HETATM   22  N   UNL     1       6.551  30.051  56.711  1.00  0.00    -0.306 N 
HETATM   23  O   UNL     1       4.898  28.502  57.178  1.00  0.00    -0.247 OA
HETATM   24  H   UNL     1       7.532  29.925  56.548  1.00  0.00     0.171 HD
HETATM   25  H   UNL     1       5.729  27.249  55.513  1.00  0.00     0.165 HD
BRANCH  22  26
HETATM   26  C   UNL     1       6.224  30.995  57.712  1.00  0.00     0.071 A 
HETATM   27  C   UNL     1       6.946  31.132  58.911  1.00  0.00     0.097 A 
HETATM   28  C   UNL     1       6.570  32.129  59.828  1.00  0.00     0.077 A 
HETATM   29  C   UNL     1       5.464  32.955  59.580  1.00  0.00     0.092 A 
HETATM   30  C   UNL     1       4.730  32.768  58.402  1.00  0.00     0.069 A 
HETATM   31 CL   UNL     1       3.353  33.745  58.021  1.00  0.00    -0.081 Cl
HETATM   32  C   UNL     1       5.093  31.783  57.484  1.00  0.00     0.059 A 
BRANCH  27  33
HETATM   33  O   UNL     1       7.945  30.220  59.133  1.00  0.00    -0.354 OA
HETATM   34  C   UNL     1       8.952  30.560  60.076  1.00  0.00     0.210 C 
ENDBRANCH  27  33
BRANCH  29  35
HETATM   35  O   UNL     1       5.036  33.956  60.412  1.00  0.00    -0.354 OA
HETATM   36  C   UNL     1       4.289  33.588  61.563  1.00  0.00     0.210 C 
ENDBRANCH  29  35
ENDBRANCH  22  26
ENDBRANCH   1  20
TORSDOF 7
ENDMDL
