MODEL 1
REMARK VINA RESULT:     -10.0      0.000      0.000
REMARK  10 active torsions:
REMARK  status: ('A' for Active; 'I' for Inactive)
REMARK    1  A    between atoms: N_15  and  C_16 
REMARK    2  A    between atoms: C_16  and  C_17 
REMARK    3  A    between atoms: C_17  and  N_18 
REMARK       I    between atoms: N_18  and  C_19 
REMARK    4  A    between atoms: C_19  and  C_20 
REMARK    5  A    between atoms: C_20  and  C_21 
REMARK    6  A    between atoms: C_21  and  C_22 
REMARK    7  A    between atoms: C_24  and  C_25 
REMARK    8  A    between atoms: C_29  and  O_30 
REMARK    9  A    between atoms: C_31  and  C_32 
REMARK   10  A    between atoms: C_38  and  O_39 
ROOT
HETATM    1  C   UNL     1       8.523  30.218  57.820  1.00  0.00     0.142 C 
ENDROOT
BRANCH   1   2
HETATM    2  C   UNL     1       8.015  28.790  57.593  1.00  0.00     0.151 C 
BRANCH   2   3
HETATM    3  N   UNL     1       7.964  28.389  56.181  1.00  0.00    -0.291 N 
HETATM    4  C   UNL     1       8.894  28.880  55.288  1.00  0.00     0.366 C 
HETATM    5  O   UNL     1       8.428  28.736  54.010  1.00  0.00    -0.287 OA
HETATM    6  O   UNL     1       9.968  29.390  55.555  1.00  0.00    -0.238 OA
HETATM    7  C   UNL     1       7.255  27.868  54.030  1.00  0.00     0.126 C 
HETATM    8  C   UNL     1       6.396  28.313  52.837  1.00  0.00     0.082 C 
HETATM    9  C   UNL     1       6.736  28.147  55.470  1.00  0.00     0.166 C 
HETATM   10  C   UNL     1       7.817  26.446  53.777  1.00  0.00     0.082 C 
HETATM   11  C   UNL     1       5.335  27.320  52.348  1.00  0.00     0.122 C 
HETATM   12  N   UNL     1       5.983  25.974  52.135  1.00  0.00    -0.059 N 
HETATM   13  C   UNL     1       4.828  27.768  50.960  1.00  0.00     0.046 C 
HETATM   14  C   UNL     1       4.110  27.188  53.252  1.00  0.00     0.046 C 
HETATM   15  C   UNL     1       6.878  25.376  53.196  1.00  0.00     0.122 C 
HETATM   16  H   UNL     1       6.547  26.046  51.273  1.00  0.00     0.279 HD
HETATM   17  H   UNL     1       5.254  25.285  51.894  1.00  0.00     0.279 HD
HETATM   18  C   UNL     1       7.742  24.319  52.464  1.00  0.00     0.046 C 
HETATM   19  C   UNL     1       6.034  24.608  54.218  1.00  0.00     0.046 C 
HETATM   20  C   UNL     1       5.784  29.344  55.593  1.00  0.00     0.074 C 
BRANCH   9  21
HETATM   21  O   UNL     1       6.128  26.994  56.006  1.00  0.00    -0.368 OA
HETATM   22  H   UNL     1       5.320  27.274  56.470  1.00  0.00     0.212 HD
ENDBRANCH   9  21
ENDBRANCH   2   3
ENDBRANCH   1   2
BRANCH   1  23
HETATM   23  N   UNL     1       8.920  30.490  59.186  1.00  0.00    -0.359 N 
HETATM   24  C   UNL     1       9.688  31.585  59.500  1.00  0.00     0.217 C 
HETATM   25  O   UNL     1      10.125  32.346  58.638  1.00  0.00    -0.274 OA
HETATM   26  H   UNL     1       8.564  29.881  59.921  1.00  0.00     0.162 HD
BRANCH  24  27
HETATM   27  C   UNL     1       9.858  31.906  60.973  1.00  0.00     0.107 C 
BRANCH  27  28
HETATM   28  C   UNL     1       8.875  31.261  61.944  1.00  0.00     0.048 C 
BRANCH  28  29
HETATM   29  C   UNL     1       7.553  31.967  62.140  1.00  0.00    -0.057 A 
HETATM   30  C   UNL     1       7.248  32.646  63.324  1.00  0.00     0.018 A 
HETATM   31  C   UNL     1       6.057  33.385  63.491  1.00  0.00    -0.016 A 
HETATM   32  C   UNL     1       5.199  33.445  62.368  1.00  0.00     0.079 A 
HETATM   33  C   UNL     1       5.470  32.796  61.137  1.00  0.00    -0.016 A 
HETATM   34  C   UNL     1       6.659  32.050  61.066  1.00  0.00     0.018 A 
BRANCH  31  35
HETATM   35  C   UNL     1       5.841  34.166  64.815  1.00  0.00    -0.021 C 
HETATM   36  C   UNL     1       7.056  33.895  65.727  1.00  0.00     0.019 C 
HETATM   37  C   UNL     1       5.687  35.698  64.667  1.00  0.00     0.019 C 
HETATM   38  C   UNL     1       4.559  33.705  65.560  1.00  0.00     0.019 C 
ENDBRANCH  31  35
BRANCH  32  39
HETATM   39  O   UNL     1       4.062  34.197  62.434  1.00  0.00    -0.360 OA
HETATM   40  H   UNL     1       3.711  34.220  61.529  1.00  0.00     0.217 HD
ENDBRANCH  32  39
BRANCH  33  41
HETATM   41  C   UNL     1       4.546  32.923  59.900  1.00  0.00    -0.021 C 
HETATM   42  C   UNL     1       5.188  32.220  58.683  1.00  0.00     0.019 C 
HETATM   43  C   UNL     1       3.152  32.266  60.093  1.00  0.00     0.019 C 
HETATM   44  C   UNL     1       4.268  34.406  59.567  1.00  0.00     0.019 C 
ENDBRANCH  33  41
ENDBRANCH  28  29
ENDBRANCH  27  28
ENDBRANCH  24  27
ENDBRANCH   1  23
TORSDOF 10
ENDMDL
MODEL 2
REMARK VINA RESULT:     -10.0      6.862     10.628
REMARK  10 active torsions:
REMARK  status: ('A' for Active; 'I' for Inactive)
REMARK    1  A    between atoms: N_15  and  C_16 
REMARK    2  A    between atoms: C_16  and  C_17 
REMARK    3  A    between atoms: C_17  and  N_18 
REMARK       I    between atoms: N_18  and  C_19 
REMARK    4  A    between atoms: C_19  and  C_20 
REMARK    5  A    between atoms: C_20  and  C_21 
REMARK    6  A    between atoms: C_21  and  C_22 
REMARK    7  A    between atoms: C_24  and  C_25 
REMARK    8  A    between atoms: C_29  and  O_30 
REMARK    9  A    between atoms: C_31  and  C_32 
REMARK   10  A    between atoms: C_38  and  O_39 
ROOT
HETATM    1  C   UNL     1       4.811  26.868  47.596  1.00  0.00     0.142 C 
ENDROOT
BRANCH   1   2
HETATM    2  C   UNL     1       3.633  27.805  47.306  1.00  0.00     0.151 C 
BRANCH   2   3
HETATM    3  N   UNL     1       3.004  28.367  48.509  1.00  0.00    -0.291 N 
HETATM    4  C   UNL     1       1.707  28.027  48.834  1.00  0.00     0.366 C 
HETATM    5  O   UNL     1       1.191  28.950  49.701  1.00  0.00    -0.287 OA
HETATM    6  O   UNL     1       1.073  27.071  48.419  1.00  0.00    -0.238 OA
HETATM    7  C   UNL     1       2.275  29.797  50.188  1.00  0.00     0.126 C 
HETATM    8  C   UNL     1       1.625  31.153  50.505  1.00  0.00     0.082 C 
HETATM    9  C   UNL     1       3.256  29.701  48.986  1.00  0.00     0.166 C 
HETATM   10  C   UNL     1       2.744  29.116  51.499  1.00  0.00     0.082 C 
HETATM   11  C   UNL     1       2.411  32.091  51.429  1.00  0.00     0.122 C 
HETATM   12  N   UNL     1       2.819  31.332  52.668  1.00  0.00    -0.059 N 
HETATM   13  C   UNL     1       1.476  33.219  51.914  1.00  0.00     0.046 C 
HETATM   14  C   UNL     1       3.626  32.760  50.786  1.00  0.00     0.046 C 
HETATM   15  C   UNL     1       3.464  29.970  52.557  1.00  0.00     0.122 C 
HETATM   16  H   UNL     1       1.969  31.216  53.241  1.00  0.00     0.279 HD
HETATM   17  H   UNL     1       3.424  31.935  53.246  1.00  0.00     0.279 HD
HETATM   18  C   UNL     1       3.262  29.301  53.939  1.00  0.00     0.046 C 
HETATM   19  C   UNL     1       4.976  30.121  52.369  1.00  0.00     0.046 C 
HETATM   20  C   UNL     1       3.022  30.735  47.876  1.00  0.00     0.074 C 
BRANCH   9  21
HETATM   21  O   UNL     1       4.591  29.772  49.432  1.00  0.00    -0.368 OA
HETATM   22  H   UNL     1       4.895  28.863  49.602  1.00  0.00     0.212 HD
ENDBRANCH   9  21
ENDBRANCH   2   3
ENDBRANCH   1   2
BRANCH   1  23
HETATM   23  N   UNL     1       5.384  27.036  48.916  1.00  0.00    -0.359 N 
HETATM   24  C   UNL     1       4.963  26.274  49.978  1.00  0.00     0.217 C 
HETATM   25  O   UNL     1       4.043  25.463  49.877  1.00  0.00    -0.274 OA
HETATM   26  H   UNL     1       6.155  27.693  49.026  1.00  0.00     0.162 HD
BRANCH  24  27
HETATM   27  C   UNL     1       5.776  26.365  51.255  1.00  0.00     0.107 C 
BRANCH  27  28
HETATM   28  C   UNL     1       6.843  25.297  51.478  1.00  0.00     0.048 C 
BRANCH  28  29
HETATM   29  C   UNL     1       6.901  24.675  52.854  1.00  0.00    -0.057 A 
HETATM   30  C   UNL     1       7.428  23.395  53.063  1.00  0.00     0.018 A 
HETATM   31  C   UNL     1       7.573  22.834  54.350  1.00  0.00    -0.016 A 
HETATM   32  C   UNL     1       7.198  23.660  55.435  1.00  0.00     0.079 A 
HETATM   33  C   UNL     1       6.680  24.971  55.282  1.00  0.00    -0.016 A 
HETATM   34  C   UNL     1       6.533  25.441  53.965  1.00  0.00     0.018 A 
BRANCH  31  35
HETATM   35  C   UNL     1       8.237  21.438  54.486  1.00  0.00    -0.021 C 
HETATM   36  C   UNL     1       9.714  21.653  54.876  1.00  0.00     0.019 C 
HETATM   37  C   UNL     1       7.598  20.496  55.533  1.00  0.00     0.019 C 
HETATM   38  C   UNL     1       8.196  20.641  53.154  1.00  0.00     0.019 C 
ENDBRANCH  31  35
BRANCH  32  39
HETATM   39  O   UNL     1       7.373  23.208  56.712  1.00  0.00    -0.360 OA
HETATM   40  H   UNL     1       8.116  22.584  56.666  1.00  0.00     0.217 HD
ENDBRANCH  32  39
BRANCH  33  41
HETATM   41  C   UNL     1       6.331  25.881  56.486  1.00  0.00    -0.021 C 
HETATM   42  C   UNL     1       5.053  25.368  57.186  1.00  0.00     0.019 C 
HETATM   43  C   UNL     1       7.434  25.921  57.578  1.00  0.00     0.019 C 
HETATM   44  C   UNL     1       6.135  27.346  56.035  1.00  0.00     0.019 C 
ENDBRANCH  33  41
ENDBRANCH  28  29
ENDBRANCH  27  28
ENDBRANCH  24  27
ENDBRANCH   1  23
TORSDOF 10
ENDMDL
MODEL 3
REMARK VINA RESULT:      -9.9      0.216      2.939
REMARK  10 active torsions:
REMARK  status: ('A' for Active; 'I' for Inactive)
REMARK    1  A    between atoms: N_15  and  C_16 
REMARK    2  A    between atoms: C_16  and  C_17 
REMARK    3  A    between atoms: C_17  and  N_18 
REMARK       I    between atoms: N_18  and  C_19 
REMARK    4  A    between atoms: C_19  and  C_20 
REMARK    5  A    between atoms: C_20  and  C_21 
REMARK    6  A    between atoms: C_21  and  C_22 
REMARK    7  A    between atoms: C_24  and  C_25 
REMARK    8  A    between atoms: C_29  and  O_30 
REMARK    9  A    between atoms: C_31  and  C_32 
REMARK   10  A    between atoms: C_38  and  O_39 
ROOT
HETATM    1  C   UNL     1       8.374  30.203  57.928  1.00  0.00     0.142 C 
ENDROOT
BRANCH   1   2
HETATM    2  C   UNL     1       7.985  28.743  57.663  1.00  0.00     0.151 C 
BRANCH   2   3
HETATM    3  N   UNL     1       7.942  28.383  56.240  1.00  0.00    -0.291 N 
HETATM    4  C   UNL     1       8.877  28.900  55.367  1.00  0.00     0.366 C 
HETATM    5  O   UNL     1       8.418  28.793  54.083  1.00  0.00    -0.287 OA
HETATM    6  O   UNL     1       9.949  29.404  55.655  1.00  0.00    -0.238 OA
HETATM    7  C   UNL     1       7.247  27.924  54.072  1.00  0.00     0.126 C 
HETATM    8  C   UNL     1       6.394  28.401  52.886  1.00  0.00     0.082 C 
HETATM    9  C   UNL     1       6.719  28.160  55.515  1.00  0.00     0.166 C 
HETATM   10  C   UNL     1       7.811  26.510  53.781  1.00  0.00     0.082 C 
HETATM   11  C   UNL     1       5.337  27.422  52.363  1.00  0.00     0.122 C 
HETATM   12  N   UNL     1       5.988  26.083  52.115  1.00  0.00    -0.059 N 
HETATM   13  C   UNL     1       4.837  27.909  50.986  1.00  0.00     0.046 C 
HETATM   14  C   UNL     1       4.107  27.263  53.256  1.00  0.00     0.046 C 
HETATM   15  C   UNL     1       6.877  25.456  53.164  1.00  0.00     0.122 C 
HETATM   16  H   UNL     1       6.556  26.181  51.259  1.00  0.00     0.279 HD
HETATM   17  H   UNL     1       5.261  25.401  51.851  1.00  0.00     0.279 HD
HETATM   18  C   UNL     1       7.747  24.422  52.407  1.00  0.00     0.046 C 
HETATM   19  C   UNL     1       6.028  24.658  54.159  1.00  0.00     0.046 C 
HETATM   20  C   UNL     1       5.764  29.352  55.667  1.00  0.00     0.074 C 
BRANCH   9  21
HETATM   21  O   UNL     1       6.109  26.992  56.015  1.00  0.00    -0.368 OA
HETATM   22  H   UNL     1       5.862  27.159  56.941  1.00  0.00     0.212 HD
ENDBRANCH   9  21
ENDBRANCH   2   3
ENDBRANCH   1   2
BRANCH   1  23
HETATM   23  N   UNL     1       8.885  30.441  59.263  1.00  0.00    -0.359 N 
HETATM   24  C   UNL     1       9.627  31.561  59.552  1.00  0.00     0.217 C 
HETATM   25  O   UNL     1       9.945  32.376  58.687  1.00  0.00    -0.274 OA
HETATM   26  H   UNL     1       8.629  29.787  60.000  1.00  0.00     0.162 HD
BRANCH  24  27
HETATM   27  C   UNL     1       9.919  31.833  61.015  1.00  0.00     0.107 C 
BRANCH  27  28
HETATM   28  C   UNL     1       8.847  31.437  62.025  1.00  0.00     0.048 C 
BRANCH  28  29
HETATM   29  C   UNL     1       7.628  32.327  62.103  1.00  0.00    -0.057 A 
HETATM   30  C   UNL     1       6.737  32.454  61.032  1.00  0.00     0.018 A 
HETATM   31  C   UNL     1       5.548  33.209  61.118  1.00  0.00    -0.016 A 
HETATM   32  C   UNL     1       5.275  33.800  62.374  1.00  0.00     0.079 A 
HETATM   33  C   UNL     1       6.132  33.686  63.498  1.00  0.00    -0.016 A 
HETATM   34  C   UNL     1       7.314  32.947  63.317  1.00  0.00     0.018 A 
BRANCH  31  35
HETATM   35  C   UNL     1       4.585  33.229  59.901  1.00  0.00    -0.021 C 
HETATM   36  C   UNL     1       3.381  32.325  60.236  1.00  0.00     0.019 C 
HETATM   37  C   UNL     1       4.042  34.622  59.505  1.00  0.00     0.019 C 
HETATM   38  C   UNL     1       5.261  32.683  58.614  1.00  0.00     0.019 C 
ENDBRANCH  31  35
BRANCH  32  39
HETATM   39  O   UNL     1       4.110  34.490  62.550  1.00  0.00    -0.360 OA
HETATM   40  H   UNL     1       3.442  34.008  62.035  1.00  0.00     0.217 HD
ENDBRANCH  32  39
BRANCH  33  41
HETATM   41  C   UNL     1       5.785  34.292  64.882  1.00  0.00    -0.021 C 
HETATM   42  C   UNL     1       5.588  35.819  64.758  1.00  0.00     0.019 C 
HETATM   43  C   UNL     1       4.472  33.735  65.494  1.00  0.00     0.019 C 
HETATM   44  C   UNL     1       6.893  33.983  65.914  1.00  0.00     0.019 C 
ENDBRANCH  33  41
ENDBRANCH  28  29
ENDBRANCH  27  28
ENDBRANCH  24  27
ENDBRANCH   1  23
TORSDOF 10
ENDMDL
MODEL 4
REMARK VINA RESULT:      -9.8      1.707      2.319
REMARK  10 active torsions:
REMARK  status: ('A' for Active; 'I' for Inactive)
REMARK    1  A    between atoms: N_15  and  C_16 
REMARK    2  A    between atoms: C_16  and  C_17 
REMARK    3  A    between atoms: C_17  and  N_18 
REMARK       I    between atoms: N_18  and  C_19 
REMARK    4  A    between atoms: C_19  and  C_20 
REMARK    5  A    between atoms: C_20  and  C_21 
REMARK    6  A    between atoms: C_21  and  C_22 
REMARK    7  A    between atoms: C_24  and  C_25 
REMARK    8  A    between atoms: C_29  and  O_30 
REMARK    9  A    between atoms: C_31  and  C_32 
REMARK   10  A    between atoms: C_38  and  O_39 
ROOT
HETATM    1  C   UNL     1       8.535  30.271  59.226  1.00  0.00     0.142 C 
ENDROOT
BRANCH   1   2
HETATM    2  C   UNL     1       7.537  30.483  58.082  1.00  0.00     0.151 C 
BRANCH   2   3
HETATM    3  N   UNL     1       7.649  29.498  56.998  1.00  0.00    -0.291 N 
HETATM    4  C   UNL     1       8.787  29.455  56.218  1.00  0.00     0.366 C 
HETATM    5  O   UNL     1       8.520  28.794  55.050  1.00  0.00    -0.287 OA
HETATM    6  O   UNL     1       9.875  29.936  56.482  1.00  0.00    -0.238 OA
HETATM    7  C   UNL     1       7.226  28.133  55.167  1.00  0.00     0.126 C 
HETATM    8  C   UNL     1       6.668  28.067  53.737  1.00  0.00     0.082 C 
HETATM    9  C   UNL     1       6.533  29.069  56.197  1.00  0.00     0.166 C 
HETATM   10  C   UNL     1       7.560  26.705  55.670  1.00  0.00     0.082 C 
HETATM   11  C   UNL     1       5.544  27.056  53.484  1.00  0.00     0.122 C 
HETATM   12  N   UNL     1       5.970  25.707  54.010  1.00  0.00    -0.059 N 
HETATM   13  C   UNL     1       5.360  26.876  51.962  1.00  0.00     0.046 C 
HETATM   14  C   UNL     1       4.182  27.449  54.057  1.00  0.00     0.046 C 
HETATM   15  C   UNL     1       6.556  25.573  55.396  1.00  0.00     0.122 C 
HETATM   16  H   UNL     1       6.671  25.337  53.350  1.00  0.00     0.279 HD
HETATM   17  H   UNL     1       5.180  25.049  53.922  1.00  0.00     0.279 HD
HETATM   18  C   UNL     1       7.329  24.231  55.392  1.00  0.00     0.046 C 
HETATM   19  C   UNL     1       5.433  25.420  56.426  1.00  0.00     0.046 C 
HETATM   20  C   UNL     1       5.801  30.272  55.587  1.00  0.00     0.074 C 
BRANCH   9  21
HETATM   21  O   UNL     1       5.651  28.336  57.015  1.00  0.00    -0.368 OA
HETATM   22  H   UNL     1       5.981  28.388  57.929  1.00  0.00     0.212 HD
ENDBRANCH   9  21
ENDBRANCH   2   3
ENDBRANCH   1   2
BRANCH   1  23
HETATM   23  N   UNL     1       7.965  30.461  60.545  1.00  0.00    -0.359 N 
HETATM   24  C   UNL     1       8.744  30.850  61.608  1.00  0.00     0.217 C 
HETATM   25  O   UNL     1       9.962  30.993  61.508  1.00  0.00    -0.274 OA
HETATM   26  H   UNL     1       6.958  30.359  60.653  1.00  0.00     0.162 HD
BRANCH  24  27
HETATM   27  C   UNL     1       8.021  31.240  62.883  1.00  0.00     0.107 C 
BRANCH  27  28
HETATM   28  C   UNL     1       8.113  32.700  63.317  1.00  0.00     0.048 C 
BRANCH  28  29
HETATM   29  C   UNL     1       6.838  33.342  63.809  1.00  0.00    -0.057 A 
HETATM   30  C   UNL     1       6.640  33.651  65.160  1.00  0.00     0.018 A 
HETATM   31  C   UNL     1       5.494  34.331  65.624  1.00  0.00    -0.016 A 
HETATM   32  C   UNL     1       4.566  34.733  64.635  1.00  0.00     0.079 A 
HETATM   33  C   UNL     1       4.727  34.468  63.253  1.00  0.00    -0.016 A 
HETATM   34  C   UNL     1       5.877  33.753  62.878  1.00  0.00     0.018 A 
BRANCH  31  35
HETATM   35  C   UNL     1       5.399  34.693  67.130  1.00  0.00    -0.021 C 
HETATM   36  C   UNL     1       6.772  34.405  67.773  1.00  0.00     0.019 C 
HETATM   37  C   UNL     1       5.026  36.163  67.439  1.00  0.00     0.019 C 
HETATM   38  C   UNL     1       4.328  33.846  67.868  1.00  0.00     0.019 C 
ENDBRANCH  31  35
BRANCH  32  39
HETATM   39  O   UNL     1       3.466  35.455  65.005  1.00  0.00    -0.360 OA
HETATM   40  H   UNL     1       3.055  34.951  65.726  1.00  0.00     0.217 HD
ENDBRANCH  32  39
BRANCH  33  41
HETATM   41  C   UNL     1       3.727  34.969  62.180  1.00  0.00    -0.021 C 
HETATM   42  C   UNL     1       2.386  34.214  62.310  1.00  0.00     0.019 C 
HETATM   43  C   UNL     1       3.386  36.479  62.303  1.00  0.00     0.019 C 
HETATM   44  C   UNL     1       4.302  34.784  60.758  1.00  0.00     0.019 C 
ENDBRANCH  33  41
ENDBRANCH  28  29
ENDBRANCH  27  28
ENDBRANCH  24  27
ENDBRANCH   1  23
TORSDOF 10
ENDMDL
MODEL 5
REMARK VINA RESULT:      -9.8      1.532      3.497
REMARK  10 active torsions:
REMARK  status: ('A' for Active; 'I' for Inactive)
REMARK    1  A    between atoms: N_15  and  C_16 
REMARK    2  A    between atoms: C_16  and  C_17 
REMARK    3  A    between atoms: C_17  and  N_18 
REMARK       I    between atoms: N_18  and  C_19 
REMARK    4  A    between atoms: C_19  and  C_20 
REMARK    5  A    between atoms: C_20  and  C_21 
REMARK    6  A    between atoms: C_21  and  C_22 
REMARK    7  A    between atoms: C_24  and  C_25 
REMARK    8  A    between atoms: C_29  and  O_30 
REMARK    9  A    between atoms: C_31  and  C_32 
REMARK   10  A    between atoms: C_38  and  O_39 
ROOT
HETATM    1  C   UNL     1       8.086  30.082  59.228  1.00  0.00     0.142 C 
ENDROOT
BRANCH   1   2
HETATM    2  C   UNL     1       7.384  30.431  57.911  1.00  0.00     0.151 C 
BRANCH   2   3
HETATM    3  N   UNL     1       7.570  29.434  56.849  1.00  0.00    -0.291 N 
HETATM    4  C   UNL     1       8.744  29.407  56.124  1.00  0.00     0.366 C 
HETATM    5  O   UNL     1       8.548  28.723  54.955  1.00  0.00    -0.287 OA
HETATM    6  O   UNL     1       9.807  29.918  56.430  1.00  0.00    -0.238 OA
HETATM    7  C   UNL     1       7.265  28.033  55.021  1.00  0.00     0.126 C 
HETATM    8  C   UNL     1       6.777  27.933  53.568  1.00  0.00     0.082 C 
HETATM    9  C   UNL     1       6.503  28.967  56.003  1.00  0.00     0.166 C 
HETATM   10  C   UNL     1       7.609  26.621  55.561  1.00  0.00     0.082 C 
HETATM   11  C   UNL     1       5.690  26.892  53.279  1.00  0.00     0.122 C 
HETATM   12  N   UNL     1       6.122  25.561  53.845  1.00  0.00    -0.059 N 
HETATM   13  C   UNL     1       5.583  26.686  51.752  1.00  0.00     0.046 C 
HETATM   14  C   UNL     1       4.294  27.260  53.781  1.00  0.00     0.046 C 
HETATM   15  C   UNL     1       6.645  25.461  55.259  1.00  0.00     0.122 C 
HETATM   16  H   UNL     1       6.862  25.198  53.224  1.00  0.00     0.279 HD
HETATM   17  H   UNL     1       5.353  24.883  53.731  1.00  0.00     0.279 HD
HETATM   18  C   UNL     1       7.448  24.138  55.312  1.00  0.00     0.046 C 
HETATM   19  C   UNL     1       5.478  25.296  56.237  1.00  0.00     0.046 C 
HETATM   20  C   UNL     1       5.772  30.143  55.341  1.00  0.00     0.074 C 
BRANCH   9  21
HETATM   21  O   UNL     1       5.600  28.225  56.791  1.00  0.00    -0.368 OA
HETATM   22  H   UNL     1       4.742  28.683  56.769  1.00  0.00     0.212 HD
ENDBRANCH   9  21
ENDBRANCH   2   3
ENDBRANCH   1   2
BRANCH   1  23
HETATM   23  N   UNL     1       8.029  31.135  60.221  1.00  0.00    -0.359 N 
HETATM   24  C   UNL     1       8.714  31.034  61.407  1.00  0.00     0.217 C 
HETATM   25  O   UNL     1       9.352  30.025  61.710  1.00  0.00    -0.274 OA
HETATM   26  H   UNL     1       7.517  31.985  59.992  1.00  0.00     0.162 HD
BRANCH  24  27
HETATM   27  C   UNL     1       8.776  32.276  62.275  1.00  0.00     0.107 C 
BRANCH  27  28
HETATM   28  C   UNL     1       7.911  32.292  63.531  1.00  0.00     0.048 C 
BRANCH  28  29
HETATM   29  C   UNL     1       6.764  33.277  63.551  1.00  0.00    -0.057 A 
HETATM   30  C   UNL     1       6.013  33.559  62.404  1.00  0.00     0.018 A 
HETATM   31  C   UNL     1       4.885  34.406  62.424  1.00  0.00    -0.016 A 
HETATM   32  C   UNL     1       4.518  34.924  63.688  1.00  0.00     0.079 A 
HETATM   33  C   UNL     1       5.229  34.653  64.884  1.00  0.00    -0.016 A 
HETATM   34  C   UNL     1       6.362  33.830  64.772  1.00  0.00     0.018 A 
BRANCH  31  35
HETATM   35  C   UNL     1       4.072  34.599  61.116  1.00  0.00    -0.021 C 
HETATM   36  C   UNL     1       4.711  33.712  60.028  1.00  0.00     0.019 C 
HETATM   37  C   UNL     1       2.570  34.240  61.206  1.00  0.00     0.019 C 
HETATM   38  C   UNL     1       4.101  36.072  60.624  1.00  0.00     0.019 C 
ENDBRANCH  31  35
BRANCH  32  39
HETATM   39  O   UNL     1       3.397  35.698  63.794  1.00  0.00    -0.360 OA
HETATM   40  H   UNL     1       2.713  35.115  64.164  1.00  0.00     0.217 HD
ENDBRANCH  32  39
BRANCH  33  41
HETATM   41  C   UNL     1       4.775  35.183  66.268  1.00  0.00    -0.021 C 
HETATM   42  C   UNL     1       5.692  34.623  67.378  1.00  0.00     0.019 C 
HETATM   43  C   UNL     1       4.838  36.729  66.395  1.00  0.00     0.019 C 
HETATM   44  C   UNL     1       3.306  34.799  66.553  1.00  0.00     0.019 C 
ENDBRANCH  33  41
ENDBRANCH  28  29
ENDBRANCH  27  28
ENDBRANCH  24  27
ENDBRANCH   1  23
TORSDOF 10
ENDMDL
MODEL 6
REMARK VINA RESULT:      -9.7      6.785     10.482
REMARK  10 active torsions:
REMARK  status: ('A' for Active; 'I' for Inactive)
REMARK    1  A    between atoms: N_15  and  C_16 
REMARK    2  A    between atoms: C_16  and  C_17 
REMARK    3  A    between atoms: C_17  and  N_18 
REMARK       I    between atoms: N_18  and  C_19 
REMARK    4  A    between atoms: C_19  and  C_20 
REMARK    5  A    between atoms: C_20  and  C_21 
REMARK    6  A    between atoms: C_21  and  C_22 
REMARK    7  A    between atoms: C_24  and  C_25 
REMARK    8  A    between atoms: C_29  and  O_30 
REMARK    9  A    between atoms: C_31  and  C_32 
REMARK   10  A    between atoms: C_38  and  O_39 
ROOT
HETATM    1  C   UNL     1       5.000  27.151  47.650  1.00  0.00     0.142 C 
ENDROOT
BRANCH   1   2
HETATM    2  C   UNL     1       3.767  27.999  47.317  1.00  0.00     0.151 C 
BRANCH   2   3
HETATM    3  N   UNL     1       3.091  28.562  48.493  1.00  0.00    -0.291 N 
HETATM    4  C   UNL     1       1.830  28.126  48.842  1.00  0.00     0.366 C 
HETATM    5  O   UNL     1       1.235  29.043  49.664  1.00  0.00    -0.287 OA
HETATM    6  O   UNL     1       1.283  27.099  48.478  1.00  0.00    -0.238 OA
HETATM    7  C   UNL     1       2.240  30.005  50.103  1.00  0.00     0.126 C 
HETATM    8  C   UNL     1       1.474  31.312  50.356  1.00  0.00     0.082 C 
HETATM    9  C   UNL     1       3.225  29.936  48.902  1.00  0.00     0.166 C 
HETATM   10  C   UNL     1       2.768  29.434  51.444  1.00  0.00     0.082 C 
HETATM   11  C   UNL     1       2.174  32.361  51.227  1.00  0.00     0.122 C 
HETATM   12  N   UNL     1       2.648  31.704  52.500  1.00  0.00    -0.059 N 
HETATM   13  C   UNL     1       1.143  33.425  51.661  1.00  0.00     0.046 C 
HETATM   14  C   UNL     1       3.325  33.102  50.546  1.00  0.00     0.046 C 
HETATM   15  C   UNL     1       3.411  30.400  52.454  1.00  0.00     0.122 C 
HETATM   16  H   UNL     1       1.812  31.542  53.083  1.00  0.00     0.279 HD
HETATM   17  H   UNL     1       3.198  32.386  53.045  1.00  0.00     0.279 HD
HETATM   18  C   UNL     1       3.269  29.786  53.869  1.00  0.00     0.046 C 
HETATM   19  C   UNL     1       4.904  30.675  52.252  1.00  0.00     0.046 C 
HETATM   20  C   UNL     1       2.900  30.889  47.744  1.00  0.00     0.074 C 
BRANCH   9  21
HETATM   21  O   UNL     1       4.549  30.146  49.337  1.00  0.00    -0.368 OA
HETATM   22  H   UNL     1       4.932  29.278  49.551  1.00  0.00     0.212 HD
ENDBRANCH   9  21
ENDBRANCH   2   3
ENDBRANCH   1   2
BRANCH   1  23
HETATM   23  N   UNL     1       5.333  27.127  49.060  1.00  0.00    -0.359 N 
HETATM   24  C   UNL     1       4.785  26.193  49.905  1.00  0.00     0.217 C 
HETATM   25  O   UNL     1       3.945  25.379  49.524  1.00  0.00    -0.274 OA
HETATM   26  H   UNL     1       6.033  27.783  49.400  1.00  0.00     0.162 HD
BRANCH  24  27
HETATM   27  C   UNL     1       5.366  26.106  51.303  1.00  0.00     0.107 C 
BRANCH  27  28
HETATM   28  C   UNL     1       6.687  25.361  51.464  1.00  0.00     0.048 C 
BRANCH  28  29
HETATM   29  C   UNL     1       7.024  24.872  52.853  1.00  0.00    -0.057 A 
HETATM   30  C   UNL     1       6.706  25.615  53.995  1.00  0.00     0.018 A 
HETATM   31  C   UNL     1       6.932  25.135  55.303  1.00  0.00    -0.016 A 
HETATM   32  C   UNL     1       7.460  23.825  55.402  1.00  0.00     0.079 A 
HETATM   33  C   UNL     1       7.779  23.020  54.280  1.00  0.00    -0.016 A 
HETATM   34  C   UNL     1       7.558  23.588  53.013  1.00  0.00     0.018 A 
BRANCH  31  35
HETATM   35  C   UNL     1       6.478  26.002  56.507  1.00  0.00    -0.021 C 
HETATM   36  C   UNL     1       5.179  25.386  57.068  1.00  0.00     0.019 C 
HETATM   37  C   UNL     1       7.494  26.114  57.668  1.00  0.00     0.019 C 
HETATM   38  C   UNL     1       6.182  27.468  56.091  1.00  0.00     0.019 C 
ENDBRANCH  31  35
BRANCH  32  39
HETATM   39  O   UNL     1       7.642  23.270  56.636  1.00  0.00    -0.360 OA
HETATM   40  H   UNL     1       7.586  22.310  56.500  1.00  0.00     0.217 HD
ENDBRANCH  32  39
BRANCH  33  41
HETATM   41  C   UNL     1       8.300  21.567  54.411  1.00  0.00    -0.021 C 
HETATM   42  C   UNL     1       9.768  21.571  54.892  1.00  0.00     0.019 C 
HETATM   43  C   UNL     1       7.511  20.713  55.441  1.00  0.00     0.019 C 
HETATM   44  C   UNL     1       8.185  20.814  53.067  1.00  0.00     0.019 C 
ENDBRANCH  33  41
ENDBRANCH  28  29
ENDBRANCH  27  28
ENDBRANCH  24  27
ENDBRANCH   1  23
TORSDOF 10
ENDMDL
MODEL 7
REMARK VINA RESULT:      -9.7      6.771     11.146
REMARK  10 active torsions:
REMARK  status: ('A' for Active; 'I' for Inactive)
REMARK    1  A    between atoms: N_15  and  C_16 
REMARK    2  A    between atoms: C_16  and  C_17 
REMARK    3  A    between atoms: C_17  and  N_18 
REMARK       I    between atoms: N_18  and  C_19 
REMARK    4  A    between atoms: C_19  and  C_20 
REMARK    5  A    between atoms: C_20  and  C_21 
REMARK    6  A    between atoms: C_21  and  C_22 
REMARK    7  A    between atoms: C_24  and  C_25 
REMARK    8  A    between atoms: C_29  and  O_30 
REMARK    9  A    between atoms: C_31  and  C_32 
REMARK   10  A    between atoms: C_38  and  O_39 
ROOT
HETATM    1  C   UNL     1       5.575  28.465  48.517  1.00  0.00     0.142 C 
ENDROOT
BRANCH   1   2
HETATM    2  C   UNL     1       4.549  29.604  48.488  1.00  0.00     0.151 C 
BRANCH   2   3
HETATM    3  N   UNL     1       5.124  30.935  48.724  1.00  0.00    -0.291 N 
HETATM    4  C   UNL     1       5.581  31.278  49.980  1.00  0.00     0.366 C 
HETATM    5  O   UNL     1       5.668  32.640  50.083  1.00  0.00    -0.287 OA
HETATM    6  O   UNL     1       5.855  30.519  50.893  1.00  0.00    -0.238 OA
HETATM    7  C   UNL     1       5.522  33.224  48.754  1.00  0.00     0.126 C 
HETATM    8  C   UNL     1       4.909  34.614  48.983  1.00  0.00     0.082 C 
HETATM    9  C   UNL     1       4.657  32.128  48.069  1.00  0.00     0.166 C 
HETATM   10  C   UNL     1       6.974  33.365  48.228  1.00  0.00     0.082 C 
HETATM   11  C   UNL     1       5.043  35.619  47.833  1.00  0.00     0.122 C 
HETATM   12  N   UNL     1       6.486  35.679  47.397  1.00  0.00    -0.059 N 
HETATM   13  C   UNL     1       4.701  37.031  48.357  1.00  0.00     0.046 C 
HETATM   14  C   UNL     1       4.131  35.353  46.635  1.00  0.00     0.046 C 
HETATM   15  C   UNL     1       7.263  34.410  47.137  1.00  0.00     0.122 C 
HETATM   16  H   UNL     1       6.997  36.200  48.127  1.00  0.00     0.279 HD
HETATM   17  H   UNL     1       6.560  36.286  46.567  1.00  0.00     0.279 HD
HETATM   18  C   UNL     1       8.756  34.809  47.233  1.00  0.00     0.046 C 
HETATM   19  C   UNL     1       7.034  33.944  45.696  1.00  0.00     0.046 C 
HETATM   20  C   UNL     1       3.142  32.296  48.249  1.00  0.00     0.074 C 
BRANCH   9  21
HETATM   21  O   UNL     1       4.970  32.038  46.698  1.00  0.00    -0.368 OA
HETATM   22  H   UNL     1       5.768  32.571  46.541  1.00  0.00     0.212 HD
ENDBRANCH   9  21
ENDBRANCH   2   3
ENDBRANCH   1   2
BRANCH   1  23
HETATM   23  N   UNL     1       5.539  27.674  49.731  1.00  0.00    -0.359 N 
HETATM   24  C   UNL     1       4.803  26.517  49.805  1.00  0.00     0.217 C 
HETATM   25  O   UNL     1       4.094  26.132  48.876  1.00  0.00    -0.274 OA
HETATM   26  H   UNL     1       6.125  27.964  50.512  1.00  0.00     0.162 HD
BRANCH  24  27
HETATM   27  C   UNL     1       5.011  25.648  51.031  1.00  0.00     0.107 C 
BRANCH  27  28
HETATM   28  C   UNL     1       6.439  25.499  51.545  1.00  0.00     0.048 C 
BRANCH  28  29
HETATM   29  C   UNL     1       6.607  24.849  52.899  1.00  0.00    -0.057 A 
HETATM   30  C   UNL     1       7.201  23.590  53.044  1.00  0.00     0.018 A 
HETATM   31  C   UNL     1       7.448  23.007  54.305  1.00  0.00    -0.016 A 
HETATM   32  C   UNL     1       7.104  23.791  55.432  1.00  0.00     0.079 A 
HETATM   33  C   UNL     1       6.521  25.080  55.342  1.00  0.00    -0.016 A 
HETATM   34  C   UNL     1       6.275  25.573  54.049  1.00  0.00     0.018 A 
BRANCH  31  35
HETATM   35  C   UNL     1       8.179  21.639  54.367  1.00  0.00    -0.021 C 
HETATM   36  C   UNL     1       9.661  21.910  54.695  1.00  0.00     0.019 C 
HETATM   37  C   UNL     1       7.632  20.639  55.413  1.00  0.00     0.019 C 
HETATM   38  C   UNL     1       8.109  20.880  53.014  1.00  0.00     0.019 C 
ENDBRANCH  31  35
BRANCH  32  39
HETATM   39  O   UNL     1       7.376  23.319  56.684  1.00  0.00    -0.360 OA
HETATM   40  H   UNL     1       8.228  23.714  56.931  1.00  0.00     0.217 HD
ENDBRANCH  32  39
BRANCH  33  41
HETATM   41  C   UNL     1       6.207  25.947  56.588  1.00  0.00    -0.021 C 
HETATM   42  C   UNL     1       7.419  25.959  57.546  1.00  0.00     0.019 C 
HETATM   43  C   UNL     1       5.906  27.433  56.253  1.00  0.00     0.019 C 
HETATM   44  C   UNL     1       4.955  25.422  57.326  1.00  0.00     0.019 C 
ENDBRANCH  33  41
ENDBRANCH  28  29
ENDBRANCH  27  28
ENDBRANCH  24  27
ENDBRANCH   1  23
TORSDOF 10
ENDMDL
MODEL 8
REMARK VINA RESULT:      -9.7      2.904     11.608
REMARK  10 active torsions:
REMARK  status: ('A' for Active; 'I' for Inactive)
REMARK    1  A    between atoms: N_15  and  C_16 
REMARK    2  A    between atoms: C_16  and  C_17 
REMARK    3  A    between atoms: C_17  and  N_18 
REMARK       I    between atoms: N_18  and  C_19 
REMARK    4  A    between atoms: C_19  and  C_20 
REMARK    5  A    between atoms: C_20  and  C_21 
REMARK    6  A    between atoms: C_21  and  C_22 
REMARK    7  A    between atoms: C_24  and  C_25 
REMARK    8  A    between atoms: C_29  and  O_30 
REMARK    9  A    between atoms: C_31  and  C_32 
REMARK   10  A    between atoms: C_38  and  O_39 
ROOT
HETATM    1  C   UNL     1       7.002  31.381  59.074  1.00  0.00     0.142 C 
ENDROOT
BRANCH   1   2
HETATM    2  C   UNL     1       5.832  32.295  59.459  1.00  0.00     0.151 C 
BRANCH   2   3
HETATM    3  N   UNL     1       6.030  33.024  60.719  1.00  0.00    -0.291 N 
HETATM    4  C   UNL     1       7.226  32.918  61.399  1.00  0.00     0.366 C 
HETATM    5  O   UNL     1       7.053  33.305  62.699  1.00  0.00    -0.287 OA
HETATM    6  O   UNL     1       8.290  32.525  60.953  1.00  0.00    -0.238 OA
HETATM    7  C   UNL     1       5.753  33.954  62.830  1.00  0.00     0.126 C 
HETATM    8  C   UNL     1       5.312  33.698  64.279  1.00  0.00     0.082 C 
HETATM    9  C   UNL     1       4.981  33.249  61.678  1.00  0.00     0.166 C 
HETATM   10  C   UNL     1       6.046  35.462  62.624  1.00  0.00     0.082 C 
HETATM   11  C   UNL     1       4.211  34.611  64.831  1.00  0.00     0.122 C 
HETATM   12  N   UNL     1       4.592  36.049  64.579  1.00  0.00    -0.059 N 
HETATM   13  C   UNL     1       4.149  34.454  66.366  1.00  0.00     0.046 C 
HETATM   14  C   UNL     1       2.808  34.326  64.295  1.00  0.00     0.046 C 
HETATM   15  C   UNL     1       5.066  36.490  63.214  1.00  0.00     0.122 C 
HETATM   16  H   UNL     1       5.344  36.280  65.247  1.00  0.00     0.279 HD
HETATM   17  H   UNL     1       3.811  36.658  64.869  1.00  0.00     0.279 HD
HETATM   18  C   UNL     1       5.835  37.813  63.449  1.00  0.00     0.046 C 
HETATM   19  C   UNL     1       3.864  36.842  62.332  1.00  0.00     0.046 C 
HETATM   20  C   UNL     1       4.301  31.930  62.068  1.00  0.00     0.074 C 
BRANCH   9  21
HETATM   21  O   UNL     1       4.036  34.126  61.109  1.00  0.00    -0.368 OA
HETATM   22  H   UNL     1       4.522  34.869  60.712  1.00  0.00     0.212 HD
ENDBRANCH   9  21
ENDBRANCH   2   3
ENDBRANCH   1   2
BRANCH   1  23
HETATM   23  N   UNL     1       6.616  30.245  58.263  1.00  0.00    -0.359 N 
HETATM   24  C   UNL     1       7.446  29.160  58.117  1.00  0.00     0.217 C 
HETATM   25  O   UNL     1       8.572  29.127  58.611  1.00  0.00    -0.274 OA
HETATM   26  H   UNL     1       5.685  30.242  57.850  1.00  0.00     0.162 HD
BRANCH  24  27
HETATM   27  C   UNL     1       6.863  27.934  57.440  1.00  0.00     0.107 C 
BRANCH  27  28
HETATM   28  C   UNL     1       7.628  26.623  57.595  1.00  0.00     0.048 C 
BRANCH  28  29
HETATM   29  C   UNL     1       7.403  25.578  56.527  1.00  0.00    -0.057 A 
HETATM   30  C   UNL     1       6.922  25.912  55.256  1.00  0.00     0.018 A 
HETATM   31  C   UNL     1       6.791  24.965  54.219  1.00  0.00    -0.016 A 
HETATM   32  C   UNL     1       7.222  23.651  54.519  1.00  0.00     0.079 A 
HETATM   33  C   UNL     1       7.738  23.262  55.780  1.00  0.00    -0.016 A 
HETATM   34  C   UNL     1       7.801  24.259  56.770  1.00  0.00     0.018 A 
BRANCH  31  35
HETATM   35  C   UNL     1       6.319  25.446  52.821  1.00  0.00    -0.021 C 
HETATM   36  C   UNL     1       7.442  25.136  51.810  1.00  0.00     0.019 C 
HETATM   37  C   UNL     1       5.014  24.798  52.300  1.00  0.00     0.019 C 
HETATM   38  C   UNL     1       6.045  26.974  52.793  1.00  0.00     0.019 C 
ENDBRANCH  31  35
BRANCH  32  39
HETATM   39  O   UNL     1       7.187  22.696  53.543  1.00  0.00    -0.360 OA
HETATM   40  H   UNL     1       8.091  22.344  53.491  1.00  0.00     0.217 HD
ENDBRANCH  32  39
BRANCH  33  41
HETATM   41  C   UNL     1       8.259  21.832  56.069  1.00  0.00    -0.021 C 
HETATM   42  C   UNL     1       9.638  21.625  55.404  1.00  0.00     0.019 C 
HETATM   43  C   UNL     1       8.460  21.535  57.580  1.00  0.00     0.019 C 
HETATM   44  C   UNL     1       7.262  20.766  55.561  1.00  0.00     0.019 C 
ENDBRANCH  33  41
ENDBRANCH  28  29
ENDBRANCH  27  28
ENDBRANCH  24  27
ENDBRANCH   1  23
TORSDOF 10
ENDMDL
MODEL 9
REMARK VINA RESULT:      -9.6      6.565     10.103
REMARK  10 active torsions:
REMARK  status: ('A' for Active; 'I' for Inactive)
REMARK    1  A    between atoms: N_15  and  C_16 
REMARK    2  A    between atoms: C_16  and  C_17 
REMARK    3  A    between atoms: C_17  and  N_18 
REMARK       I    between atoms: N_18  and  C_19 
REMARK    4  A    between atoms: C_19  and  C_20 
REMARK    5  A    between atoms: C_20  and  C_21 
REMARK    6  A    between atoms: C_21  and  C_22 
REMARK    7  A    between atoms: C_24  and  C_25 
REMARK    8  A    between atoms: C_29  and  O_30 
REMARK    9  A    between atoms: C_31  and  C_32 
REMARK   10  A    between atoms: C_38  and  O_39 
ROOT
HETATM    1  C   UNL     1       4.332  29.778  53.023  1.00  0.00     0.142 C 
ENDROOT
BRANCH   1   2
HETATM    2  C   UNL     1       4.250  30.984  52.079  1.00  0.00     0.151 C 
BRANCH   2   3
HETATM    3  N   UNL     1       4.127  30.628  50.660  1.00  0.00    -0.291 N 
HETATM    4  C   UNL     1       5.190  30.823  49.803  1.00  0.00     0.366 C 
HETATM    5  O   UNL     1       4.744  30.835  48.510  1.00  0.00    -0.287 OA
HETATM    6  O   UNL     1       6.359  30.984  50.109  1.00  0.00    -0.238 OA
HETATM    7  C   UNL     1       3.365  30.361  48.481  1.00  0.00     0.126 C 
HETATM    8  C   UNL     1       2.719  31.052  47.271  1.00  0.00     0.082 C 
HETATM    9  C   UNL     1       2.907  30.772  49.910  1.00  0.00     0.166 C 
HETATM   10  C   UNL     1       3.481  28.837  48.221  1.00  0.00     0.082 C 
HETATM   11  C   UNL     1       1.425  30.428  46.735  1.00  0.00     0.122 C 
HETATM   12  N   UNL     1       1.645  28.951  46.518  1.00  0.00    -0.059 N 
HETATM   13  C   UNL     1       1.121  31.018  45.341  1.00  0.00     0.046 C 
HETATM   14  C   UNL     1       0.188  30.664  47.601  1.00  0.00     0.046 C 
HETATM   15  C   UNL     1       2.283  28.104  47.594  1.00  0.00     0.122 C 
HETATM   16  H   UNL     1       2.232  28.857  45.674  1.00  0.00     0.279 HD
HETATM   17  H   UNL     1       0.751  28.516  46.245  1.00  0.00     0.279 HD
HETATM   18  C   UNL     1       2.813  26.842  46.869  1.00  0.00     0.046 C 
HETATM   19  C   UNL     1       1.215  27.617  48.579  1.00  0.00     0.046 C 
HETATM   20  C   UNL     1       2.355  32.199  50.026  1.00  0.00     0.074 C 
BRANCH   9  21
HETATM   21  O   UNL     1       1.963  29.851  50.409  1.00  0.00    -0.368 OA
HETATM   22  H   UNL     1       2.414  29.293  51.066  1.00  0.00     0.212 HD
ENDBRANCH   9  21
ENDBRANCH   2   3
ENDBRANCH   1   2
BRANCH   1  23
HETATM   23  N   UNL     1       4.229  28.499  52.350  1.00  0.00    -0.359 N 
HETATM   24  C   UNL     1       5.350  27.814  51.947  1.00  0.00     0.217 C 
HETATM   25  O   UNL     1       6.482  28.278  52.078  1.00  0.00    -0.274 OA
HETATM   26  H   UNL     1       3.304  28.088  52.238  1.00  0.00     0.162 HD
BRANCH  24  27
HETATM   27  C   UNL     1       5.149  26.391  51.462  1.00  0.00     0.107 C 
BRANCH  27  28
HETATM   28  C   UNL     1       6.333  25.438  51.591  1.00  0.00     0.048 C 
BRANCH  28  29
HETATM   29  C   UNL     1       6.550  24.806  52.946  1.00  0.00    -0.057 A 
HETATM   30  C   UNL     1       7.178  23.563  53.089  1.00  0.00     0.018 A 
HETATM   31  C   UNL     1       7.469  22.999  54.349  1.00  0.00    -0.016 A 
HETATM   32  C   UNL     1       7.133  23.785  55.476  1.00  0.00     0.079 A 
HETATM   33  C   UNL     1       6.516  25.059  55.389  1.00  0.00    -0.016 A 
HETATM   34  C   UNL     1       6.227  25.532  54.097  1.00  0.00     0.018 A 
BRANCH  31  35
HETATM   35  C   UNL     1       8.235  21.650  54.405  1.00  0.00    -0.021 C 
HETATM   36  C   UNL     1       8.177  21.015  53.000  1.00  0.00     0.019 C 
HETATM   37  C   UNL     1       9.720  21.745  54.825  1.00  0.00     0.019 C 
HETATM   38  C   UNL     1       7.596  20.659  55.415  1.00  0.00     0.019 C 
ENDBRANCH  31  35
BRANCH  32  39
HETATM   39  O   UNL     1       7.446  23.332  56.725  1.00  0.00    -0.360 OA
HETATM   40  H   UNL     1       8.413  23.397  56.790  1.00  0.00     0.217 HD
ENDBRANCH  32  39
BRANCH  33  41
HETATM   41  C   UNL     1       6.211  25.930  56.633  1.00  0.00    -0.021 C 
HETATM   42  C   UNL     1       4.959  25.392  57.363  1.00  0.00     0.019 C 
HETATM   43  C   UNL     1       7.353  25.937  57.685  1.00  0.00     0.019 C 
HETATM   44  C   UNL     1       5.997  27.407  56.236  1.00  0.00     0.019 C 
ENDBRANCH  33  41
ENDBRANCH  28  29
ENDBRANCH  27  28
ENDBRANCH  24  27
ENDBRANCH   1  23
TORSDOF 10
ENDMDL
MODEL 10
REMARK VINA RESULT:      -9.6      6.747     10.978
REMARK  10 active torsions:
REMARK  status: ('A' for Active; 'I' for Inactive)
REMARK    1  A    between atoms: N_15  and  C_16 
REMARK    2  A    between atoms: C_16  and  C_17 
REMARK    3  A    between atoms: C_17  and  N_18 
REMARK       I    between atoms: N_18  and  C_19 
REMARK    4  A    between atoms: C_19  and  C_20 
REMARK    5  A    between atoms: C_20  and  C_21 
REMARK    6  A    between atoms: C_21  and  C_22 
REMARK    7  A    between atoms: C_24  and  C_25 
REMARK    8  A    between atoms: C_29  and  O_30 
REMARK    9  A    between atoms: C_31  and  C_32 
REMARK   10  A    between atoms: C_38  and  O_39 
ROOT
HETATM    1  C   UNL     1       5.587  28.443  48.564  1.00  0.00     0.142 C 
ENDROOT
BRANCH   1   2
HETATM    2  C   UNL     1       4.541  29.564  48.537  1.00  0.00     0.151 C 
BRANCH   2   3
HETATM    3  N   UNL     1       5.098  30.909  48.733  1.00  0.00    -0.291 N 
HETATM    4  C   UNL     1       5.506  31.313  49.988  1.00  0.00     0.366 C 
HETATM    5  O   UNL     1       5.580  32.678  50.031  1.00  0.00    -0.287 OA
HETATM    6  O   UNL     1       5.752  30.598  50.944  1.00  0.00    -0.238 OA
HETATM    7  C   UNL     1       5.479  33.200  48.673  1.00  0.00     0.126 C 
HETATM    8  C   UNL     1       4.848  34.594  48.815  1.00  0.00     0.082 C 
HETATM    9  C   UNL     1       4.646  32.067  48.008  1.00  0.00     0.166 C 
HETATM   10  C   UNL     1       6.947  33.330  48.193  1.00  0.00     0.082 C 
HETATM   11  C   UNL     1       5.016  35.547  47.626  1.00  0.00     0.122 C 
HETATM   12  N   UNL     1       6.474  35.599  47.241  1.00  0.00    -0.059 N 
HETATM   13  C   UNL     1       4.646  36.978  48.072  1.00  0.00     0.046 C 
HETATM   14  C   UNL     1       4.151  35.219  46.409  1.00  0.00     0.046 C 
HETATM   15  C   UNL     1       7.269  34.326  47.067  1.00  0.00     0.122 C 
HETATM   16  H   UNL     1       6.954  36.157  47.964  1.00  0.00     0.279 HD
HETATM   17  H   UNL     1       6.574  36.168  46.386  1.00  0.00     0.279 HD
HETATM   18  C   UNL     1       8.755  34.743  47.198  1.00  0.00     0.046 C 
HETATM   19  C   UNL     1       7.096  33.793  45.641  1.00  0.00     0.046 C 
HETATM   20  C   UNL     1       3.125  32.230  48.125  1.00  0.00     0.074 C 
BRANCH   9  21
HETATM   21  O   UNL     1       5.009  31.917  46.654  1.00  0.00    -0.368 OA
HETATM   22  H   UNL     1       5.809  32.450  46.502  1.00  0.00     0.212 HD
ENDBRANCH   9  21
ENDBRANCH   2   3
ENDBRANCH   1   2
BRANCH   1  23
HETATM   23  N   UNL     1       5.645  27.724  49.820  1.00  0.00    -0.359 N 
HETATM   24  C   UNL     1       4.916  26.576  50.017  1.00  0.00     0.217 C 
HETATM   25  O   UNL     1       4.137  26.142  49.169  1.00  0.00    -0.274 OA
HETATM   26  H   UNL     1       6.289  28.055  50.536  1.00  0.00     0.162 HD
BRANCH  24  27
HETATM   27  C   UNL     1       5.217  25.777  51.271  1.00  0.00     0.107 C 
BRANCH  27  28
HETATM   28  C   UNL     1       6.670  25.380  51.512  1.00  0.00     0.048 C 
BRANCH  28  29
HETATM   29  C   UNL     1       7.012  24.866  52.891  1.00  0.00    -0.057 A 
HETATM   30  C   UNL     1       6.708  25.594  54.047  1.00  0.00     0.018 A 
HETATM   31  C   UNL     1       6.939  25.091  55.345  1.00  0.00    -0.016 A 
HETATM   32  C   UNL     1       7.455  23.775  55.420  1.00  0.00     0.079 A 
HETATM   33  C   UNL     1       7.758  22.985  54.283  1.00  0.00    -0.016 A 
HETATM   34  C   UNL     1       7.534  23.575  53.027  1.00  0.00     0.018 A 
BRANCH  31  35
HETATM   35  C   UNL     1       6.501  25.943  56.566  1.00  0.00    -0.021 C 
HETATM   36  C   UNL     1       5.177  25.358  57.099  1.00  0.00     0.019 C 
HETATM   37  C   UNL     1       7.508  25.993  57.738  1.00  0.00     0.019 C 
HETATM   38  C   UNL     1       6.258  27.428  56.183  1.00  0.00     0.019 C 
ENDBRANCH  31  35
BRANCH  32  39
HETATM   39  O   UNL     1       7.640  23.199  56.644  1.00  0.00    -0.360 OA
HETATM   40  H   UNL     1       6.841  22.670  56.806  1.00  0.00     0.217 HD
ENDBRANCH  32  39
BRANCH  33  41
HETATM   41  C   UNL     1       8.266  21.525  54.388  1.00  0.00    -0.021 C 
HETATM   42  C   UNL     1       7.397  20.731  55.389  1.00  0.00     0.019 C 
HETATM   43  C   UNL     1       8.202  20.745  53.047  1.00  0.00     0.019 C 
HETATM   44  C   UNL     1       9.747  21.484  54.826  1.00  0.00     0.019 C 
ENDBRANCH  33  41
ENDBRANCH  28  29
ENDBRANCH  27  28
ENDBRANCH  24  27
ENDBRANCH   1  23
TORSDOF 10
ENDMDL
