MODEL 1
REMARK VINA RESULT:     -10.4      0.000      0.000
REMARK  6 active torsions:
REMARK  status: ('A' for Active; 'I' for Inactive)
REMARK    1  A    between atoms: C_6  and  C_7 
REMARK    2  A    between atoms: N_8  and  N_9 
REMARK       I    between atoms: N_9  and  C_10 
REMARK    3  A    between atoms: C_10  and  C_11 
REMARK    4  A    between atoms: C_14  and  O_15 
REMARK    5  A    between atoms: O_15  and  C_16 
REMARK    6  A    between atoms: C_16  and  C_17 
ROOT
HETATM    1  C   UNL     1       6.402  26.269  54.039  1.00  0.00     0.217 C 
HETATM    2  N   UNL     1       6.766  27.271  55.048  1.00  0.00    -0.247 N 
HETATM    3  C   UNL     1       6.286  28.573  54.856  1.00  0.00     0.272 C 
HETATM    4  O   UNL     1       6.676  29.573  55.447  1.00  0.00    -0.266 OA
HETATM    5  C   UNL     1       5.159  28.710  53.899  1.00  0.00     0.054 A 
HETATM    6  C   UNL     1       4.498  27.540  53.501  1.00  0.00     0.026 A 
HETATM    7  N   UNL     1       4.935  26.266  53.952  1.00  0.00    -0.265 NA
HETATM    8  C   UNL     1       4.694  29.967  53.506  1.00  0.00     0.019 A 
HETATM    9  C   UNL     1       3.546  30.058  52.719  1.00  0.00     0.001 A 
HETATM   10  C   UNL     1       2.857  28.899  52.357  1.00  0.00     0.002 A 
HETATM   11  C   UNL     1       3.320  27.644  52.761  1.00  0.00     0.024 A 
HETATM   12  H   UNL     1       4.572  26.139  54.897  1.00  0.00     0.130 HD
ENDROOT
BRANCH   2  13
HETATM   13  N   UNL     1       6.867  26.786  56.430  1.00  0.00    -0.163 NA
HETATM   14  C   UNL     1       8.090  26.955  57.065  1.00  0.00     0.249 C 
HETATM   15  O   UNL     1       8.792  25.991  57.359  1.00  0.00    -0.272 OA
HETATM   16  H   UNL     1       6.664  25.788  56.462  1.00  0.00     0.156 HD
BRANCH  14  17
HETATM   17  C   UNL     1       8.476  28.304  57.515  1.00  0.00     0.028 A 
HETATM   18  C   UNL     1       7.669  29.003  58.417  1.00  0.00     0.019 A 
HETATM   19  C   UNL     1       8.060  30.271  58.850  1.00  0.00     0.038 A 
HETATM   20  C   UNL     1       9.244  30.849  58.382  1.00  0.00     0.069 A 
HETATM   21  C   UNL     1      10.063  30.131  57.504  1.00  0.00     0.038 A 
HETATM   22  C   UNL     1       9.686  28.852  57.081  1.00  0.00     0.019 A 
BRANCH  20  23
HETATM   23  O   UNL     1       9.501  32.102  58.871  1.00  0.00    -0.348 OA
BRANCH  23  24
HETATM   24  C   UNL     1       8.823  32.469  60.071  1.00  0.00     0.202 C 
BRANCH  24  25
HETATM   25  C   UNL     1       9.694  32.060  61.222  1.00  0.00    -0.011 C 
HETATM   26  C   UNL     1       9.425  31.054  62.065  1.00  0.00     0.009 C 
ENDBRANCH  24  25
ENDBRANCH  23  24
ENDBRANCH  20  23
ENDBRANCH  14  17
ENDBRANCH   2  13
BRANCH   1  27
HETATM   27  C   UNL     1       6.978  24.863  54.214  1.00  0.00    -0.014 A 
HETATM   28  C   UNL     1       7.693  24.220  53.174  1.00  0.00    -0.052 A 
HETATM   29  C   UNL     1       8.185  22.913  53.372  1.00  0.00     0.014 A 
HETATM   30  C   UNL     1       7.983  24.880  51.851  1.00  0.00     0.049 C 
HETATM   31  C   UNL     1       7.954  22.214  54.560  1.00  0.00    -0.061 A 
HETATM   32  C   UNL     1       8.418  20.796  54.715  1.00  0.00     0.048 C 
HETATM   33  C   UNL     1       7.219  22.830  55.568  1.00  0.00     0.007 A 
HETATM   34  C   UNL     1       6.746  24.133  55.400  1.00  0.00     0.011 A 
ENDBRANCH   1  27
TORSDOF 6
ENDMDL
MODEL 2
REMARK VINA RESULT:     -10.1      1.624      5.070
REMARK  6 active torsions:
REMARK  status: ('A' for Active; 'I' for Inactive)
REMARK    1  A    between atoms: C_6  and  C_7 
REMARK    2  A    between atoms: N_8  and  N_9 
REMARK       I    between atoms: N_9  and  C_10 
REMARK    3  A    between atoms: C_10  and  C_11 
REMARK    4  A    between atoms: C_14  and  O_15 
REMARK    5  A    between atoms: O_15  and  C_16 
REMARK    6  A    between atoms: C_16  and  C_17 
ROOT
HETATM    1  C   UNL     1       6.444  25.035  54.021  1.00  0.00     0.217 C 
HETATM    2  N   UNL     1       7.378  25.732  54.913  1.00  0.00    -0.247 N 
HETATM    3  C   UNL     1       7.949  24.983  55.950  1.00  0.00     0.272 C 
HETATM    4  O   UNL     1       8.549  25.440  56.916  1.00  0.00    -0.266 OA
HETATM    5  C   UNL     1       7.867  23.508  55.800  1.00  0.00     0.054 A 
HETATM    6  C   UNL     1       7.500  23.001  54.546  1.00  0.00     0.026 A 
HETATM    7  N   UNL     1       7.161  23.874  53.478  1.00  0.00    -0.265 NA
HETATM    8  C   UNL     1       8.259  22.654  56.834  1.00  0.00     0.019 A 
HETATM    9  C   UNL     1       8.302  21.278  56.606  1.00  0.00     0.001 A 
HETATM   10  C   UNL     1       7.981  20.770  55.346  1.00  0.00     0.002 A 
HETATM   11  C   UNL     1       7.599  21.630  54.313  1.00  0.00     0.024 A 
HETATM   12  H   UNL     1       8.034  24.213  53.075  1.00  0.00     0.130 HD
ENDROOT
BRANCH   2  13
HETATM   13  N   UNL     1       8.213  26.767  54.290  1.00  0.00    -0.163 NA
HETATM   14  C   UNL     1       7.863  28.088  54.539  1.00  0.00     0.249 C 
HETATM   15  O   UNL     1       7.431  28.810  53.644  1.00  0.00    -0.272 OA
HETATM   16  H   UNL     1       8.205  26.656  53.277  1.00  0.00     0.156 HD
BRANCH  14  17
HETATM   17  C   UNL     1       8.150  28.660  55.866  1.00  0.00     0.028 A 
HETATM   18  C   UNL     1       7.159  28.681  56.852  1.00  0.00     0.019 A 
HETATM   19  C   UNL     1       7.453  29.206  58.112  1.00  0.00     0.038 A 
HETATM   20  C   UNL     1       8.724  29.718  58.391  1.00  0.00     0.069 A 
HETATM   21  C   UNL     1       9.720  29.665  57.409  1.00  0.00     0.038 A 
HETATM   22  C   UNL     1       9.437  29.123  56.151  1.00  0.00     0.019 A 
BRANCH  20  23
HETATM   23  O   UNL     1       8.874  30.218  59.656  1.00  0.00    -0.348 OA
BRANCH  23  24
HETATM   24  C   UNL     1       9.000  31.635  59.770  1.00  0.00     0.202 C 
BRANCH  24  25
HETATM   25  C   UNL     1       9.491  31.932  61.156  1.00  0.00    -0.011 C 
HETATM   26  C   UNL     1       8.720  31.956  62.252  1.00  0.00     0.009 C 
ENDBRANCH  24  25
ENDBRANCH  23  24
ENDBRANCH  20  23
ENDBRANCH  14  17
ENDBRANCH   2  13
BRANCH   1  27
HETATM   27  C   UNL     1       5.772  25.869  52.928  1.00  0.00    -0.014 A 
HETATM   28  C   UNL     1       4.822  26.872  53.240  1.00  0.00    -0.052 A 
HETATM   29  C   UNL     1       4.209  27.599  52.197  1.00  0.00     0.014 A 
HETATM   30  C   UNL     1       4.441  27.227  54.653  1.00  0.00     0.049 C 
HETATM   31  C   UNL     1       4.488  27.332  50.854  1.00  0.00    -0.061 A 
HETATM   32  C   UNL     1       3.763  28.063  49.763  1.00  0.00     0.048 C 
HETATM   33  C   UNL     1       5.393  26.321  50.546  1.00  0.00     0.007 A 
HETATM   34  C   UNL     1       6.029  25.608  51.565  1.00  0.00     0.011 A 
ENDBRANCH   1  27
TORSDOF 6
ENDMDL
MODEL 3
REMARK VINA RESULT:      -9.8      2.671      8.094
REMARK  6 active torsions:
REMARK  status: ('A' for Active; 'I' for Inactive)
REMARK    1  A    between atoms: C_6  and  C_7 
REMARK    2  A    between atoms: N_8  and  N_9 
REMARK       I    between atoms: N_9  and  C_10 
REMARK    3  A    between atoms: C_10  and  C_11 
REMARK    4  A    between atoms: C_14  and  O_15 
REMARK    5  A    between atoms: O_15  and  C_16 
REMARK    6  A    between atoms: C_16  and  C_17 
ROOT
HETATM    1  C   UNL     1       7.509  25.765  55.209  1.00  0.00     0.217 C 
HETATM    2  N   UNL     1       6.417  25.653  54.236  1.00  0.00    -0.247 N 
HETATM    3  C   UNL     1       6.391  24.503  53.436  1.00  0.00     0.272 C 
HETATM    4  O   UNL     1       5.714  24.349  52.426  1.00  0.00    -0.266 OA
HETATM    5  C   UNL     1       7.211  23.364  53.918  1.00  0.00     0.054 A 
HETATM    6  C   UNL     1       7.695  23.421  55.233  1.00  0.00     0.026 A 
HETATM    7  N   UNL     1       7.457  24.560  56.048  1.00  0.00    -0.265 NA
HETATM    8  C   UNL     1       7.392  22.221  53.136  1.00  0.00     0.019 A 
HETATM    9  C   UNL     1       8.048  21.116  53.678  1.00  0.00     0.001 A 
HETATM   10  C   UNL     1       8.493  21.150  55.002  1.00  0.00     0.002 A 
HETATM   11  C   UNL     1       8.301  22.292  55.783  1.00  0.00     0.024 A 
HETATM   12  H   UNL     1       6.507  24.479  56.411  1.00  0.00     0.130 HD
ENDROOT
BRANCH   2  13
HETATM   13  N   UNL     1       5.125  26.216  54.648  1.00  0.00    -0.163 NA
HETATM   14  C   UNL     1       4.873  27.534  54.289  1.00  0.00     0.249 C 
HETATM   15  O   UNL     1       4.799  28.421  55.135  1.00  0.00    -0.272 OA
HETATM   16  H   UNL     1       5.038  26.176  55.663  1.00  0.00     0.156 HD
BRANCH  14  17
HETATM   17  C   UNL     1       4.552  27.837  52.883  1.00  0.00     0.028 A 
HETATM   18  C   UNL     1       3.327  28.424  52.552  1.00  0.00     0.019 A 
HETATM   19  C   UNL     1       3.048  28.726  51.217  1.00  0.00     0.038 A 
HETATM   20  C   UNL     1       3.977  28.437  50.213  1.00  0.00     0.069 A 
HETATM   21  C   UNL     1       5.213  27.879  50.555  1.00  0.00     0.038 A 
HETATM   22  C   UNL     1       5.507  27.592  51.892  1.00  0.00     0.019 A 
BRANCH  20  23
HETATM   23  O   UNL     1       3.571  28.766  48.947  1.00  0.00    -0.348 OA
BRANCH  23  24
HETATM   24  C   UNL     1       4.230  28.098  47.873  1.00  0.00     0.202 C 
BRANCH  24  25
HETATM   25  C   UNL     1       3.331  26.987  47.416  1.00  0.00    -0.011 C 
HETATM   26  C   UNL     1       3.405  25.719  47.842  1.00  0.00     0.009 C 
ENDBRANCH  24  25
ENDBRANCH  23  24
ENDBRANCH  20  23
ENDBRANCH  14  17
ENDBRANCH   2  13
BRANCH   1  27
HETATM   27  C   UNL     1       7.573  27.049  56.039  1.00  0.00    -0.014 A 
HETATM   28  C   UNL     1       8.055  28.262  55.489  1.00  0.00    -0.052 A 
HETATM   29  C   UNL     1       8.120  29.416  56.299  1.00  0.00     0.014 A 
HETATM   30  C   UNL     1       8.489  28.395  54.053  1.00  0.00     0.049 C 
HETATM   31  C   UNL     1       7.753  29.388  57.647  1.00  0.00    -0.061 A 
HETATM   32  C   UNL     1       7.908  30.607  58.507  1.00  0.00     0.048 C 
HETATM   33  C   UNL     1       7.315  28.187  58.198  1.00  0.00     0.007 A 
HETATM   34  C   UNL     1       7.220  27.041  57.405  1.00  0.00     0.011 A 
ENDBRANCH   1  27
TORSDOF 6
ENDMDL
MODEL 4
REMARK VINA RESULT:      -9.8      3.427      7.563
REMARK  6 active torsions:
REMARK  status: ('A' for Active; 'I' for Inactive)
REMARK    1  A    between atoms: C_6  and  C_7 
REMARK    2  A    between atoms: N_8  and  N_9 
REMARK       I    between atoms: N_9  and  C_10 
REMARK    3  A    between atoms: C_10  and  C_11 
REMARK    4  A    between atoms: C_14  and  O_15 
REMARK    5  A    between atoms: O_15  and  C_16 
REMARK    6  A    between atoms: C_16  and  C_17 
ROOT
HETATM    1  C   UNL     1       4.008  29.359  52.246  1.00  0.00     0.217 C 
HETATM    2  N   UNL     1       4.628  28.209  52.913  1.00  0.00    -0.247 N 
HETATM    3  C   UNL     1       5.180  28.429  54.182  1.00  0.00     0.272 C 
HETATM    4  O   UNL     1       5.936  27.668  54.775  1.00  0.00    -0.266 OA
HETATM    5  C   UNL     1       4.735  29.665  54.873  1.00  0.00     0.054 A 
HETATM    6  C   UNL     1       3.623  30.338  54.349  1.00  0.00     0.026 A 
HETATM    7  N   UNL     1       2.987  29.882  53.164  1.00  0.00    -0.265 NA
HETATM    8  C   UNL     1       5.325  30.076  56.070  1.00  0.00     0.019 A 
HETATM    9  C   UNL     1       4.787  31.161  56.762  1.00  0.00     0.001 A 
HETATM   10  C   UNL     1       3.651  31.808  56.270  1.00  0.00     0.002 A 
HETATM   11  C   UNL     1       3.060  31.387  55.076  1.00  0.00     0.024 A 
HETATM   12  H   UNL     1       2.381  29.105  53.425  1.00  0.00     0.130 HD
ENDROOT
BRANCH   2  13
HETATM   13  N   UNL     1       4.000  26.905  52.667  1.00  0.00    -0.163 NA
HETATM   14  C   UNL     1       4.748  25.972  51.961  1.00  0.00     0.249 C 
HETATM   15  O   UNL     1       4.421  25.618  50.832  1.00  0.00    -0.272 OA
HETATM   16  H   UNL     1       3.134  27.031  52.145  1.00  0.00     0.156 HD
BRANCH  14  17
HETATM   17  C   UNL     1       5.869  25.299  52.642  1.00  0.00     0.028 A 
HETATM   18  C   UNL     1       5.662  24.649  53.862  1.00  0.00     0.019 A 
HETATM   19  C   UNL     1       6.730  23.997  54.482  1.00  0.00     0.038 A 
HETATM   20  C   UNL     1       8.001  23.998  53.900  1.00  0.00     0.069 A 
HETATM   21  C   UNL     1       8.193  24.624  52.664  1.00  0.00     0.038 A 
HETATM   22  C   UNL     1       7.123  25.263  52.027  1.00  0.00     0.019 A 
BRANCH  20  23
HETATM   23  O   UNL     1       8.961  23.339  54.620  1.00  0.00    -0.348 OA
BRANCH  23  24
HETATM   24  C   UNL     1       8.715  21.962  54.898  1.00  0.00     0.202 C 
BRANCH  24  25
HETATM   25  C   UNL     1       8.940  21.200  53.625  1.00  0.00    -0.011 C 
HETATM   26  C   UNL     1       7.986  20.551  52.944  1.00  0.00     0.009 C 
ENDBRANCH  24  25
ENDBRANCH  23  24
ENDBRANCH  20  23
ENDBRANCH  14  17
ENDBRANCH   2  13
BRANCH   1  27
HETATM   27  C   UNL     1       3.462  29.135  50.835  1.00  0.00    -0.014 A 
HETATM   28  C   UNL     1       4.318  29.092  49.707  1.00  0.00    -0.052 A 
HETATM   29  C   UNL     1       3.768  28.908  48.421  1.00  0.00     0.014 A 
HETATM   30  C   UNL     1       5.816  29.213  49.813  1.00  0.00     0.049 C 
HETATM   31  C   UNL     1       2.389  28.800  48.222  1.00  0.00    -0.061 A 
HETATM   32  C   UNL     1       1.824  28.686  46.837  1.00  0.00     0.048 C 
HETATM   33  C   UNL     1       1.544  28.880  49.324  1.00  0.00     0.007 A 
HETATM   34  C   UNL     1       2.072  29.037  50.608  1.00  0.00     0.011 A 
ENDBRANCH   1  27
TORSDOF 6
ENDMDL
MODEL 5
REMARK VINA RESULT:      -9.6      2.256      7.040
REMARK  6 active torsions:
REMARK  status: ('A' for Active; 'I' for Inactive)
REMARK    1  A    between atoms: C_6  and  C_7 
REMARK    2  A    between atoms: N_8  and  N_9 
REMARK       I    between atoms: N_9  and  C_10 
REMARK    3  A    between atoms: C_10  and  C_11 
REMARK    4  A    between atoms: C_14  and  O_15 
REMARK    5  A    between atoms: O_15  and  C_16 
REMARK    6  A    between atoms: C_16  and  C_17 
ROOT
HETATM    1  C   UNL     1       7.115  27.710  57.405  1.00  0.00     0.217 C 
HETATM    2  N   UNL     1       6.706  28.527  56.256  1.00  0.00    -0.247 N 
HETATM    3  C   UNL     1       6.344  29.855  56.516  1.00  0.00     0.272 C 
HETATM    4  O   UNL     1       5.757  30.601  55.740  1.00  0.00    -0.266 OA
HETATM    5  C   UNL     1       6.784  30.400  57.824  1.00  0.00     0.054 A 
HETATM    6  C   UNL     1       7.740  29.670  58.544  1.00  0.00     0.026 A 
HETATM    7  N   UNL     1       8.219  28.423  58.062  1.00  0.00    -0.265 NA
HETATM    8  C   UNL     1       6.357  31.654  58.266  1.00  0.00     0.019 A 
HETATM    9  C   UNL     1       6.902  32.193  59.431  1.00  0.00     0.001 A 
HETATM   10  C   UNL     1       7.888  31.491  60.128  1.00  0.00     0.002 A 
HETATM   11  C   UNL     1       8.319  30.241  59.677  1.00  0.00     0.024 A 
HETATM   12  H   UNL     1       8.922  28.623  57.350  1.00  0.00     0.130 HD
ENDROOT
BRANCH   2  13
HETATM   13  N   UNL     1       7.397  28.251  54.990  1.00  0.00    -0.163 NA
HETATM   14  C   UNL     1       6.725  27.458  54.070  1.00  0.00     0.249 C 
HETATM   15  O   UNL     1       7.127  26.332  53.788  1.00  0.00    -0.272 OA
HETATM   16  H   UNL     1       8.285  27.786  55.174  1.00  0.00     0.156 HD
BRANCH  14  17
HETATM   17  C   UNL     1       5.595  28.038  53.323  1.00  0.00     0.028 A 
HETATM   18  C   UNL     1       5.802  28.604  52.062  1.00  0.00     0.019 A 
HETATM   19  C   UNL     1       4.717  29.130  51.357  1.00  0.00     0.038 A 
HETATM   20  C   UNL     1       3.432  29.103  51.906  1.00  0.00     0.069 A 
HETATM   21  C   UNL     1       3.227  28.507  53.155  1.00  0.00     0.038 A 
HETATM   22  C   UNL     1       4.306  27.961  53.858  1.00  0.00     0.019 A 
BRANCH  20  23
HETATM   23  O   UNL     1       2.462  29.667  51.121  1.00  0.00    -0.348 OA
BRANCH  23  24
HETATM   24  C   UNL     1       2.666  29.598  49.710  1.00  0.00     0.202 C 
BRANCH  24  25
HETATM   25  C   UNL     1       1.642  28.651  49.155  1.00  0.00    -0.011 C 
HETATM   26  C   UNL     1       1.924  27.542  48.459  1.00  0.00     0.009 C 
ENDBRANCH  24  25
ENDBRANCH  23  24
ENDBRANCH  20  23
ENDBRANCH  14  17
ENDBRANCH   2  13
BRANCH   1  27
HETATM   27  C   UNL     1       7.450  26.243  57.131  1.00  0.00    -0.014 A 
HETATM   28  C   UNL     1       6.435  25.277  56.922  1.00  0.00    -0.052 A 
HETATM   29  C   UNL     1       6.790  23.930  56.698  1.00  0.00     0.014 A 
HETATM   30  C   UNL     1       4.969  25.623  56.904  1.00  0.00     0.049 C 
HETATM   31  C   UNL     1       8.124  23.512  56.711  1.00  0.00    -0.061 A 
HETATM   32  C   UNL     1       8.470  22.061  56.550  1.00  0.00     0.048 C 
HETATM   33  C   UNL     1       9.120  24.452  56.953  1.00  0.00     0.007 A 
HETATM   34  C   UNL     1       8.789  25.795  57.152  1.00  0.00     0.011 A 
ENDBRANCH   1  27
TORSDOF 6
ENDMDL
MODEL 6
REMARK VINA RESULT:      -9.6      8.810     12.922
REMARK  6 active torsions:
REMARK  status: ('A' for Active; 'I' for Inactive)
REMARK    1  A    between atoms: C_6  and  C_7 
REMARK    2  A    between atoms: N_8  and  N_9 
REMARK       I    between atoms: N_9  and  C_10 
REMARK    3  A    between atoms: C_10  and  C_11 
REMARK    4  A    between atoms: C_14  and  O_15 
REMARK    5  A    between atoms: O_15  and  C_16 
REMARK    6  A    between atoms: C_16  and  C_17 
ROOT
HETATM    1  C   UNL     1       5.629  35.673  62.185  1.00  0.00     0.217 C 
HETATM    2  N   UNL     1       4.417  34.873  61.977  1.00  0.00    -0.247 N 
HETATM    3  C   UNL     1       4.590  33.501  61.750  1.00  0.00     0.272 C 
HETATM    4  O   UNL     1       3.735  32.734  61.325  1.00  0.00    -0.266 OA
HETATM    5  C   UNL     1       5.911  32.946  62.134  1.00  0.00     0.054 A 
HETATM    6  C   UNL     1       6.745  33.743  62.931  1.00  0.00     0.026 A 
HETATM    7  N   UNL     1       6.357  35.058  63.303  1.00  0.00    -0.265 NA
HETATM    8  C   UNL     1       6.263  31.631  61.819  1.00  0.00     0.019 A 
HETATM    9  C   UNL     1       7.451  31.101  62.319  1.00  0.00     0.001 A 
HETATM   10  C   UNL     1       8.264  31.874  63.151  1.00  0.00     0.002 A 
HETATM   11  C   UNL     1       7.903  33.185  63.471  1.00  0.00     0.024 A 
HETATM   12  H   UNL     1       5.707  34.973  64.084  1.00  0.00     0.130 HD
ENDROOT
BRANCH   2  13
HETATM   13  N   UNL     1       3.232  35.287  62.738  1.00  0.00    -0.163 NA
HETATM   14  C   UNL     1       2.942  34.564  63.888  1.00  0.00     0.249 C 
HETATM   15  O   UNL     1       1.941  33.855  63.957  1.00  0.00    -0.272 OA
HETATM   16  H   UNL     1       2.403  35.230  62.148  1.00  0.00     0.156 HD
BRANCH  14  17
HETATM   17  C   UNL     1       3.778  34.767  65.085  1.00  0.00     0.028 A 
HETATM   18  C   UNL     1       3.759  35.993  65.756  1.00  0.00     0.019 A 
HETATM   19  C   UNL     1       4.540  36.162  66.901  1.00  0.00     0.038 A 
HETATM   20  C   UNL     1       5.344  35.121  67.374  1.00  0.00     0.069 A 
HETATM   21  C   UNL     1       5.334  33.887  66.715  1.00  0.00     0.038 A 
HETATM   22  C   UNL     1       4.540  33.704  65.579  1.00  0.00     0.019 A 
BRANCH  20  23
HETATM   23  O   UNL     1       6.072  35.424  68.493  1.00  0.00    -0.348 OA
BRANCH  23  24
HETATM   24  C   UNL     1       5.902  34.561  69.616  1.00  0.00     0.202 C 
BRANCH  24  25
HETATM   25  C   UNL     1       7.267  34.101  70.040  1.00  0.00    -0.011 C 
HETATM   26  C   UNL     1       8.395  34.804  69.874  1.00  0.00     0.009 C 
ENDBRANCH  24  25
ENDBRANCH  23  24
ENDBRANCH  20  23
ENDBRANCH  14  17
ENDBRANCH   2  13
BRANCH   1  27
HETATM   27  C   UNL     1       5.444  37.181  62.370  1.00  0.00    -0.014 A 
HETATM   28  C   UNL     1       4.917  37.995  61.337  1.00  0.00    -0.052 A 
HETATM   29  C   UNL     1       4.788  39.385  61.543  1.00  0.00     0.014 A 
HETATM   30  C   UNL     1       4.456  37.441  60.014  1.00  0.00     0.049 C 
HETATM   31  C   UNL     1       5.201  39.991  62.732  1.00  0.00    -0.061 A 
HETATM   32  C   UNL     1       5.129  41.481  62.895  1.00  0.00     0.048 C 
HETATM   33  C   UNL     1       5.755  39.198  63.733  1.00  0.00     0.007 A 
HETATM   34  C   UNL     1       5.867  37.817  63.557  1.00  0.00     0.011 A 
ENDBRANCH   1  27
TORSDOF 6
ENDMDL
MODEL 7
REMARK VINA RESULT:      -9.5      1.824      2.582
REMARK  6 active torsions:
REMARK  status: ('A' for Active; 'I' for Inactive)
REMARK    1  A    between atoms: C_6  and  C_7 
REMARK    2  A    between atoms: N_8  and  N_9 
REMARK       I    between atoms: N_9  and  C_10 
REMARK    3  A    between atoms: C_10  and  C_11 
REMARK    4  A    between atoms: C_14  and  O_15 
REMARK    5  A    between atoms: O_15  and  C_16 
REMARK    6  A    between atoms: C_16  and  C_17 
ROOT
HETATM    1  C   UNL     1       4.891  28.046  53.038  1.00  0.00     0.217 C 
HETATM    2  N   UNL     1       4.667  28.904  54.207  1.00  0.00    -0.247 N 
HETATM    3  C   UNL     1       4.070  30.151  53.977  1.00  0.00     0.272 C 
HETATM    4  O   UNL     1       4.026  31.080  54.775  1.00  0.00    -0.266 OA
HETATM    5  C   UNL     1       3.378  30.304  52.673  1.00  0.00     0.054 A 
HETATM    6  C   UNL     1       3.133  29.143  51.927  1.00  0.00     0.026 A 
HETATM    7  N   UNL     1       3.589  27.876  52.379  1.00  0.00    -0.265 NA
HETATM    8  C   UNL     1       2.878  31.541  52.261  1.00  0.00     0.019 A 
HETATM    9  C   UNL     1       2.111  31.618  51.099  1.00  0.00     0.001 A 
HETATM   10  C   UNL     1       1.825  30.458  50.375  1.00  0.00     0.002 A 
HETATM   11  C   UNL     1       2.319  29.221  50.796  1.00  0.00     0.024 A 
HETATM   12  H   UNL     1       2.928  27.550  53.084  1.00  0.00     0.130 HD
ENDROOT
BRANCH   2  13
HETATM   13  N   UNL     1       4.328  28.214  55.457  1.00  0.00    -0.163 NA
HETATM   14  C   UNL     1       5.386  27.865  56.287  1.00  0.00     0.249 C 
HETATM   15  O   UNL     1       5.685  26.689  56.474  1.00  0.00    -0.272 OA
HETATM   16  H   UNL     1       3.829  27.349  55.252  1.00  0.00     0.156 HD
BRANCH  14  17
HETATM   17  C   UNL     1       6.063  28.923  57.058  1.00  0.00     0.028 A 
HETATM   18  C   UNL     1       5.341  30.029  57.517  1.00  0.00     0.019 A 
HETATM   19  C   UNL     1       5.992  31.011  58.266  1.00  0.00     0.038 A 
HETATM   20  C   UNL     1       7.357  30.903  58.550  1.00  0.00     0.069 A 
HETATM   21  C   UNL     1       8.065  29.778  58.114  1.00  0.00     0.038 A 
HETATM   22  C   UNL     1       7.415  28.780  57.380  1.00  0.00     0.019 A 
BRANCH  20  23
HETATM   23  O   UNL     1       7.874  31.942  59.276  1.00  0.00    -0.348 OA
BRANCH  23  24
HETATM   24  C   UNL     1       9.284  31.927  59.492  1.00  0.00     0.202 C 
BRANCH  24  25
HETATM   25  C   UNL     1       9.511  31.961  60.975  1.00  0.00    -0.011 C 
HETATM   26  C   UNL     1       8.538  32.003  61.896  1.00  0.00     0.009 C 
ENDBRANCH  24  25
ENDBRANCH  23  24
ENDBRANCH  20  23
ENDBRANCH  14  17
ENDBRANCH   2  13
BRANCH   1  27
HETATM   27  C   UNL     1       5.600  26.712  53.279  1.00  0.00    -0.014 A 
HETATM   28  C   UNL     1       6.984  26.651  53.575  1.00  0.00    -0.052 A 
HETATM   29  C   UNL     1       7.601  25.397  53.766  1.00  0.00     0.014 A 
HETATM   30  C   UNL     1       7.844  27.879  53.723  1.00  0.00     0.049 C 
HETATM   31  C   UNL     1       6.889  24.201  53.636  1.00  0.00    -0.061 A 
HETATM   32  C   UNL     1       7.586  22.879  53.763  1.00  0.00     0.048 C 
HETATM   33  C   UNL     1       5.538  24.258  53.308  1.00  0.00     0.007 A 
HETATM   34  C   UNL     1       4.904  25.492  53.140  1.00  0.00     0.011 A 
ENDBRANCH   1  27
TORSDOF 6
ENDMDL
MODEL 8
REMARK VINA RESULT:      -9.1      2.744      7.251
REMARK  6 active torsions:
REMARK  status: ('A' for Active; 'I' for Inactive)
REMARK    1  A    between atoms: C_6  and  C_7 
REMARK    2  A    between atoms: N_8  and  N_9 
REMARK       I    between atoms: N_9  and  C_10 
REMARK    3  A    between atoms: C_10  and  C_11 
REMARK    4  A    between atoms: C_14  and  O_15 
REMARK    5  A    between atoms: O_15  and  C_16 
REMARK    6  A    between atoms: C_16  and  C_17 
ROOT
HETATM    1  C   UNL     1       4.129  29.480  53.661  1.00  0.00     0.217 C 
HETATM    2  N   UNL     1       4.950  28.446  53.021  1.00  0.00    -0.247 N 
HETATM    3  C   UNL     1       4.476  27.911  51.816  1.00  0.00     0.272 C 
HETATM    4  O   UNL     1       4.890  26.893  51.274  1.00  0.00    -0.266 OA
HETATM    5  C   UNL     1       3.432  28.707  51.124  1.00  0.00     0.054 A 
HETATM    6  C   UNL     1       3.219  30.021  51.562  1.00  0.00     0.026 A 
HETATM    7  N   UNL     1       3.939  30.546  52.668  1.00  0.00    -0.265 NA
HETATM    8  C   UNL     1       2.770  28.209  49.999  1.00  0.00     0.019 A 
HETATM    9  C   UNL     1       1.900  29.038  49.293  1.00  0.00     0.001 A 
HETATM   10  C   UNL     1       1.718  30.363  49.696  1.00  0.00     0.002 A 
HETATM   11  C   UNL     1       2.389  30.859  50.817  1.00  0.00     0.024 A 
HETATM   12  H   UNL     1       4.861  30.819  52.329  1.00  0.00     0.130 HD
ENDROOT
BRANCH   2  13
HETATM   13  N   UNL     1       6.403  28.594  53.169  1.00  0.00    -0.163 NA
HETATM   14  C   UNL     1       7.025  27.774  54.101  1.00  0.00     0.249 C 
HETATM   15  O   UNL     1       7.525  28.237  55.123  1.00  0.00    -0.272 OA
HETATM   16  H   UNL     1       6.629  29.551  53.435  1.00  0.00     0.156 HD
BRANCH  14  17
HETATM   17  C   UNL     1       7.206  26.346  53.782  1.00  0.00     0.028 A 
HETATM   18  C   UNL     1       6.718  25.364  54.649  1.00  0.00     0.019 A 
HETATM   19  C   UNL     1       6.877  24.017  54.320  1.00  0.00     0.038 A 
HETATM   20  C   UNL     1       7.528  23.643  53.141  1.00  0.00     0.069 A 
HETATM   21  C   UNL     1       7.986  24.631  52.263  1.00  0.00     0.038 A 
HETATM   22  C   UNL     1       7.813  25.983  52.576  1.00  0.00     0.019 A 
BRANCH  20  23
HETATM   23  O   UNL     1       7.633  22.292  52.948  1.00  0.00    -0.348 OA
BRANCH  23  24
HETATM   24  C   UNL     1       8.684  21.629  53.649  1.00  0.00     0.202 C 
BRANCH  24  25
HETATM   25  C   UNL     1       8.059  20.541  54.471  1.00  0.00    -0.011 C 
HETATM   26  C   UNL     1       7.724  20.656  55.764  1.00  0.00     0.009 C 
ENDBRANCH  24  25
ENDBRANCH  23  24
ENDBRANCH  20  23
ENDBRANCH  14  17
ENDBRANCH   2  13
BRANCH   1  27
HETATM   27  C   UNL     1       4.614  30.019  55.009  1.00  0.00    -0.014 A 
HETATM   28  C   UNL     1       4.636  29.206  56.168  1.00  0.00    -0.052 A 
HETATM   29  C   UNL     1       5.067  29.752  57.395  1.00  0.00     0.014 A 
HETATM   30  C   UNL     1       4.236  27.753  56.155  1.00  0.00     0.049 C 
HETATM   31  C   UNL     1       5.444  31.094  57.508  1.00  0.00    -0.061 A 
HETATM   32  C   UNL     1       5.821  31.671  58.840  1.00  0.00     0.048 C 
HETATM   33  C   UNL     1       5.387  31.904  56.378  1.00  0.00     0.007 A 
HETATM   34  C   UNL     1       4.987  31.374  55.150  1.00  0.00     0.011 A 
ENDBRANCH   1  27
TORSDOF 6
ENDMDL
MODEL 9
REMARK VINA RESULT:      -8.9      4.269      7.978
REMARK  6 active torsions:
REMARK  status: ('A' for Active; 'I' for Inactive)
REMARK    1  A    between atoms: C_6  and  C_7 
REMARK    2  A    between atoms: N_8  and  N_9 
REMARK       I    between atoms: N_9  and  C_10 
REMARK    3  A    between atoms: C_10  and  C_11 
REMARK    4  A    between atoms: C_14  and  O_15 
REMARK    5  A    between atoms: O_15  and  C_16 
REMARK    6  A    between atoms: C_16  and  C_17 
ROOT
HETATM    1  C   UNL     1       3.955  28.761  50.970  1.00  0.00     0.217 C 
HETATM    2  N   UNL     1       4.832  27.639  51.322  1.00  0.00    -0.247 N 
HETATM    3  C   UNL     1       4.652  26.442  50.616  1.00  0.00     0.272 C 
HETATM    4  O   UNL     1       5.114  25.351  50.928  1.00  0.00    -0.266 OA
HETATM    5  C   UNL     1       3.890  26.552  49.347  1.00  0.00     0.054 A 
HETATM    6  C   UNL     1       3.673  27.836  48.828  1.00  0.00     0.026 A 
HETATM    7  N   UNL     1       4.114  28.990  49.528  1.00  0.00    -0.265 NA
HETATM    8  C   UNL     1       3.511  25.414  48.631  1.00  0.00     0.019 A 
HETATM    9  C   UNL     1       2.923  25.559  47.374  1.00  0.00     0.001 A 
HETATM   10  C   UNL     1       2.745  26.833  46.831  1.00  0.00     0.002 A 
HETATM   11  C   UNL     1       3.135  27.968  47.547  1.00  0.00     0.024 A 
HETATM   12  H   UNL     1       5.112  29.094  49.342  1.00  0.00     0.130 HD
ENDROOT
BRANCH   2  13
HETATM   13  N   UNL     1       6.203  27.991  51.714  1.00  0.00    -0.163 NA
HETATM   14  C   UNL     1       6.555  27.763  53.038  1.00  0.00     0.249 C 
HETATM   15  O   UNL     1       6.786  28.694  53.804  1.00  0.00    -0.272 OA
HETATM   16  H   UNL     1       6.369  28.981  51.541  1.00  0.00     0.156 HD
BRANCH  14  17
HETATM   17  C   UNL     1       6.787  26.377  53.482  1.00  0.00     0.028 A 
HETATM   18  C   UNL     1       7.685  25.558  52.791  1.00  0.00     0.019 A 
HETATM   19  C   UNL     1       7.911  24.255  53.238  1.00  0.00     0.038 A 
HETATM   20  C   UNL     1       7.242  23.761  54.362  1.00  0.00     0.069 A 
HETATM   21  C   UNL     1       6.368  24.596  55.067  1.00  0.00     0.038 A 
HETATM   22  C   UNL     1       6.152  25.909  54.636  1.00  0.00     0.019 A 
BRANCH  20  23
HETATM   23  O   UNL     1       7.540  22.464  54.682  1.00  0.00    -0.348 OA
BRANCH  23  24
HETATM   24  C   UNL     1       8.912  22.084  54.586  1.00  0.00     0.202 C 
BRANCH  24  25
HETATM   25  C   UNL     1       8.970  20.809  53.797  1.00  0.00    -0.011 C 
HETATM   26  C   UNL     1       8.117  20.476  52.819  1.00  0.00     0.009 C 
ENDBRANCH  24  25
ENDBRANCH  23  24
ENDBRANCH  20  23
ENDBRANCH  14  17
ENDBRANCH   2  13
BRANCH   1  27
HETATM   27  C   UNL     1       4.109  30.047  51.784  1.00  0.00    -0.014 A 
HETATM   28  C   UNL     1       3.779  30.097  53.161  1.00  0.00    -0.052 A 
HETATM   29  C   UNL     1       3.914  31.312  53.866  1.00  0.00     0.014 A 
HETATM   30  C   UNL     1       3.305  28.893  53.932  1.00  0.00     0.049 C 
HETATM   31  C   UNL     1       4.333  32.485  53.232  1.00  0.00    -0.061 A 
HETATM   32  C   UNL     1       4.390  33.781  53.986  1.00  0.00     0.048 C 
HETATM   33  C   UNL     1       4.621  32.446  51.872  1.00  0.00     0.007 A 
HETATM   34  C   UNL     1       4.518  31.247  51.163  1.00  0.00     0.011 A 
ENDBRANCH   1  27
TORSDOF 6
ENDMDL
MODEL 10
REMARK VINA RESULT:      -8.8      2.683      3.584
REMARK  6 active torsions:
REMARK  status: ('A' for Active; 'I' for Inactive)
REMARK    1  A    between atoms: C_6  and  C_7 
REMARK    2  A    between atoms: N_8  and  N_9 
REMARK       I    between atoms: N_9  and  C_10 
REMARK    3  A    between atoms: C_10  and  C_11 
REMARK    4  A    between atoms: C_14  and  O_15 
REMARK    5  A    between atoms: O_15  and  C_16 
REMARK    6  A    between atoms: C_16  and  C_17 
ROOT
HETATM    1  C   UNL     1       4.856  28.070  52.867  1.00  0.00     0.217 C 
HETATM    2  N   UNL     1       4.488  28.893  54.025  1.00  0.00    -0.247 N 
HETATM    3  C   UNL     1       3.869  30.122  53.764  1.00  0.00     0.272 C 
HETATM    4  O   UNL     1       3.714  31.030  54.571  1.00  0.00    -0.266 OA
HETATM    5  C   UNL     1       3.299  30.280  52.402  1.00  0.00     0.054 A 
HETATM    6  C   UNL     1       3.172  29.129  51.613  1.00  0.00     0.026 A 
HETATM    7  N   UNL     1       3.630  27.869  52.082  1.00  0.00    -0.265 NA
HETATM    8  C   UNL     1       2.795  31.508  51.968  1.00  0.00     0.019 A 
HETATM    9  C   UNL     1       2.139  31.584  50.739  1.00  0.00     0.001 A 
HETATM   10  C   UNL     1       1.968  30.432  49.969  1.00  0.00     0.002 A 
HETATM   11  C   UNL     1       2.467  29.204  50.412  1.00  0.00     0.024 A 
HETATM   12  H   UNL     1       2.917  27.503  52.714  1.00  0.00     0.130 HD
ENDROOT
BRANCH   2  13
HETATM   13  N   UNL     1       4.059  28.162  55.224  1.00  0.00    -0.163 NA
HETATM   14  C   UNL     1       4.941  28.142  56.296  1.00  0.00     0.249 C 
HETATM   15  O   UNL     1       5.491  27.102  56.647  1.00  0.00    -0.272 OA
HETATM   16  H   UNL     1       3.874  27.188  54.988  1.00  0.00     0.156 HD
BRANCH  14  17
HETATM   17  C   UNL     1       5.105  29.365  57.103  1.00  0.00     0.028 A 
HETATM   18  C   UNL     1       6.376  29.910  57.303  1.00  0.00     0.019 A 
HETATM   19  C   UNL     1       6.511  31.081  58.051  1.00  0.00     0.038 A 
HETATM   20  C   UNL     1       5.390  31.704  58.609  1.00  0.00     0.069 A 
HETATM   21  C   UNL     1       4.119  31.169  58.378  1.00  0.00     0.038 A 
HETATM   22  C   UNL     1       3.973  30.007  57.614  1.00  0.00     0.019 A 
BRANCH  20  23
HETATM   23  O   UNL     1       5.664  32.832  59.334  1.00  0.00    -0.348 OA
BRANCH  23  24
HETATM   24  C   UNL     1       4.588  33.751  59.513  1.00  0.00     0.202 C 
BRANCH  24  25
HETATM   25  C   UNL     1       4.342  33.872  60.988  1.00  0.00    -0.011 C 
HETATM   26  C   UNL     1       3.708  32.957  61.735  1.00  0.00     0.009 C 
ENDBRANCH  24  25
ENDBRANCH  23  24
ENDBRANCH  20  23
ENDBRANCH  14  17
ENDBRANCH   2  13
BRANCH   1  27
HETATM   27  C   UNL     1       5.589  26.757  53.149  1.00  0.00    -0.014 A 
HETATM   28  C   UNL     1       6.936  26.740  53.585  1.00  0.00    -0.052 A 
HETATM   29  C   UNL     1       7.580  25.504  53.810  1.00  0.00     0.014 A 
HETATM   30  C   UNL     1       7.727  27.995  53.850  1.00  0.00     0.049 C 
HETATM   31  C   UNL     1       6.932  24.288  53.579  1.00  0.00    -0.061 A 
HETATM   32  C   UNL     1       7.664  22.989  53.747  1.00  0.00     0.048 C 
HETATM   33  C   UNL     1       5.621  24.303  53.114  1.00  0.00     0.007 A 
HETATM   34  C   UNL     1       4.959  25.517  52.910  1.00  0.00     0.011 A 
ENDBRANCH   1  27
TORSDOF 6
ENDMDL
