MODEL 1
REMARK VINA RESULT:     -10.9      0.000      0.000
REMARK  3 active torsions:
REMARK  status: ('A' for Active; 'I' for Inactive)
REMARK    1  A    between atoms: C_2  and  N_3 
REMARK       I    between atoms: N_6  and  C_7 
REMARK    2  A    between atoms: C_7  and  C_8 
REMARK    3  A    between atoms: C_24  and  O_25 
ROOT
HETATM    1  N   UNL     1       7.243  24.300  55.986  1.00  0.00    -0.280 NA
HETATM    2  C   UNL     1       6.147  25.155  55.458  1.00  0.00     0.115 C 
HETATM    3  C   UNL     1       5.763  26.255  56.466  1.00  0.00     0.141 C 
HETATM    4  N   UNL     1       6.930  27.012  56.932  1.00  0.00    -0.346 N 
HETATM    5  C   UNL     1       6.715  28.317  57.372  1.00  0.00     0.256 C 
HETATM    6  O   UNL     1       5.597  28.818  57.462  1.00  0.00    -0.267 OA
HETATM    7  C   UNL     1       8.008  26.155  57.449  1.00  0.00     0.141 C 
HETATM    8  C   UNL     1       8.420  25.081  56.427  1.00  0.00     0.115 C 
ENDROOT
BRANCH   5   9
HETATM    9  C   UNL     1       7.881  29.168  57.688  1.00  0.00     0.064 A 
HETATM   10  C   UNL     1       7.758  30.253  58.532  1.00  0.00     0.077 A 
HETATM   11  C   UNL     1       8.844  31.085  58.819  1.00  0.00     0.065 A 
HETATM   12  N   UNL     1       6.651  30.752  59.224  1.00  0.00    -0.330 N 
HETATM   13  N   UNL     1       8.408  32.083  59.689  1.00  0.00    -0.331 N 
HETATM   14  C   UNL     1      10.089  30.888  58.272  1.00  0.00     0.074 A 
HETATM   15  C   UNL     1       7.041  31.893  59.930  1.00  0.00     0.176 A 
HETATM   16  H   UNL     1       8.955  32.847  60.058  1.00  0.00     0.168 HD
HETATM   17  S   UNL     1       6.078  32.847  60.866  1.00  0.00    -0.041 SA
HETATM   18  C   UNL     1      10.212  29.814  57.392  1.00  0.00     0.119 A 
HETATM   19  F   UNL     1      11.397  29.581  56.812  1.00  0.00    -0.206 F 
HETATM   20  C   UNL     1       9.132  28.967  57.086  1.00  0.00     0.061 A 
HETATM   21  H   UNL     1       5.708  30.388  59.148  1.00  0.00     0.168 HD
ENDBRANCH   5   9
BRANCH   1  22
HETATM   22  C   UNL     1       7.482  23.164  55.188  1.00  0.00     0.010 A 
HETATM   23  C   UNL     1       7.631  21.868  55.706  1.00  0.00     0.026 A 
HETATM   24  C   UNL     1       7.872  20.771  54.871  1.00  0.00     0.038 A 
HETATM   25  C   UNL     1       7.957  20.952  53.499  1.00  0.00     0.065 A 
HETATM   26  C   UNL     1       7.796  22.216  52.947  1.00  0.00     0.038 A 
HETATM   27  C   UNL     1       7.558  23.306  53.791  1.00  0.00     0.026 A 
BRANCH  25  28
HETATM   28  O   UNL     1       8.196  19.859  52.724  1.00  0.00    -0.361 OA
HETATM   29  H   UNL     1       7.992  19.063  53.241  1.00  0.00     0.217 HD
ENDBRANCH  25  28
ENDBRANCH   1  22
TORSDOF 3
ENDMDL
MODEL 2
REMARK VINA RESULT:     -10.0      5.934      7.515
REMARK  3 active torsions:
REMARK  status: ('A' for Active; 'I' for Inactive)
REMARK    1  A    between atoms: C_2  and  N_3 
REMARK       I    between atoms: N_6  and  C_7 
REMARK    2  A    between atoms: C_7  and  C_8 
REMARK    3  A    between atoms: C_24  and  O_25 
ROOT
HETATM    1  N   UNL     1       7.110  24.363  53.759  1.00  0.00    -0.280 NA
HETATM    2  C   UNL     1       5.687  24.515  54.167  1.00  0.00     0.115 C 
HETATM    3  C   UNL     1       5.253  25.993  54.139  1.00  0.00     0.141 C 
HETATM    4  N   UNL     1       5.573  26.641  52.863  1.00  0.00    -0.346 N 
HETATM    5  C   UNL     1       4.794  27.732  52.483  1.00  0.00     0.256 C 
HETATM    6  O   UNL     1       3.922  28.215  53.201  1.00  0.00    -0.267 OA
HETATM    7  C   UNL     1       6.983  26.482  52.469  1.00  0.00     0.141 C 
HETATM    8  C   UNL     1       7.405  25.002  52.457  1.00  0.00     0.115 C 
ENDROOT
BRANCH   5   9
HETATM    9  C   UNL     1       4.972  28.306  51.133  1.00  0.00     0.064 A 
HETATM   10  C   UNL     1       4.548  27.624  50.011  1.00  0.00     0.077 A 
HETATM   11  C   UNL     1       4.735  28.140  48.725  1.00  0.00     0.065 A 
HETATM   12  N   UNL     1       3.912  26.387  49.879  1.00  0.00    -0.330 N 
HETATM   13  N   UNL     1       4.209  27.228  47.811  1.00  0.00    -0.331 N 
HETATM   14  C   UNL     1       5.362  29.341  48.497  1.00  0.00     0.074 A 
HETATM   15  C   UNL     1       3.712  26.128  48.522  1.00  0.00     0.176 A 
HETATM   16  H   UNL     1       4.214  27.307  46.805  1.00  0.00     0.168 HD
HETATM   17  S   UNL     1       3.030  24.778  47.868  1.00  0.00    -0.041 SA
HETATM   18  C   UNL     1       5.824  30.019  49.624  1.00  0.00     0.119 A 
HETATM   19  F   UNL     1       6.459  31.187  49.464  1.00  0.00    -0.206 F 
HETATM   20  C   UNL     1       5.649  29.517  50.926  1.00  0.00     0.061 A 
HETATM   21  H   UNL     1       3.714  25.753  50.646  1.00  0.00     0.168 HD
ENDBRANCH   5   9
BRANCH   1  22
HETATM   22  C   UNL     1       7.602  23.060  53.966  1.00  0.00     0.010 A 
HETATM   23  C   UNL     1       7.946  22.185  52.925  1.00  0.00     0.026 A 
HETATM   24  C   UNL     1       8.428  20.896  53.183  1.00  0.00     0.038 A 
HETATM   25  C   UNL     1       8.584  20.467  54.492  1.00  0.00     0.065 A 
HETATM   26  C   UNL     1       8.272  21.310  55.549  1.00  0.00     0.038 A 
HETATM   27  C   UNL     1       7.789  22.596  55.280  1.00  0.00     0.026 A 
BRANCH  25  28
HETATM   28  O   UNL     1       9.052  19.205  54.699  1.00  0.00    -0.361 OA
HETATM   29  H   UNL     1       8.308  18.637  54.956  1.00  0.00     0.217 HD
ENDBRANCH  25  28
ENDBRANCH   1  22
TORSDOF 3
ENDMDL
MODEL 3
REMARK VINA RESULT:      -9.9      2.885      3.710
REMARK  3 active torsions:
REMARK  status: ('A' for Active; 'I' for Inactive)
REMARK    1  A    between atoms: C_2  and  N_3 
REMARK       I    between atoms: N_6  and  C_7 
REMARK    2  A    between atoms: C_7  and  C_8 
REMARK    3  A    between atoms: C_24  and  O_25 
ROOT
HETATM    1  N   UNL     1       6.641  24.128  54.251  1.00  0.00    -0.280 NA
HETATM    2  C   UNL     1       7.126  24.996  53.145  1.00  0.00     0.115 C 
HETATM    3  C   UNL     1       6.243  26.249  52.991  1.00  0.00     0.141 C 
HETATM    4  N   UNL     1       6.059  26.958  54.261  1.00  0.00    -0.346 N 
HETATM    5  C   UNL     1       5.785  28.323  54.201  1.00  0.00     0.256 C 
HETATM    6  O   UNL     1       5.610  28.925  53.144  1.00  0.00    -0.267 OA
HETATM    7  C   UNL     1       5.580  26.088  55.348  1.00  0.00     0.141 C 
HETATM    8  C   UNL     1       6.486  24.857  55.529  1.00  0.00     0.115 C 
ENDROOT
BRANCH   5   9
HETATM    9  C   UNL     1       5.760  29.106  55.453  1.00  0.00     0.064 A 
HETATM   10  C   UNL     1       6.929  29.426  56.113  1.00  0.00     0.077 A 
HETATM   11  C   UNL     1       6.922  30.141  57.314  1.00  0.00     0.065 A 
HETATM   12  N   UNL     1       8.262  29.144  55.800  1.00  0.00    -0.330 N 
HETATM   13  N   UNL     1       8.241  30.303  57.731  1.00  0.00    -0.331 N 
HETATM   14  C   UNL     1       5.759  30.554  57.919  1.00  0.00     0.074 A 
HETATM   15  C   UNL     1       9.079  29.670  56.803  1.00  0.00     0.176 A 
HETATM   16  H   UNL     1       8.559  30.757  58.574  1.00  0.00     0.168 HD
HETATM   17  S   UNL     1      10.720  29.561  56.893  1.00  0.00    -0.041 SA
HETATM   18  C   UNL     1       4.572  30.204  57.277  1.00  0.00     0.119 A 
HETATM   19  F   UNL     1       3.405  30.562  57.827  1.00  0.00    -0.206 F 
HETATM   20  C   UNL     1       4.557  29.482  56.070  1.00  0.00     0.061 A 
HETATM   21  H   UNL     1       8.565  28.574  55.018  1.00  0.00     0.168 HD
ENDBRANCH   5   9
BRANCH   1  22
HETATM   22  C   UNL     1       7.293  22.880  54.293  1.00  0.00     0.010 A 
HETATM   23  C   UNL     1       7.738  22.197  53.150  1.00  0.00     0.026 A 
HETATM   24  C   UNL     1       8.379  20.956  53.245  1.00  0.00     0.038 A 
HETATM   25  C   UNL     1       8.594  20.383  54.488  1.00  0.00     0.065 A 
HETATM   26  C   UNL     1       8.186  21.036  55.642  1.00  0.00     0.038 A 
HETATM   27  C   UNL     1       7.544  22.276  55.538  1.00  0.00     0.026 A 
BRANCH  25  28
HETATM   28  O   UNL     1       9.218  19.173  54.534  1.00  0.00    -0.361 OA
HETATM   29  H   UNL     1      10.177  19.321  54.570  1.00  0.00     0.217 HD
ENDBRANCH  25  28
ENDBRANCH   1  22
TORSDOF 3
ENDMDL
MODEL 4
REMARK VINA RESULT:      -9.8      5.736      6.969
REMARK  3 active torsions:
REMARK  status: ('A' for Active; 'I' for Inactive)
REMARK    1  A    between atoms: C_2  and  N_3 
REMARK       I    between atoms: N_6  and  C_7 
REMARK    2  A    between atoms: C_7  and  C_8 
REMARK    3  A    between atoms: C_24  and  O_25 
ROOT
HETATM    1  N   UNL     1       7.109  24.317  53.676  1.00  0.00    -0.280 NA
HETATM    2  C   UNL     1       5.729  24.593  54.160  1.00  0.00     0.115 C 
HETATM    3  C   UNL     1       5.357  26.075  53.969  1.00  0.00     0.141 C 
HETATM    4  N   UNL     1       5.605  26.537  52.600  1.00  0.00    -0.346 N 
HETATM    5  C   UNL     1       4.844  27.609  52.136  1.00  0.00     0.256 C 
HETATM    6  O   UNL     1       4.051  28.224  52.844  1.00  0.00    -0.267 OA
HETATM    7  C   UNL     1       6.972  26.257  52.132  1.00  0.00     0.141 C 
HETATM    8  C   UNL     1       7.330  24.768  52.285  1.00  0.00     0.115 C 
ENDROOT
BRANCH   5   9
HETATM    9  C   UNL     1       4.942  27.996  50.713  1.00  0.00     0.064 A 
HETATM   10  C   UNL     1       5.147  29.311  50.348  1.00  0.00     0.077 A 
HETATM   11  C   UNL     1       5.213  29.697  49.006  1.00  0.00     0.065 A 
HETATM   12  N   UNL     1       5.309  30.461  51.126  1.00  0.00    -0.330 N 
HETATM   13  N   UNL     1       5.422  31.074  48.961  1.00  0.00    -0.331 N 
HETATM   14  C   UNL     1       5.063  28.804  47.973  1.00  0.00     0.074 A 
HETATM   15  C   UNL     1       5.465  31.558  50.276  1.00  0.00     0.176 A 
HETATM   16  H   UNL     1       5.491  31.651  48.136  1.00  0.00     0.168 HD
HETATM   17  S   UNL     1       5.653  33.131  50.725  1.00  0.00    -0.041 SA
HETATM   18  C   UNL     1       4.822  27.479  48.334  1.00  0.00     0.119 A 
HETATM   19  F   UNL     1       4.649  26.564  47.372  1.00  0.00    -0.206 F 
HETATM   20  C   UNL     1       4.748  27.069  49.678  1.00  0.00     0.061 A 
HETATM   21  H   UNL     1       5.235  30.491  52.136  1.00  0.00     0.168 HD
ENDBRANCH   5   9
BRANCH   1  22
HETATM   22  C   UNL     1       7.561  23.028  54.018  1.00  0.00     0.010 A 
HETATM   23  C   UNL     1       7.666  22.566  55.340  1.00  0.00     0.026 A 
HETATM   24  C   UNL     1       8.125  21.275  55.628  1.00  0.00     0.038 A 
HETATM   25  C   UNL     1       8.476  20.421  54.595  1.00  0.00     0.065 A 
HETATM   26  C   UNL     1       8.368  20.834  53.274  1.00  0.00     0.038 A 
HETATM   27  C   UNL     1       7.910  22.127  52.996  1.00  0.00     0.026 A 
BRANCH  25  28
HETATM   28  O   UNL     1       8.922  19.175  54.920  1.00  0.00    -0.361 OA
HETATM   29  H   UNL     1       8.209  18.703  55.381  1.00  0.00     0.217 HD
ENDBRANCH  25  28
ENDBRANCH   1  22
TORSDOF 3
ENDMDL
MODEL 5
REMARK VINA RESULT:      -9.4      1.563      2.083
REMARK  3 active torsions:
REMARK  status: ('A' for Active; 'I' for Inactive)
REMARK    1  A    between atoms: C_2  and  N_3 
REMARK       I    between atoms: N_6  and  C_7 
REMARK    2  A    between atoms: C_7  and  C_8 
REMARK    3  A    between atoms: C_24  and  O_25 
ROOT
HETATM    1  N   UNL     1       7.199  26.046  55.989  1.00  0.00    -0.280 NA
HETATM    2  C   UNL     1       6.607  27.053  55.068  1.00  0.00     0.115 C 
HETATM    3  C   UNL     1       5.916  28.186  55.850  1.00  0.00     0.141 C 
HETATM    4  N   UNL     1       6.788  28.765  56.876  1.00  0.00    -0.346 N 
HETATM    5  C   UNL     1       6.543  30.082  57.259  1.00  0.00     0.256 C 
HETATM    6  O   UNL     1       5.590  30.735  56.841  1.00  0.00    -0.267 OA
HETATM    7  C   UNL     1       7.369  27.758  57.779  1.00  0.00     0.141 C 
HETATM    8  C   UNL     1       8.095  26.648  57.000  1.00  0.00     0.115 C 
ENDROOT
BRANCH   5   9
HETATM    9  C   UNL     1       7.499  30.756  58.162  1.00  0.00     0.064 A 
HETATM   10  C   UNL     1       7.059  31.437  59.280  1.00  0.00     0.077 A 
HETATM   11  C   UNL     1       7.948  32.104  60.128  1.00  0.00     0.065 A 
HETATM   12  N   UNL     1       5.771  31.625  59.787  1.00  0.00    -0.330 N 
HETATM   13  N   UNL     1       7.210  32.691  61.154  1.00  0.00    -0.331 N 
HETATM   14  C   UNL     1       9.301  32.140  59.897  1.00  0.00     0.074 A 
HETATM   15  C   UNL     1       5.853  32.412  60.938  1.00  0.00     0.176 A 
HETATM   16  H   UNL     1       7.565  33.260  61.908  1.00  0.00     0.168 HD
HETATM   17  S   UNL     1       4.596  32.930  61.867  1.00  0.00    -0.041 SA
HETATM   18  C   UNL     1       9.749  31.484  58.751  1.00  0.00     0.119 A 
HETATM   19  F   UNL     1      11.056  31.499  58.462  1.00  0.00    -0.206 F 
HETATM   20  C   UNL     1       8.872  30.810  57.882  1.00  0.00     0.061 A 
HETATM   21  H   UNL     1       4.919  31.311  59.336  1.00  0.00     0.168 HD
ENDBRANCH   5   9
BRANCH   1  22
HETATM   22  C   UNL     1       7.659  24.896  55.318  1.00  0.00     0.010 A 
HETATM   23  C   UNL     1       7.421  24.642  53.958  1.00  0.00     0.026 A 
HETATM   24  C   UNL     1       7.898  23.481  53.338  1.00  0.00     0.038 A 
HETATM   25  C   UNL     1       8.632  22.559  54.069  1.00  0.00     0.065 A 
HETATM   26  C   UNL     1       8.904  22.784  55.411  1.00  0.00     0.038 A 
HETATM   27  C   UNL     1       8.422  23.947  56.022  1.00  0.00     0.026 A 
BRANCH  25  28
HETATM   28  O   UNL     1       9.073  21.442  53.427  1.00  0.00    -0.361 OA
HETATM   29  H   UNL     1       9.944  21.204  53.785  1.00  0.00     0.217 HD
ENDBRANCH  25  28
ENDBRANCH   1  22
TORSDOF 3
ENDMDL
MODEL 6
REMARK VINA RESULT:      -9.0      4.265      5.179
REMARK  3 active torsions:
REMARK  status: ('A' for Active; 'I' for Inactive)
REMARK    1  A    between atoms: C_2  and  N_3 
REMARK       I    between atoms: N_6  and  C_7 
REMARK    2  A    between atoms: C_7  and  C_8 
REMARK    3  A    between atoms: C_24  and  O_25 
ROOT
HETATM    1  N   UNL     1       6.982  24.791  54.857  1.00  0.00    -0.280 NA
HETATM    2  C   UNL     1       5.917  24.880  55.892  1.00  0.00     0.115 C 
HETATM    3  C   UNL     1       5.599  26.346  56.241  1.00  0.00     0.141 C 
HETATM    4  N   UNL     1       5.331  27.155  55.048  1.00  0.00    -0.346 N 
HETATM    5  C   UNL     1       4.524  28.281  55.203  1.00  0.00     0.256 C 
HETATM    6  O   UNL     1       4.107  28.661  56.294  1.00  0.00    -0.267 OA
HETATM    7  C   UNL     1       6.390  27.058  54.030  1.00  0.00     0.141 C 
HETATM    8  C   UNL     1       6.680  25.594  53.652  1.00  0.00     0.115 C 
ENDROOT
BRANCH   5   9
HETATM    9  C   UNL     1       4.091  29.024  54.002  1.00  0.00     0.064 A 
HETATM   10  C   UNL     1       4.183  30.401  53.948  1.00  0.00     0.077 A 
HETATM   11  C   UNL     1       3.751  31.121  52.831  1.00  0.00     0.065 A 
HETATM   12  N   UNL     1       4.658  31.322  54.885  1.00  0.00    -0.330 N 
HETATM   13  N   UNL     1       3.968  32.475  53.078  1.00  0.00    -0.331 N 
HETATM   14  C   UNL     1       3.198  30.513  51.730  1.00  0.00     0.074 A 
HETATM   15  C   UNL     1       4.516  32.608  54.361  1.00  0.00     0.176 A 
HETATM   16  H   UNL     1       3.739  33.247  52.469  1.00  0.00     0.168 HD
HETATM   17  S   UNL     1       4.905  34.024  55.108  1.00  0.00    -0.041 SA
HETATM   18  C   UNL     1       3.071  29.126  51.790  1.00  0.00     0.119 A 
HETATM   19  F   UNL     1       2.523  28.478  50.755  1.00  0.00    -0.206 F 
HETATM   20  C   UNL     1       3.495  28.382  52.906  1.00  0.00     0.061 A 
HETATM   21  H   UNL     1       4.970  31.087  55.821  1.00  0.00     0.168 HD
ENDBRANCH   5   9
BRANCH   1  22
HETATM   22  C   UNL     1       7.444  23.475  54.659  1.00  0.00     0.010 A 
HETATM   23  C   UNL     1       7.712  22.928  53.395  1.00  0.00     0.026 A 
HETATM   24  C   UNL     1       8.167  21.612  53.250  1.00  0.00     0.038 A 
HETATM   25  C   UNL     1       8.371  20.825  54.373  1.00  0.00     0.065 A 
HETATM   26  C   UNL     1       8.134  21.336  55.641  1.00  0.00     0.038 A 
HETATM   27  C   UNL     1       7.678  22.653  55.775  1.00  0.00     0.026 A 
BRANCH  25  28
HETATM   28  O   UNL     1       8.810  19.549  54.187  1.00  0.00    -0.361 OA
HETATM   29  H   UNL     1       8.589  19.276  53.282  1.00  0.00     0.217 HD
ENDBRANCH  25  28
ENDBRANCH   1  22
TORSDOF 3
ENDMDL
MODEL 7
REMARK VINA RESULT:      -8.9      2.821      4.467
REMARK  3 active torsions:
REMARK  status: ('A' for Active; 'I' for Inactive)
REMARK    1  A    between atoms: C_2  and  N_3 
REMARK       I    between atoms: N_6  and  C_7 
REMARK    2  A    between atoms: C_7  and  C_8 
REMARK    3  A    between atoms: C_24  and  O_25 
ROOT
HETATM    1  N   UNL     1       7.967  27.943  56.836  1.00  0.00    -0.280 NA
HETATM    2  C   UNL     1       9.379  28.371  57.025  1.00  0.00     0.115 C 
HETATM    3  C   UNL     1       9.478  29.895  57.229  1.00  0.00     0.141 C 
HETATM    4  N   UNL     1       8.571  30.375  58.276  1.00  0.00    -0.346 N 
HETATM    5  C   UNL     1       8.919  31.551  58.938  1.00  0.00     0.256 C 
HETATM    6  O   UNL     1       9.893  32.233  58.625  1.00  0.00    -0.267 OA
HETATM    7  C   UNL     1       7.178  29.944  58.079  1.00  0.00     0.141 C 
HETATM    8  C   UNL     1       7.074  28.417  57.917  1.00  0.00     0.115 C 
ENDROOT
BRANCH   5   9
HETATM    9  C   UNL     1       8.126  31.977  60.109  1.00  0.00     0.064 A 
HETATM   10  C   UNL     1       6.857  32.498  59.954  1.00  0.00     0.077 A 
HETATM   11  C   UNL     1       6.105  32.932  61.049  1.00  0.00     0.065 A 
HETATM   12  N   UNL     1       6.091  32.713  58.806  1.00  0.00    -0.330 N 
HETATM   13  N   UNL     1       4.881  33.403  60.576  1.00  0.00    -0.331 N 
HETATM   14  C   UNL     1       6.581  32.885  62.337  1.00  0.00     0.074 A 
HETATM   15  C   UNL     1       4.873  33.286  59.180  1.00  0.00     0.176 A 
HETATM   16  H   UNL     1       4.133  33.804  61.122  1.00  0.00     0.168 HD
HETATM   17  S   UNL     1       3.655  33.751  58.174  1.00  0.00    -0.041 SA
HETATM   18  C   UNL     1       7.876  32.393  62.497  1.00  0.00     0.119 A 
HETATM   19  F   UNL     1       8.403  32.339  63.727  1.00  0.00    -0.206 F 
HETATM   20  C   UNL     1       8.652  31.954  61.409  1.00  0.00     0.061 A 
HETATM   21  H   UNL     1       6.413  32.555  57.857  1.00  0.00     0.168 HD
ENDBRANCH   5   9
BRANCH   1  22
HETATM   22  C   UNL     1       7.851  26.595  56.446  1.00  0.00     0.010 A 
HETATM   23  C   UNL     1       7.342  26.187  55.203  1.00  0.00     0.026 A 
HETATM   24  C   UNL     1       7.244  24.832  54.864  1.00  0.00     0.038 A 
HETATM   25  C   UNL     1       7.666  23.863  55.760  1.00  0.00     0.065 A 
HETATM   26  C   UNL     1       8.193  24.228  56.991  1.00  0.00     0.038 A 
HETATM   27  C   UNL     1       8.285  25.585  57.322  1.00  0.00     0.026 A 
BRANCH  25  28
HETATM   28  O   UNL     1       7.549  22.558  55.391  1.00  0.00    -0.361 OA
HETATM   29  H   UNL     1       6.948  22.114  56.011  1.00  0.00     0.217 HD
ENDBRANCH  25  28
ENDBRANCH   1  22
TORSDOF 3
ENDMDL
MODEL 8
REMARK VINA RESULT:      -8.8      5.259     10.943
REMARK  3 active torsions:
REMARK  status: ('A' for Active; 'I' for Inactive)
REMARK    1  A    between atoms: C_2  and  N_3 
REMARK       I    between atoms: N_6  and  C_7 
REMARK    2  A    between atoms: C_7  and  C_8 
REMARK    3  A    between atoms: C_24  and  O_25 
ROOT
HETATM    1  N   UNL     1       5.665  33.884  63.775  1.00  0.00    -0.280 NA
HETATM    2  C   UNL     1       4.488  33.219  63.154  1.00  0.00     0.115 C 
HETATM    3  C   UNL     1       4.551  33.297  61.617  1.00  0.00     0.141 C 
HETATM    4  N   UNL     1       5.838  32.830  61.090  1.00  0.00    -0.346 N 
HETATM    5  C   UNL     1       5.856  32.329  59.790  1.00  0.00     0.256 C 
HETATM    6  O   UNL     1       4.873  32.342  59.053  1.00  0.00    -0.267 OA
HETATM    7  C   UNL     1       6.994  33.493  61.714  1.00  0.00     0.141 C 
HETATM    8  C   UNL     1       6.953  33.381  63.248  1.00  0.00     0.115 C 
ENDROOT
BRANCH   5   9
HETATM    9  C   UNL     1       7.090  31.695  59.283  1.00  0.00     0.064 A 
HETATM   10  C   UNL     1       7.037  30.532  58.541  1.00  0.00     0.077 A 
HETATM   11  C   UNL     1       8.197  29.904  58.079  1.00  0.00     0.065 A 
HETATM   12  N   UNL     1       5.948  29.764  58.122  1.00  0.00    -0.330 N 
HETATM   13  N   UNL     1       7.821  28.763  57.373  1.00  0.00    -0.331 N 
HETATM   14  C   UNL     1       9.455  30.391  58.343  1.00  0.00     0.074 A 
HETATM   15  C   UNL     1       6.424  28.661  57.411  1.00  0.00     0.176 A 
HETATM   16  H   UNL     1       8.434  28.089  56.938  1.00  0.00     0.168 HD
HETATM   17  S   UNL     1       5.521  27.453  56.748  1.00  0.00    -0.041 SA
HETATM   18  C   UNL     1       9.518  31.546  59.121  1.00  0.00     0.119 A 
HETATM   19  F   UNL     1      10.716  32.059  59.428  1.00  0.00    -0.206 F 
HETATM   20  C   UNL     1       8.363  32.192  59.599  1.00  0.00     0.061 A 
HETATM   21  H   UNL     1       4.982  29.943  58.374  1.00  0.00     0.168 HD
ENDBRANCH   5   9
BRANCH   1  22
HETATM   22  C   UNL     1       5.545  34.014  65.173  1.00  0.00     0.010 A 
HETATM   23  C   UNL     1       6.640  34.015  66.050  1.00  0.00     0.026 A 
HETATM   24  C   UNL     1       6.467  34.144  67.434  1.00  0.00     0.038 A 
HETATM   25  C   UNL     1       5.193  34.286  67.960  1.00  0.00     0.065 A 
HETATM   26  C   UNL     1       4.086  34.309  67.123  1.00  0.00     0.038 A 
HETATM   27  C   UNL     1       4.269  34.178  65.742  1.00  0.00     0.026 A 
BRANCH  25  28
HETATM   28  O   UNL     1       5.070  34.405  69.311  1.00  0.00    -0.361 OA
HETATM   29  H   UNL     1       5.386  33.585  69.723  1.00  0.00     0.217 HD
ENDBRANCH  25  28
ENDBRANCH   1  22
TORSDOF 3
ENDMDL
MODEL 9
REMARK VINA RESULT:      -8.7      5.940      6.877
REMARK  3 active torsions:
REMARK  status: ('A' for Active; 'I' for Inactive)
REMARK    1  A    between atoms: C_2  and  N_3 
REMARK       I    between atoms: N_6  and  C_7 
REMARK    2  A    between atoms: C_7  and  C_8 
REMARK    3  A    between atoms: C_24  and  O_25 
ROOT
HETATM    1  N   UNL     1       4.579  27.241  50.041  1.00  0.00    -0.280 NA
HETATM    2  C   UNL     1       5.016  25.958  50.653  1.00  0.00     0.115 C 
HETATM    3  C   UNL     1       6.192  26.175  51.624  1.00  0.00     0.141 C 
HETATM    4  N   UNL     1       5.916  27.231  52.603  1.00  0.00    -0.346 N 
HETATM    5  C   UNL     1       6.588  27.170  53.822  1.00  0.00     0.256 C 
HETATM    6  O   UNL     1       7.450  26.330  54.070  1.00  0.00    -0.267 OA
HETATM    7  C   UNL     1       5.481  28.495  51.986  1.00  0.00     0.141 C 
HETATM    8  C   UNL     1       4.280  28.284  51.047  1.00  0.00     0.115 C 
ENDROOT
BRANCH   5   9
HETATM    9  C   UNL     1       6.215  28.113  54.896  1.00  0.00     0.064 A 
HETATM   10  C   UNL     1       7.181  28.749  55.649  1.00  0.00     0.077 A 
HETATM   11  C   UNL     1       6.844  29.622  56.687  1.00  0.00     0.065 A 
HETATM   12  N   UNL     1       8.575  28.686  55.589  1.00  0.00    -0.330 N 
HETATM   13  N   UNL     1       8.024  30.098  57.255  1.00  0.00    -0.331 N 
HETATM   14  C   UNL     1       5.541  29.889  57.033  1.00  0.00     0.074 A 
HETATM   15  C   UNL     1       9.105  29.505  56.588  1.00  0.00     0.176 A 
HETATM   16  H   UNL     1       8.110  30.726  58.039  1.00  0.00     0.168 HD
HETATM   17  S   UNL     1      10.700  29.731  56.932  1.00  0.00    -0.041 SA
HETATM   18  C   UNL     1       4.560  29.223  56.300  1.00  0.00     0.119 A 
HETATM   19  F   UNL     1       3.272  29.428  56.602  1.00  0.00    -0.206 F 
HETATM   20  C   UNL     1       4.877  28.338  55.253  1.00  0.00     0.061 A 
HETATM   21  H   UNL     1       9.101  28.074  54.974  1.00  0.00     0.168 HD
ENDBRANCH   5   9
BRANCH   1  22
HETATM   22  C   UNL     1       3.647  27.060  49.000  1.00  0.00     0.010 A 
HETATM   23  C   UNL     1       3.706  26.002  48.080  1.00  0.00     0.026 A 
HETATM   24  C   UNL     1       2.757  25.869  47.059  1.00  0.00     0.038 A 
HETATM   25  C   UNL     1       1.726  26.789  46.950  1.00  0.00     0.065 A 
HETATM   26  C   UNL     1       1.623  27.838  47.852  1.00  0.00     0.038 A 
HETATM   27  C   UNL     1       2.578  27.964  48.868  1.00  0.00     0.026 A 
BRANCH  25  28
HETATM   28  O   UNL     1       0.827  26.624  45.940  1.00  0.00    -0.361 OA
HETATM   29  H   UNL     1       0.828  27.425  45.392  1.00  0.00     0.217 HD
ENDBRANCH  25  28
ENDBRANCH   1  22
TORSDOF 3
ENDMDL
MODEL 10
REMARK VINA RESULT:      -8.7      2.397      3.089
REMARK  3 active torsions:
REMARK  status: ('A' for Active; 'I' for Inactive)
REMARK    1  A    between atoms: C_2  and  N_3 
REMARK       I    between atoms: N_6  and  C_7 
REMARK    2  A    between atoms: C_7  and  C_8 
REMARK    3  A    between atoms: C_24  and  O_25 
ROOT
HETATM    1  N   UNL     1       8.028  24.999  55.230  1.00  0.00    -0.280 NA
HETATM    2  C   UNL     1       8.113  24.999  56.715  1.00  0.00     0.115 C 
HETATM    3  C   UNL     1       8.355  26.419  57.260  1.00  0.00     0.141 C 
HETATM    4  N   UNL     1       7.396  27.390  56.724  1.00  0.00    -0.346 N 
HETATM    5  C   UNL     1       7.129  28.521  57.493  1.00  0.00     0.256 C 
HETATM    6  O   UNL     1       7.718  28.773  58.541  1.00  0.00    -0.267 OA
HETATM    7  C   UNL     1       7.320  27.379  55.254  1.00  0.00     0.141 C 
HETATM    8  C   UNL     1       7.037  25.967  54.711  1.00  0.00     0.115 C 
ENDROOT
BRANCH   5   9
HETATM    9  C   UNL     1       6.048  29.436  57.071  1.00  0.00     0.064 A 
HETATM   10  C   UNL     1       5.713  30.536  57.835  1.00  0.00     0.077 A 
HETATM   11  C   UNL     1       4.674  31.395  57.465  1.00  0.00     0.065 A 
HETATM   12  N   UNL     1       6.247  31.014  59.034  1.00  0.00    -0.330 N 
HETATM   13  N   UNL     1       4.577  32.398  58.428  1.00  0.00    -0.331 N 
HETATM   14  C   UNL     1       3.916  31.194  56.337  1.00  0.00     0.074 A 
HETATM   15  C   UNL     1       5.541  32.157  59.416  1.00  0.00     0.176 A 
HETATM   16  H   UNL     1       3.908  33.153  58.452  1.00  0.00     0.168 HD
HETATM   17  S   UNL     1       5.782  33.053  60.777  1.00  0.00    -0.041 SA
HETATM   18  C   UNL     1       4.226  30.065  55.580  1.00  0.00     0.119 A 
HETATM   19  F   UNL     1       3.510  29.804  54.479  1.00  0.00    -0.206 F 
HETATM   20  C   UNL     1       5.265  29.185  55.935  1.00  0.00     0.061 A 
HETATM   21  H   UNL     1       6.969  30.548  59.572  1.00  0.00     0.168 HD
ENDBRANCH   5   9
BRANCH   1  22
HETATM   22  C   UNL     1       8.013  23.701  54.683  1.00  0.00     0.010 A 
HETATM   23  C   UNL     1       7.972  22.531  55.458  1.00  0.00     0.026 A 
HETATM   24  C   UNL     1       7.961  21.263  54.866  1.00  0.00     0.038 A 
HETATM   25  C   UNL     1       7.981  21.145  53.485  1.00  0.00     0.065 A 
HETATM   26  C   UNL     1       8.002  22.278  52.684  1.00  0.00     0.038 A 
HETATM   27  C   UNL     1       8.014  23.542  53.286  1.00  0.00     0.026 A 
BRANCH  25  28
HETATM   28  O   UNL     1       7.973  19.892  52.951  1.00  0.00    -0.361 OA
HETATM   29  H   UNL     1       7.750  19.259  53.653  1.00  0.00     0.217 HD
ENDBRANCH  25  28
ENDBRANCH   1  22
TORSDOF 3
ENDMDL
