MODEL 1
REMARK VINA RESULT:     -13.1      0.000      0.000
REMARK  8 active torsions:
REMARK  status: ('A' for Active; 'I' for Inactive)
REMARK    1  A    between atoms: C_5  and  N_6 
REMARK       I    between atoms: N_6  and  C_7 
REMARK    2  A    between atoms: C_7  and  C_8 
REMARK    3  A    between atoms: C_8  and  N_9 
REMARK    4  A    between atoms: N_12  and  C_13 
REMARK    5  A    between atoms: C_13  and  C_14 
REMARK    6  A    between atoms: C_17  and  C_18 
REMARK       I    between atoms: C_18  and  N_19 
REMARK    7  A    between atoms: N_19  and  C_20 
REMARK    8  A    between atoms: C_20  and  C_21 
ROOT
HETATM    1  N   UNL     1       6.845  25.782  53.195  1.00  0.00    -0.290 N 
HETATM    2  C   UNL     1       6.337  26.794  54.000  1.00  0.00     0.332 C 
HETATM    3  O   UNL     1       6.192  27.935  53.556  1.00  0.00    -0.246 OA
HETATM    4  N   UNL     1       5.984  26.451  55.297  1.00  0.00    -0.261 N 
HETATM    5  C   UNL     1       6.168  25.191  55.850  1.00  0.00     0.264 C 
HETATM    6  O   UNL     1       5.698  24.831  56.927  1.00  0.00    -0.267 OA
HETATM    7  C   UNL     1       6.935  24.222  55.052  1.00  0.00     0.059 A 
HETATM    8  C   UNL     1       7.222  24.517  53.721  1.00  0.00     0.055 A 
HETATM    9  C   UNL     1       7.294  22.989  55.618  1.00  0.00     0.019 A 
HETATM   10  C   UNL     1       7.955  22.037  54.847  1.00  0.00     0.001 A 
HETATM   11  C   UNL     1       8.244  22.314  53.515  1.00  0.00     0.002 A 
HETATM   12  C   UNL     1       7.878  23.544  52.954  1.00  0.00     0.031 A 
ENDROOT
BRANCH   4  13
HETATM   13  C   UNL     1       5.144  27.384  56.037  1.00  0.00     0.175 C 
BRANCH  13  14
HETATM   14  C   UNL     1       5.898  28.422  56.840  1.00  0.00    -0.040 A 
HETATM   15  C   UNL     1       5.320  29.660  57.152  1.00  0.00     0.010 A 
HETATM   16  C   UNL     1       5.989  30.568  57.986  1.00  0.00     0.017 A 
HETATM   17  C   UNL     1       7.252  30.252  58.506  1.00  0.00     0.032 A 
HETATM   18  C   UNL     1       7.838  29.026  58.175  1.00  0.00     0.017 A 
HETATM   19  C   UNL     1       7.171  28.123  57.347  1.00  0.00     0.010 A 
BRANCH  17  20
HETATM   20  C   UNL     1       7.985  31.134  59.461  1.00  0.00     0.251 C 
HETATM   21  N   UNL     1       7.878  30.836  60.801  1.00  0.00    -0.353 N 
HETATM   22  H   UNL     1       7.222  30.142  61.122  1.00  0.00     0.163 HD
HETATM   23  O   UNL     1       8.633  32.084  59.036  1.00  0.00    -0.268 OA
BRANCH  21  24
HETATM   24  C   UNL     1       8.553  31.628  61.807  1.00  0.00     0.161 C 
BRANCH  24  25
HETATM   25  C   UNL     1       7.566  32.320  62.713  1.00  0.00    -0.038 A 
HETATM   26  C   UNL     1       6.204  32.366  62.376  1.00  0.00     0.048 A 
HETATM   27  C   UNL     1       5.338  32.989  63.250  1.00  0.00     0.105 A 
HETATM   28  C   UNL     1       5.775  33.558  64.423  1.00  0.00     0.105 A 
HETATM   29  O   UNL     1       3.995  33.117  63.080  1.00  0.00    -0.323 OA
HETATM   30  O   UNL     1       4.762  34.117  65.138  1.00  0.00    -0.323 OA
HETATM   31  C   UNL     1       7.102  33.533  64.791  1.00  0.00     0.040 A 
HETATM   32  C   UNL     1       3.634  33.817  64.289  1.00  0.00     0.352 A 
HETATM   33  C   UNL     1       8.003  32.902  63.927  1.00  0.00     0.012 A 
ENDBRANCH  24  25
ENDBRANCH  21  24
ENDBRANCH  17  20
ENDBRANCH  13  14
ENDBRANCH   4  13
BRANCH   1  34
HETATM   34  C   UNL     1       6.829  25.992  51.741  1.00  0.00     0.237 C 
BRANCH  34  35
HETATM   35  C   UNL     1       5.484  25.847  51.030  1.00  0.00     0.240 C 
HETATM   36  N   UNL     1       5.337  26.646  49.914  1.00  0.00    -0.326 N 
HETATM   37  H   UNL     1       6.128  27.232  49.674  1.00  0.00     0.169 HD
HETATM   38  O   UNL     1       4.614  25.141  51.537  1.00  0.00    -0.271 OA
BRANCH  36  39
HETATM   39  C   UNL     1       4.187  26.773  49.106  1.00  0.00     0.034 A 
HETATM   40  C   UNL     1       3.874  25.913  48.051  1.00  0.00     0.030 A 
HETATM   41  C   UNL     1       2.705  26.092  47.302  1.00  0.00     0.009 A 
HETATM   42  C   UNL     1       1.824  27.134  47.597  1.00  0.00    -0.062 A 
HETATM   43  C   UNL     1       0.582  27.339  46.783  1.00  0.00     0.048 C 
HETATM   44  C   UNL     1       2.144  28.010  48.639  1.00  0.00     0.009 A 
HETATM   45  C   UNL     1       3.312  27.827  49.389  1.00  0.00     0.030 A 
ENDBRANCH  36  39
ENDBRANCH  34  35
ENDBRANCH   1  34
TORSDOF 8
ENDMDL
MODEL 2
REMARK VINA RESULT:     -11.1      3.181     12.661
REMARK  8 active torsions:
REMARK  status: ('A' for Active; 'I' for Inactive)
REMARK    1  A    between atoms: C_5  and  N_6 
REMARK       I    between atoms: N_6  and  C_7 
REMARK    2  A    between atoms: C_7  and  C_8 
REMARK    3  A    between atoms: C_8  and  N_9 
REMARK    4  A    between atoms: N_12  and  C_13 
REMARK    5  A    between atoms: C_13  and  C_14 
REMARK    6  A    between atoms: C_17  and  C_18 
REMARK       I    between atoms: C_18  and  N_19 
REMARK    7  A    between atoms: N_19  and  C_20 
REMARK    8  A    between atoms: C_20  and  C_21 
ROOT
HETATM    1  N   UNL     1       5.290  32.203  59.845  1.00  0.00    -0.290 N 
HETATM    2  C   UNL     1       4.457  31.524  58.963  1.00  0.00     0.332 C 
HETATM    3  O   UNL     1       3.236  31.523  59.131  1.00  0.00    -0.246 OA
HETATM    4  N   UNL     1       5.061  30.883  57.892  1.00  0.00    -0.261 N 
HETATM    5  C   UNL     1       6.433  30.824  57.688  1.00  0.00     0.264 C 
HETATM    6  O   UNL     1       6.964  30.418  56.657  1.00  0.00    -0.267 OA
HETATM    7  C   UNL     1       7.287  31.336  58.771  1.00  0.00     0.059 A 
HETATM    8  C   UNL     1       6.703  32.057  59.811  1.00  0.00     0.055 A 
HETATM    9  C   UNL     1       8.677  31.159  58.700  1.00  0.00     0.019 A 
HETATM   10  C   UNL     1       9.498  31.704  59.681  1.00  0.00     0.001 A 
HETATM   11  C   UNL     1       8.932  32.431  60.723  1.00  0.00     0.002 A 
HETATM   12  C   UNL     1       7.545  32.610  60.787  1.00  0.00     0.031 A 
ENDROOT
BRANCH   4  13
HETATM   13  C   UNL     1       4.208  30.468  56.785  1.00  0.00     0.175 C 
BRANCH  13  14
HETATM   14  C   UNL     1       4.688  29.244  56.035  1.00  0.00    -0.040 A 
HETATM   15  C   UNL     1       4.891  28.023  56.692  1.00  0.00     0.010 A 
HETATM   16  C   UNL     1       5.232  26.873  55.966  1.00  0.00     0.017 A 
HETATM   17  C   UNL     1       5.388  26.935  54.574  1.00  0.00     0.032 A 
HETATM   18  C   UNL     1       5.208  28.160  53.922  1.00  0.00     0.017 A 
HETATM   19  C   UNL     1       4.868  29.303  54.646  1.00  0.00     0.010 A 
BRANCH  17  20
HETATM   20  C   UNL     1       5.672  25.738  53.730  1.00  0.00     0.251 C 
HETATM   21  N   UNL     1       6.985  25.506  53.388  1.00  0.00    -0.353 N 
HETATM   22  H   UNL     1       7.696  26.194  53.583  1.00  0.00     0.163 HD
HETATM   23  O   UNL     1       4.749  25.020  53.362  1.00  0.00    -0.268 OA
BRANCH  21  24
HETATM   24  C   UNL     1       7.366  24.370  52.576  1.00  0.00     0.161 C 
BRANCH  24  25
HETATM   25  C   UNL     1       7.696  23.172  53.429  1.00  0.00    -0.038 A 
HETATM   26  C   UNL     1       7.868  23.312  54.815  1.00  0.00     0.048 A 
HETATM   27  C   UNL     1       8.144  22.181  55.555  1.00  0.00     0.105 A 
HETATM   28  C   UNL     1       8.255  20.941  54.971  1.00  0.00     0.105 A 
HETATM   29  O   UNL     1       8.333  22.141  56.901  1.00  0.00    -0.323 OA
HETATM   30  O   UNL     1       8.528  19.964  55.877  1.00  0.00    -0.323 OA
HETATM   31  C   UNL     1       8.091  20.760  53.616  1.00  0.00     0.040 A 
HETATM   32  C   UNL     1       8.558  20.730  57.100  1.00  0.00     0.352 A 
HETATM   33  C   UNL     1       7.804  21.889  52.841  1.00  0.00     0.012 A 
ENDBRANCH  24  25
ENDBRANCH  21  24
ENDBRANCH  17  20
ENDBRANCH  13  14
ENDBRANCH   4  13
BRANCH   1  34
HETATM   34  C   UNL     1       4.682  33.216  60.717  1.00  0.00     0.237 C 
BRANCH  34  35
HETATM   35  C   UNL     1       4.727  32.956  62.223  1.00  0.00     0.240 C 
HETATM   36  N   UNL     1       5.216  34.007  62.971  1.00  0.00    -0.326 N 
HETATM   37  H   UNL     1       5.483  34.839  62.458  1.00  0.00     0.169 HD
HETATM   38  O   UNL     1       4.441  31.836  62.644  1.00  0.00    -0.271 OA
BRANCH  36  39
HETATM   39  C   UNL     1       5.434  34.028  64.366  1.00  0.00     0.034 A 
HETATM   40  C   UNL     1       6.689  33.888  64.963  1.00  0.00     0.030 A 
HETATM   41  C   UNL     1       6.830  33.934  66.354  1.00  0.00     0.009 A 
HETATM   42  C   UNL     1       5.718  34.126  67.177  1.00  0.00    -0.062 A 
HETATM   43  C   UNL     1       5.866  34.156  68.669  1.00  0.00     0.048 C 
HETATM   44  C   UNL     1       4.457  34.247  66.585  1.00  0.00     0.009 A 
HETATM   45  C   UNL     1       4.318  34.203  65.192  1.00  0.00     0.030 A 
ENDBRANCH  36  39
ENDBRANCH  34  35
ENDBRANCH   1  34
TORSDOF 8
ENDMDL
MODEL 3
REMARK VINA RESULT:     -10.9      3.478     12.481
REMARK  8 active torsions:
REMARK  status: ('A' for Active; 'I' for Inactive)
REMARK    1  A    between atoms: C_5  and  N_6 
REMARK       I    between atoms: N_6  and  C_7 
REMARK    2  A    between atoms: C_7  and  C_8 
REMARK    3  A    between atoms: C_8  and  N_9 
REMARK    4  A    between atoms: N_12  and  C_13 
REMARK    5  A    between atoms: C_13  and  C_14 
REMARK    6  A    between atoms: C_17  and  C_18 
REMARK       I    between atoms: C_18  and  N_19 
REMARK    7  A    between atoms: N_19  and  C_20 
REMARK    8  A    between atoms: C_20  and  C_21 
ROOT
HETATM    1  N   UNL     1       4.569  32.454  61.130  1.00  0.00    -0.290 N 
HETATM    2  C   UNL     1       4.432  32.130  59.785  1.00  0.00     0.332 C 
HETATM    3  O   UNL     1       3.314  31.988  59.286  1.00  0.00    -0.246 OA
HETATM    4  N   UNL     1       5.598  32.004  59.045  1.00  0.00    -0.261 N 
HETATM    5  C   UNL     1       6.877  32.116  59.574  1.00  0.00     0.264 C 
HETATM    6  O   UNL     1       7.902  32.186  58.900  1.00  0.00    -0.267 OA
HETATM    7  C   UNL     1       6.982  32.209  61.038  1.00  0.00     0.059 A 
HETATM    8  C   UNL     1       5.827  32.421  61.788  1.00  0.00     0.055 A 
HETATM    9  C   UNL     1       8.246  32.161  61.646  1.00  0.00     0.019 A 
HETATM   10  C   UNL     1       8.361  32.322  63.023  1.00  0.00     0.001 A 
HETATM   11  C   UNL     1       7.219  32.540  63.786  1.00  0.00     0.002 A 
HETATM   12  C   UNL     1       5.961  32.592  63.174  1.00  0.00     0.031 A 
ENDROOT
BRANCH   4  13
HETATM   13  C   UNL     1       5.479  32.011  57.591  1.00  0.00     0.175 C 
BRANCH  13  14
HETATM   14  C   UNL     1       5.566  30.648  56.939  1.00  0.00    -0.040 A 
HETATM   15  C   UNL     1       4.412  29.955  56.550  1.00  0.00     0.010 A 
HETATM   16  C   UNL     1       4.512  28.743  55.851  1.00  0.00     0.017 A 
HETATM   17  C   UNL     1       5.770  28.203  55.546  1.00  0.00     0.032 A 
HETATM   18  C   UNL     1       6.921  28.885  55.957  1.00  0.00     0.017 A 
HETATM   19  C   UNL     1       6.819  30.091  56.650  1.00  0.00     0.010 A 
BRANCH  17  20
HETATM   20  C   UNL     1       5.952  26.962  54.739  1.00  0.00     0.251 C 
HETATM   21  N   UNL     1       7.241  26.605  54.416  1.00  0.00    -0.353 N 
HETATM   22  H   UNL     1       8.009  27.233  54.598  1.00  0.00     0.163 HD
HETATM   23  O   UNL     1       4.971  26.319  54.383  1.00  0.00    -0.268 OA
BRANCH  21  24
HETATM   24  C   UNL     1       7.525  25.418  53.639  1.00  0.00     0.161 C 
BRANCH  24  25
HETATM   25  C   UNL     1       7.783  24.228  54.529  1.00  0.00    -0.038 A 
HETATM   26  C   UNL     1       7.734  22.926  54.007  1.00  0.00     0.048 A 
HETATM   27  C   UNL     1       8.003  21.874  54.856  1.00  0.00     0.105 A 
HETATM   28  C   UNL     1       8.309  22.070  56.182  1.00  0.00     0.105 A 
HETATM   29  O   UNL     1       8.003  20.558  54.513  1.00  0.00    -0.323 OA
HETATM   30  O   UNL     1       8.541  20.903  56.840  1.00  0.00    -0.323 OA
HETATM   31  C   UNL     1       8.369  23.331  56.733  1.00  0.00     0.040 A 
HETATM   32  C   UNL     1       8.363  19.950  55.771  1.00  0.00     0.352 A 
HETATM   33  C   UNL     1       8.108  24.419  55.893  1.00  0.00     0.012 A 
ENDBRANCH  24  25
ENDBRANCH  21  24
ENDBRANCH  17  20
ENDBRANCH  13  14
ENDBRANCH   4  13
BRANCH   1  34
HETATM   34  C   UNL     1       3.396  32.998  61.825  1.00  0.00     0.237 C 
BRANCH  34  35
HETATM   35  C   UNL     1       3.518  34.410  62.397  1.00  0.00     0.240 C 
HETATM   36  N   UNL     1       4.252  35.282  61.618  1.00  0.00    -0.326 N 
HETATM   37  H   UNL     1       4.622  34.908  60.752  1.00  0.00     0.169 HD
HETATM   38  O   UNL     1       3.068  34.641  63.518  1.00  0.00    -0.271 OA
BRANCH  36  39
HETATM   39  C   UNL     1       4.587  36.619  61.924  1.00  0.00     0.034 A 
HETATM   40  C   UNL     1       3.866  37.727  61.475  1.00  0.00     0.030 A 
HETATM   41  C   UNL     1       4.250  39.025  61.832  1.00  0.00     0.009 A 
HETATM   42  C   UNL     1       5.361  39.238  62.651  1.00  0.00    -0.062 A 
HETATM   43  C   UNL     1       5.784  40.629  63.019  1.00  0.00     0.048 C 
HETATM   44  C   UNL     1       6.097  38.132  63.087  1.00  0.00     0.009 A 
HETATM   45  C   UNL     1       5.710  36.835  62.731  1.00  0.00     0.030 A 
ENDBRANCH  36  39
ENDBRANCH  34  35
ENDBRANCH   1  34
TORSDOF 8
ENDMDL
MODEL 4
REMARK VINA RESULT:     -10.3      3.185     13.152
REMARK  8 active torsions:
REMARK  status: ('A' for Active; 'I' for Inactive)
REMARK    1  A    between atoms: C_5  and  N_6 
REMARK       I    between atoms: N_6  and  C_7 
REMARK    2  A    between atoms: C_7  and  C_8 
REMARK    3  A    between atoms: C_8  and  N_9 
REMARK    4  A    between atoms: N_12  and  C_13 
REMARK    5  A    between atoms: C_13  and  C_14 
REMARK    6  A    between atoms: C_17  and  C_18 
REMARK       I    between atoms: C_18  and  N_19 
REMARK    7  A    between atoms: N_19  and  C_20 
REMARK    8  A    between atoms: C_20  and  C_21 
ROOT
HETATM    1  N   UNL     1       4.584  32.446  61.399  1.00  0.00    -0.290 N 
HETATM    2  C   UNL     1       3.981  32.409  60.147  1.00  0.00     0.332 C 
HETATM    3  O   UNL     1       2.754  32.466  60.041  1.00  0.00    -0.246 OA
HETATM    4  N   UNL     1       4.820  32.331  59.045  1.00  0.00    -0.261 N 
HETATM    5  C   UNL     1       6.202  32.224  59.121  1.00  0.00     0.264 C 
HETATM    6  O   UNL     1       6.959  32.336  58.159  1.00  0.00    -0.267 OA
HETATM    7  C   UNL     1       6.779  32.015  60.457  1.00  0.00     0.059 A 
HETATM    8  C   UNL     1       5.967  32.174  61.578  1.00  0.00     0.055 A 
HETATM    9  C   UNL     1       8.149  31.737  60.585  1.00  0.00     0.019 A 
HETATM   10  C   UNL     1       8.717  31.611  61.848  1.00  0.00     0.001 A 
HETATM   11  C   UNL     1       7.922  31.773  62.978  1.00  0.00     0.002 A 
HETATM   12  C   UNL     1       6.557  32.055  62.845  1.00  0.00     0.031 A 
ENDROOT
BRANCH   4  13
HETATM   13  C   UNL     1       4.248  32.636  57.739  1.00  0.00     0.175 C 
BRANCH  13  14
HETATM   14  C   UNL     1       4.100  31.446  56.816  1.00  0.00    -0.040 A 
HETATM   15  C   UNL     1       3.384  31.544  55.615  1.00  0.00     0.010 A 
HETATM   16  C   UNL     1       3.346  30.465  54.720  1.00  0.00     0.017 A 
HETATM   17  C   UNL     1       4.012  29.269  55.024  1.00  0.00     0.032 A 
HETATM   18  C   UNL     1       4.706  29.165  56.234  1.00  0.00     0.017 A 
HETATM   19  C   UNL     1       4.745  30.239  57.122  1.00  0.00     0.010 A 
BRANCH  17  20
HETATM   20  C   UNL     1       4.079  28.111  54.085  1.00  0.00     0.251 C 
HETATM   21  N   UNL     1       4.804  27.014  54.492  1.00  0.00    -0.353 N 
HETATM   22  H   UNL     1       5.375  27.054  55.322  1.00  0.00     0.163 HD
HETATM   23  O   UNL     1       3.513  28.175  53.000  1.00  0.00    -0.268 OA
BRANCH  21  24
HETATM   24  C   UNL     1       4.929  25.838  53.656  1.00  0.00     0.161 C 
BRANCH  24  25
HETATM   25  C   UNL     1       5.997  24.908  54.174  1.00  0.00    -0.038 A 
HETATM   26  C   UNL     1       6.631  24.003  53.308  1.00  0.00     0.048 A 
HETATM   27  C   UNL     1       7.619  23.192  53.824  1.00  0.00     0.105 A 
HETATM   28  C   UNL     1       7.988  23.249  55.147  1.00  0.00     0.105 A 
HETATM   29  O   UNL     1       8.332  22.269  53.125  1.00  0.00    -0.323 OA
HETATM   30  O   UNL     1       8.980  22.368  55.448  1.00  0.00    -0.323 OA
HETATM   31  C   UNL     1       7.393  24.124  56.029  1.00  0.00     0.040 A 
HETATM   32  C   UNL     1       9.205  21.764  54.157  1.00  0.00     0.352 A 
HETATM   33  C   UNL     1       6.391  24.964  55.532  1.00  0.00     0.012 A 
ENDBRANCH  24  25
ENDBRANCH  21  24
ENDBRANCH  17  20
ENDBRANCH  13  14
ENDBRANCH   4  13
BRANCH   1  34
HETATM   34  C   UNL     1       3.786  32.942  62.528  1.00  0.00     0.237 C 
BRANCH  34  35
HETATM   35  C   UNL     1       4.510  33.789  63.574  1.00  0.00     0.240 C 
HETATM   36  N   UNL     1       4.703  33.159  64.787  1.00  0.00    -0.326 N 
HETATM   37  H   UNL     1       4.360  32.208  64.859  1.00  0.00     0.169 HD
HETATM   38  O   UNL     1       4.766  34.964  63.318  1.00  0.00    -0.271 OA
BRANCH  36  39
HETATM   39  C   UNL     1       5.276  33.715  65.952  1.00  0.00     0.034 A 
HETATM   40  C   UNL     1       6.650  33.830  66.168  1.00  0.00     0.030 A 
HETATM   41  C   UNL     1       7.146  34.408  67.343  1.00  0.00     0.009 A 
HETATM   42  C   UNL     1       6.273  34.885  68.323  1.00  0.00    -0.062 A 
HETATM   43  C   UNL     1       6.803  35.486  69.591  1.00  0.00     0.048 C 
HETATM   44  C   UNL     1       4.896  34.753  68.120  1.00  0.00     0.009 A 
HETATM   45  C   UNL     1       4.403  34.178  66.943  1.00  0.00     0.030 A 
ENDBRANCH  36  39
ENDBRANCH  34  35
ENDBRANCH   1  34
TORSDOF 8
ENDMDL
MODEL 5
REMARK VINA RESULT:     -10.2      3.607     10.859
REMARK  8 active torsions:
REMARK  status: ('A' for Active; 'I' for Inactive)
REMARK    1  A    between atoms: C_5  and  N_6 
REMARK       I    between atoms: N_6  and  C_7 
REMARK    2  A    between atoms: C_7  and  C_8 
REMARK    3  A    between atoms: C_8  and  N_9 
REMARK    4  A    between atoms: N_12  and  C_13 
REMARK    5  A    between atoms: C_13  and  C_14 
REMARK    6  A    between atoms: C_17  and  C_18 
REMARK       I    between atoms: C_18  and  N_19 
REMARK    7  A    between atoms: N_19  and  C_20 
REMARK    8  A    between atoms: C_20  and  C_21 
ROOT
HETATM    1  N   UNL     1       5.869  33.202  60.426  1.00  0.00    -0.290 N 
HETATM    2  C   UNL     1       6.437  32.486  59.380  1.00  0.00     0.332 C 
HETATM    3  O   UNL     1       5.884  32.439  58.280  1.00  0.00    -0.246 OA
HETATM    4  N   UNL     1       7.650  31.861  59.629  1.00  0.00    -0.261 N 
HETATM    5  C   UNL     1       8.287  31.854  60.863  1.00  0.00     0.264 C 
HETATM    6  O   UNL     1       9.437  31.462  61.047  1.00  0.00    -0.267 OA
HETATM    7  C   UNL     1       7.536  32.406  62.000  1.00  0.00     0.059 A 
HETATM    8  C   UNL     1       6.359  33.111  61.757  1.00  0.00     0.055 A 
HETATM    9  C   UNL     1       8.054  32.282  63.299  1.00  0.00     0.019 A 
HETATM   10  C   UNL     1       7.387  32.866  64.371  1.00  0.00     0.001 A 
HETATM   11  C   UNL     1       6.214  33.578  64.145  1.00  0.00     0.002 A 
HETATM   12  C   UNL     1       5.704  33.703  62.847  1.00  0.00     0.031 A 
ENDROOT
BRANCH   4  13
HETATM   13  C   UNL     1       8.424  31.406  58.481  1.00  0.00     0.175 C 
BRANCH  13  14
HETATM   14  C   UNL     1       7.902  30.150  57.818  1.00  0.00    -0.040 A 
HETATM   15  C   UNL     1       8.061  28.893  58.417  1.00  0.00     0.010 A 
HETATM   16  C   UNL     1       7.478  27.753  57.844  1.00  0.00     0.017 A 
HETATM   17  C   UNL     1       6.742  27.855  56.656  1.00  0.00     0.032 A 
HETATM   18  C   UNL     1       6.605  29.107  56.046  1.00  0.00     0.017 A 
HETATM   19  C   UNL     1       7.183  30.240  56.617  1.00  0.00     0.010 A 
BRANCH  17  20
HETATM   20  C   UNL     1       6.031  26.701  56.034  1.00  0.00     0.251 C 
HETATM   21  N   UNL     1       6.587  26.157  54.898  1.00  0.00    -0.353 N 
HETATM   22  H   UNL     1       7.359  26.612  54.436  1.00  0.00     0.163 HD
HETATM   23  O   UNL     1       4.989  26.289  56.532  1.00  0.00    -0.268 OA
BRANCH  21  24
HETATM   24  C   UNL     1       5.976  25.033  54.221  1.00  0.00     0.161 C 
BRANCH  24  25
HETATM   25  C   UNL     1       6.847  23.804  54.302  1.00  0.00    -0.038 A 
HETATM   26  C   UNL     1       7.186  23.256  55.549  1.00  0.00     0.048 A 
HETATM   27  C   UNL     1       7.964  22.117  55.569  1.00  0.00     0.105 A 
HETATM   28  C   UNL     1       8.407  21.520  54.412  1.00  0.00     0.105 A 
HETATM   29  O   UNL     1       8.376  21.458  56.685  1.00  0.00    -0.323 OA
HETATM   30  O   UNL     1       9.156  20.411  54.655  1.00  0.00    -0.323 OA
HETATM   31  C   UNL     1       8.095  22.026  53.170  1.00  0.00     0.040 A 
HETATM   32  C   UNL     1       9.116  20.368  56.097  1.00  0.00     0.352 A 
HETATM   33  C   UNL     1       7.302  23.176  53.119  1.00  0.00     0.012 A 
ENDBRANCH  24  25
ENDBRANCH  21  24
ENDBRANCH  17  20
ENDBRANCH  13  14
ENDBRANCH   4  13
BRANCH   1  34
HETATM   34  C   UNL     1       4.840  34.197  60.094  1.00  0.00     0.237 C 
BRANCH  34  35
HETATM   35  C   UNL     1       3.703  33.744  59.179  1.00  0.00     0.240 C 
HETATM   36  N   UNL     1       3.685  34.357  57.942  1.00  0.00    -0.326 N 
HETATM   37  H   UNL     1       4.422  35.028  57.762  1.00  0.00     0.169 HD
HETATM   38  O   UNL     1       2.848  32.979  59.622  1.00  0.00    -0.271 OA
BRANCH  36  39
HETATM   39  C   UNL     1       2.719  34.190  56.925  1.00  0.00     0.034 A 
HETATM   40  C   UNL     1       1.680  35.089  56.679  1.00  0.00     0.030 A 
HETATM   41  C   UNL     1       0.768  34.864  55.641  1.00  0.00     0.009 A 
HETATM   42  C   UNL     1       0.882  33.736  54.827  1.00  0.00    -0.062 A 
HETATM   43  C   UNL     1      -0.106  33.483  53.727  1.00  0.00     0.048 C 
HETATM   44  C   UNL     1       1.909  32.822  55.082  1.00  0.00     0.009 A 
HETATM   45  C   UNL     1       2.822  33.051  56.119  1.00  0.00     0.030 A 
ENDBRANCH  36  39
ENDBRANCH  34  35
ENDBRANCH   1  34
TORSDOF 8
ENDMDL
MODEL 6
REMARK VINA RESULT:     -10.2      5.451     10.626
REMARK  8 active torsions:
REMARK  status: ('A' for Active; 'I' for Inactive)
REMARK    1  A    between atoms: C_5  and  N_6 
REMARK       I    between atoms: N_6  and  C_7 
REMARK    2  A    between atoms: C_7  and  C_8 
REMARK    3  A    between atoms: C_8  and  N_9 
REMARK    4  A    between atoms: N_12  and  C_13 
REMARK    5  A    between atoms: C_13  and  C_14 
REMARK    6  A    between atoms: C_17  and  C_18 
REMARK       I    between atoms: C_18  and  N_19 
REMARK    7  A    between atoms: N_19  and  C_20 
REMARK    8  A    between atoms: C_20  and  C_21 
ROOT
HETATM    1  N   UNL     1       1.921  30.689  47.601  1.00  0.00    -0.290 N 
HETATM    2  C   UNL     1       3.237  30.242  47.585  1.00  0.00     0.332 C 
HETATM    3  O   UNL     1       4.160  31.004  47.876  1.00  0.00    -0.246 OA
HETATM    4  N   UNL     1       3.447  28.911  47.257  1.00  0.00    -0.261 N 
HETATM    5  C   UNL     1       2.440  28.029  46.884  1.00  0.00     0.264 C 
HETATM    6  O   UNL     1       2.591  26.815  46.768  1.00  0.00    -0.267 OA
HETATM    7  C   UNL     1       1.103  28.601  46.670  1.00  0.00     0.059 A 
HETATM    8  C   UNL     1       0.854  29.912  47.074  1.00  0.00     0.055 A 
HETATM    9  C   UNL     1       0.083  27.799  46.138  1.00  0.00     0.019 A 
HETATM   10  C   UNL     1      -1.204  28.310  46.001  1.00  0.00     0.001 A 
HETATM   11  C   UNL     1      -1.471  29.614  46.405  1.00  0.00     0.002 A 
HETATM   12  C   UNL     1      -0.450  30.410  46.941  1.00  0.00     0.031 A 
ENDROOT
BRANCH   4  13
HETATM   13  C   UNL     1       4.751  28.337  47.565  1.00  0.00     0.175 C 
BRANCH  13  14
HETATM   14  C   UNL     1       4.882  27.769  48.962  1.00  0.00    -0.040 A 
HETATM   15  C   UNL     1       4.617  26.418  49.225  1.00  0.00     0.010 A 
HETATM   16  C   UNL     1       4.846  25.883  50.501  1.00  0.00     0.017 A 
HETATM   17  C   UNL     1       5.330  26.699  51.534  1.00  0.00     0.032 A 
HETATM   18  C   UNL     1       5.572  28.052  51.276  1.00  0.00     0.017 A 
HETATM   19  C   UNL     1       5.345  28.583  50.006  1.00  0.00     0.010 A 
BRANCH  17  20
HETATM   20  C   UNL     1       5.671  26.181  52.891  1.00  0.00     0.251 C 
HETATM   21  N   UNL     1       7.001  26.167  53.243  1.00  0.00    -0.353 N 
HETATM   22  H   UNL     1       7.715  26.365  52.559  1.00  0.00     0.163 HD
HETATM   23  O   UNL     1       4.779  25.779  53.630  1.00  0.00    -0.268 OA
BRANCH  21  24
HETATM   24  C   UNL     1       7.436  25.687  54.537  1.00  0.00     0.161 C 
BRANCH  24  25
HETATM   25  C   UNL     1       7.732  24.209  54.504  1.00  0.00    -0.038 A 
HETATM   26  C   UNL     1       7.841  23.479  55.698  1.00  0.00     0.048 A 
HETATM   27  C   UNL     1       8.088  22.124  55.613  1.00  0.00     0.105 A 
HETATM   28  C   UNL     1       8.229  21.487  54.403  1.00  0.00     0.105 A 
HETATM   29  O   UNL     1       8.216  21.275  56.666  1.00  0.00    -0.323 OA
HETATM   30  O   UNL     1       8.465  20.155  54.543  1.00  0.00    -0.323 OA
HETATM   31  C   UNL     1       8.128  22.166  53.209  1.00  0.00     0.040 A 
HETATM   32  C   UNL     1       8.437  20.025  55.980  1.00  0.00     0.352 A 
HETATM   33  C   UNL     1       7.871  23.539  53.264  1.00  0.00     0.012 A 
ENDBRANCH  24  25
ENDBRANCH  21  24
ENDBRANCH  17  20
ENDBRANCH  13  14
ENDBRANCH   4  13
BRANCH   1  34
HETATM   34  C   UNL     1       1.629  31.929  48.332  1.00  0.00     0.237 C 
BRANCH  34  35
HETATM   35  C   UNL     1       1.418  31.814  49.842  1.00  0.00     0.240 C 
HETATM   36  N   UNL     1       2.567  31.962  50.593  1.00  0.00    -0.326 N 
HETATM   37  H   UNL     1       3.421  32.140  50.078  1.00  0.00     0.169 HD
HETATM   38  O   UNL     1       0.308  31.501  50.267  1.00  0.00    -0.271 OA
BRANCH  36  39
HETATM   39  C   UNL     1       2.687  31.837  51.994  1.00  0.00     0.034 A 
HETATM   40  C   UNL     1       2.178  32.763  52.907  1.00  0.00     0.030 A 
HETATM   41  C   UNL     1       2.323  32.565  54.285  1.00  0.00     0.009 A 
HETATM   42  C   UNL     1       2.976  31.433  54.776  1.00  0.00    -0.062 A 
HETATM   43  C   UNL     1       3.149  31.229  56.252  1.00  0.00     0.048 C 
HETATM   44  C   UNL     1       3.505  30.513  53.865  1.00  0.00     0.009 A 
HETATM   45  C   UNL     1       3.356  30.712  52.487  1.00  0.00     0.030 A 
ENDBRANCH  36  39
ENDBRANCH  34  35
ENDBRANCH   1  34
TORSDOF 8
ENDMDL
MODEL 7
REMARK VINA RESULT:     -10.2      3.713     11.695
REMARK  8 active torsions:
REMARK  status: ('A' for Active; 'I' for Inactive)
REMARK    1  A    between atoms: C_5  and  N_6 
REMARK       I    between atoms: N_6  and  C_7 
REMARK    2  A    between atoms: C_7  and  C_8 
REMARK    3  A    between atoms: C_8  and  N_9 
REMARK    4  A    between atoms: N_12  and  C_13 
REMARK    5  A    between atoms: C_13  and  C_14 
REMARK    6  A    between atoms: C_17  and  C_18 
REMARK       I    between atoms: C_18  and  N_19 
REMARK    7  A    between atoms: N_19  and  C_20 
REMARK    8  A    between atoms: C_20  and  C_21 
ROOT
HETATM    1  N   UNL     1       5.210  32.986  61.066  1.00  0.00    -0.290 N 
HETATM    2  C   UNL     1       5.728  32.407  59.914  1.00  0.00     0.332 C 
HETATM    3  O   UNL     1       5.011  32.230  58.927  1.00  0.00    -0.246 OA
HETATM    4  N   UNL     1       7.073  32.071  59.926  1.00  0.00    -0.261 N 
HETATM    5  C   UNL     1       7.905  32.216  61.028  1.00  0.00     0.264 C 
HETATM    6  O   UNL     1       9.128  32.092  60.994  1.00  0.00    -0.267 OA
HETATM    7  C   UNL     1       7.266  32.594  62.297  1.00  0.00     0.059 A 
HETATM    8  C   UNL     1       5.938  33.016  62.286  1.00  0.00     0.055 A 
HETATM    9  C   UNL     1       8.021  32.599  63.479  1.00  0.00     0.019 A 
HETATM   10  C   UNL     1       7.444  33.026  64.671  1.00  0.00     0.001 A 
HETATM   11  C   UNL     1       6.121  33.456  64.677  1.00  0.00     0.002 A 
HETATM   12  C   UNL     1       5.373  33.454  63.493  1.00  0.00     0.031 A 
ENDROOT
BRANCH   4  13
HETATM   13  C   UNL     1       7.711  31.792  58.645  1.00  0.00     0.175 C 
BRANCH  13  14
HETATM   14  C   UNL     1       7.283  30.498  57.989  1.00  0.00    -0.040 A 
HETATM   15  C   UNL     1       7.782  29.263  58.426  1.00  0.00     0.010 A 
HETATM   16  C   UNL     1       7.296  28.066  57.880  1.00  0.00     0.017 A 
HETATM   17  C   UNL     1       6.315  28.091  56.879  1.00  0.00     0.032 A 
HETATM   18  C   UNL     1       5.836  29.325  56.426  1.00  0.00     0.017 A 
HETATM   19  C   UNL     1       6.319  30.515  56.971  1.00  0.00     0.010 A 
BRANCH  17  20
HETATM   20  C   UNL     1       5.697  26.858  56.310  1.00  0.00     0.251 C 
HETATM   21  N   UNL     1       6.069  26.498  55.035  1.00  0.00    -0.353 N 
HETATM   22  H   UNL     1       6.625  27.120  54.467  1.00  0.00     0.163 HD
HETATM   23  O   UNL     1       4.883  26.225  56.973  1.00  0.00    -0.268 OA
BRANCH  21  24
HETATM   24  C   UNL     1       5.530  25.318  54.394  1.00  0.00     0.161 C 
BRANCH  24  25
HETATM   25  C   UNL     1       6.539  24.198  54.368  1.00  0.00    -0.038 A 
HETATM   26  C   UNL     1       6.942  23.577  55.561  1.00  0.00     0.048 A 
HETATM   27  C   UNL     1       7.848  22.541  55.482  1.00  0.00     0.105 A 
HETATM   28  C   UNL     1       8.358  22.112  54.279  1.00  0.00     0.105 A 
HETATM   29  O   UNL     1       8.336  21.833  56.535  1.00  0.00    -0.323 OA
HETATM   30  O   UNL     1       9.231  21.080  54.424  1.00  0.00    -0.323 OA
HETATM   31  C   UNL     1       7.986  22.693  53.086  1.00  0.00     0.040 A 
HETATM   32  C   UNL     1       9.199  20.897  55.854  1.00  0.00     0.352 A 
HETATM   33  C   UNL     1       7.064  23.742  53.135  1.00  0.00     0.012 A 
ENDBRANCH  24  25
ENDBRANCH  21  24
ENDBRANCH  17  20
ENDBRANCH  13  14
ENDBRANCH   4  13
BRANCH   1  34
HETATM   34  C   UNL     1       3.945  33.723  60.953  1.00  0.00     0.237 C 
BRANCH  34  35
HETATM   35  C   UNL     1       4.006  35.122  60.339  1.00  0.00     0.240 C 
HETATM   36  N   UNL     1       3.663  35.176  59.003  1.00  0.00    -0.326 N 
HETATM   37  H   UNL     1       3.398  34.298  58.571  1.00  0.00     0.169 HD
HETATM   38  O   UNL     1       4.444  36.051  61.014  1.00  0.00    -0.271 OA
BRANCH  36  39
HETATM   39  C   UNL     1       3.694  36.311  58.164  1.00  0.00     0.034 A 
HETATM   40  C   UNL     1       2.782  37.365  58.240  1.00  0.00     0.030 A 
HETATM   41  C   UNL     1       2.885  38.466  57.383  1.00  0.00     0.009 A 
HETATM   42  C   UNL     1       3.907  38.536  56.434  1.00  0.00    -0.062 A 
HETATM   43  C   UNL     1       4.007  39.706  55.502  1.00  0.00     0.048 C 
HETATM   44  C   UNL     1       4.811  37.473  56.340  1.00  0.00     0.009 A 
HETATM   45  C   UNL     1       4.708  36.373  57.201  1.00  0.00     0.030 A 
ENDBRANCH  36  39
ENDBRANCH  34  35
ENDBRANCH   1  34
TORSDOF 8
ENDMDL
