MODEL 1
REMARK VINA RESULT:      -9.4      0.000      0.000
REMARK  5 active torsions:
REMARK  status: ('A' for Active; 'I' for Inactive)
REMARK    1  A    between atoms: O_2  and  C_3 
REMARK    2  A    between atoms: C_6  and  N_7 
REMARK       I    between atoms: N_7  and  C_8 
REMARK    3  A    between atoms: C_8  and  C_9 
REMARK    4  A    between atoms: C_9  and  N_10 
REMARK    5  A    between atoms: N_10  and  C_11 
ROOT
HETATM    1  C   UNL     1       6.423  25.821  56.295  1.00  0.00     0.195 C 
ENDROOT
BRANCH   1   2
HETATM    2  C   UNL     1       7.325  26.652  57.217  1.00  0.00     0.235 C 
HETATM    3  N   UNL     1       7.533  27.943  56.759  1.00  0.00    -0.326 N 
HETATM    4  H   UNL     1       7.122  28.145  55.851  1.00  0.00     0.169 HD
HETATM    5  O   UNL     1       7.799  26.153  58.236  1.00  0.00    -0.272 OA
BRANCH   3   6
HETATM    6  C   UNL     1       8.250  28.974  57.397  1.00  0.00     0.034 A 
HETATM    7  C   UNL     1       9.579  29.291  57.105  1.00  0.00     0.032 A 
HETATM    8  C   UNL     1      10.240  30.325  57.782  1.00  0.00     0.039 A 
HETATM    9  C   UNL     1       9.579  31.057  58.764  1.00  0.00     0.068 A 
HETATM   10  C   UNL     1       8.253  30.739  59.065  1.00  0.00     0.039 A 
HETATM   11  C   UNL     1       7.591  29.708  58.386  1.00  0.00     0.032 A 
BRANCH   9  12
HETATM   12  O   UNL     1      10.108  32.086  59.493  1.00  0.00    -0.356 OA
HETATM   13  C   UNL     1       9.665  32.207  60.840  1.00  0.00     0.210 C 
ENDBRANCH   9  12
ENDBRANCH   3   6
ENDBRANCH   1   2
BRANCH   1  14
HETATM   14  N   UNL     1       6.715  24.364  56.405  1.00  0.00    -0.283 NA
HETATM   15  H   UNL     1       7.444  24.223  57.106  1.00  0.00     0.128 HD
BRANCH  14  16
HETATM   16  C   UNL     1       7.229  23.883  55.154  1.00  0.00     0.019 A 
HETATM   17  C   UNL     1       7.743  22.565  54.992  1.00  0.00    -0.005 A 
HETATM   18  C   UNL     1       8.066  22.113  53.687  1.00  0.00    -0.024 A 
HETATM   19  C   UNL     1       7.964  21.671  56.066  1.00  0.00     0.014 A 
HETATM   20  C   UNL     1       8.530  20.801  53.491  1.00  0.00     0.012 A 
HETATM   21  C   UNL     1       7.920  22.976  52.591  1.00  0.00     0.012 A 
HETATM   22  C   UNL     1       8.703  19.933  54.567  1.00  0.00     0.001 A 
HETATM   23  C   UNL     1       8.431  20.371  55.857  1.00  0.00     0.001 A 
HETATM   24  C   UNL     1       7.459  24.277  52.764  1.00  0.00     0.003 A 
HETATM   25  C   UNL     1       7.110  24.725  54.033  1.00  0.00     0.024 A 
ENDBRANCH  14  16
ENDBRANCH   1  14
TORSDOF 5
ENDMDL
MODEL 2
REMARK VINA RESULT:      -9.0      5.507      8.554
REMARK  5 active torsions:
REMARK  status: ('A' for Active; 'I' for Inactive)
REMARK    1  A    between atoms: O_2  and  C_3 
REMARK    2  A    between atoms: C_6  and  N_7 
REMARK       I    between atoms: N_7  and  C_8 
REMARK    3  A    between atoms: C_8  and  C_9 
REMARK    4  A    between atoms: C_9  and  N_10 
REMARK    5  A    between atoms: N_10  and  C_11 
ROOT
HETATM    1  C   UNL     1       6.862  25.962  51.982  1.00  0.00     0.195 C 
ENDROOT
BRANCH   1   2
HETATM    2  C   UNL     1       5.512  25.838  51.265  1.00  0.00     0.235 C 
HETATM    3  N   UNL     1       5.375  26.713  50.200  1.00  0.00    -0.326 N 
HETATM    4  H   UNL     1       6.151  27.360  50.078  1.00  0.00     0.169 HD
HETATM    5  O   UNL     1       4.670  25.034  51.663  1.00  0.00    -0.272 OA
BRANCH   3   6
HETATM    6  C   UNL     1       4.296  26.808  49.301  1.00  0.00     0.034 A 
HETATM    7  C   UNL     1       3.311  27.797  49.372  1.00  0.00     0.032 A 
HETATM    8  C   UNL     1       2.256  27.832  48.450  1.00  0.00     0.039 A 
HETATM    9  C   UNL     1       2.170  26.875  47.443  1.00  0.00     0.068 A 
HETATM   10  C   UNL     1       3.147  25.880  47.371  1.00  0.00     0.039 A 
HETATM   11  C   UNL     1       4.204  25.847  48.291  1.00  0.00     0.032 A 
BRANCH   9  12
HETATM   12  O   UNL     1       1.197  26.800  46.485  1.00  0.00    -0.356 OA
HETATM   13  C   UNL     1       0.105  27.704  46.612  1.00  0.00     0.210 C 
ENDBRANCH   9  12
ENDBRANCH   3   6
ENDBRANCH   1   2
BRANCH   1  14
HETATM   14  N   UNL     1       7.549  24.645  52.100  1.00  0.00    -0.283 NA
HETATM   15  H   UNL     1       7.050  23.959  51.531  1.00  0.00     0.128 HD
BRANCH  14  16
HETATM   16  C   UNL     1       7.487  24.193  53.461  1.00  0.00     0.019 A 
HETATM   17  C   UNL     1       7.741  22.842  53.832  1.00  0.00    -0.005 A 
HETATM   18  C   UNL     1       7.834  22.518  55.211  1.00  0.00    -0.024 A 
HETATM   19  C   UNL     1       7.900  21.789  52.902  1.00  0.00     0.014 A 
HETATM   20  C   UNL     1       8.131  21.203  55.606  1.00  0.00     0.012 A 
HETATM   21  C   UNL     1       7.630  23.512  56.179  1.00  0.00     0.012 A 
HETATM   22  C   UNL     1       8.318  20.195  54.663  1.00  0.00     0.001 A 
HETATM   23  C   UNL     1       8.190  20.485  53.310  1.00  0.00     0.001 A 
HETATM   24  C   UNL     1       7.338  24.821  55.807  1.00  0.00     0.003 A 
HETATM   25  C   UNL     1       7.273  25.160  54.460  1.00  0.00     0.024 A 
ENDBRANCH  14  16
ENDBRANCH   1  14
TORSDOF 5
ENDMDL
MODEL 3
REMARK VINA RESULT:      -8.6      1.433      1.716
REMARK  5 active torsions:
REMARK  status: ('A' for Active; 'I' for Inactive)
REMARK    1  A    between atoms: O_2  and  C_3 
REMARK    2  A    between atoms: C_6  and  N_7 
REMARK       I    between atoms: N_7  and  C_8 
REMARK    3  A    between atoms: C_8  and  C_9 
REMARK    4  A    between atoms: C_9  and  N_10 
REMARK    5  A    between atoms: N_10  and  C_11 
ROOT
HETATM    1  C   UNL     1       7.577  26.398  55.816  1.00  0.00     0.195 C 
ENDROOT
BRANCH   1   2
HETATM    2  C   UNL     1       7.608  27.237  57.100  1.00  0.00     0.235 C 
HETATM    3  N   UNL     1       7.492  28.598  56.868  1.00  0.00    -0.326 N 
HETATM    4  H   UNL     1       7.469  28.862  55.886  1.00  0.00     0.169 HD
HETATM    5  O   UNL     1       7.746  26.692  58.194  1.00  0.00    -0.272 OA
BRANCH   3   6
HETATM    6  C   UNL     1       7.418  29.628  57.825  1.00  0.00     0.034 A 
HETATM    7  C   UNL     1       8.381  29.838  58.816  1.00  0.00     0.032 A 
HETATM    8  C   UNL     1       8.245  30.878  59.745  1.00  0.00     0.039 A 
HETATM    9  C   UNL     1       7.140  31.724  59.697  1.00  0.00     0.068 A 
HETATM   10  C   UNL     1       6.172  31.514  58.714  1.00  0.00     0.039 A 
HETATM   11  C   UNL     1       6.309  30.477  57.782  1.00  0.00     0.032 A 
BRANCH   9  12
HETATM   12  O   UNL     1       6.892  32.771  60.541  1.00  0.00    -0.356 OA
HETATM   13  C   UNL     1       5.528  33.138  60.719  1.00  0.00     0.210 C 
ENDBRANCH   9  12
ENDBRANCH   3   6
ENDBRANCH   1   2
BRANCH   1  14
HETATM   14  N   UNL     1       7.022  25.037  56.058  1.00  0.00    -0.283 NA
HETATM   15  H   UNL     1       7.404  24.674  56.933  1.00  0.00     0.128 HD
BRANCH  14  16
HETATM   16  C   UNL     1       7.445  24.153  55.010  1.00  0.00     0.019 A 
HETATM   17  C   UNL     1       7.844  22.809  55.255  1.00  0.00    -0.005 A 
HETATM   18  C   UNL     1       8.078  21.952  54.148  1.00  0.00    -0.024 A 
HETATM   19  C   UNL     1       8.034  22.269  56.548  1.00  0.00     0.014 A 
HETATM   20  C   UNL     1       8.426  20.608  54.359  1.00  0.00     0.012 A 
HETATM   21  C   UNL     1       7.958  22.449  52.841  1.00  0.00     0.012 A 
HETATM   22  C   UNL     1       8.569  20.098  55.648  1.00  0.00     0.001 A 
HETATM   23  C   UNL     1       8.385  20.931  56.743  1.00  0.00     0.001 A 
HETATM   24  C   UNL     1       7.612  23.777  52.611  1.00  0.00     0.003 A 
HETATM   25  C   UNL     1       7.351  24.620  53.686  1.00  0.00     0.024 A 
ENDBRANCH  14  16
ENDBRANCH   1  14
TORSDOF 5
ENDMDL
MODEL 4
REMARK VINA RESULT:      -8.5      4.495      7.605
REMARK  5 active torsions:
REMARK  status: ('A' for Active; 'I' for Inactive)
REMARK    1  A    between atoms: O_2  and  C_3 
REMARK    2  A    between atoms: C_6  and  N_7 
REMARK       I    between atoms: N_7  and  C_8 
REMARK    3  A    between atoms: C_8  and  C_9 
REMARK    4  A    between atoms: C_9  and  N_10 
REMARK    5  A    between atoms: N_10  and  C_11 
ROOT
HETATM    1  C   UNL     1       5.765  27.642  54.718  1.00  0.00     0.195 C 
ENDROOT
BRANCH   1   2
HETATM    2  C   UNL     1       4.963  27.671  53.410  1.00  0.00     0.235 C 
HETATM    3  N   UNL     1       5.742  27.448  52.286  1.00  0.00    -0.326 N 
HETATM    4  H   UNL     1       6.739  27.362  52.468  1.00  0.00     0.169 HD
HETATM    5  O   UNL     1       3.755  27.898  53.428  1.00  0.00    -0.272 OA
BRANCH   3   6
HETATM    6  C   UNL     1       5.310  27.345  50.950  1.00  0.00     0.034 A 
HETATM    7  C   UNL     1       5.311  28.412  50.049  1.00  0.00     0.032 A 
HETATM    8  C   UNL     1       4.859  28.246  48.732  1.00  0.00     0.039 A 
HETATM    9  C   UNL     1       4.397  27.006  48.299  1.00  0.00     0.068 A 
HETATM   10  C   UNL     1       4.387  25.938  49.197  1.00  0.00     0.039 A 
HETATM   11  C   UNL     1       4.842  26.103  50.512  1.00  0.00     0.032 A 
BRANCH   9  12
HETATM   12  O   UNL     1       3.933  26.714  47.046  1.00  0.00    -0.356 OA
HETATM   13  C   UNL     1       2.849  25.796  46.965  1.00  0.00     0.210 C 
ENDBRANCH   9  12
ENDBRANCH   3   6
ENDBRANCH   1   2
BRANCH   1  14
HETATM   14  N   UNL     1       7.194  27.290  54.482  1.00  0.00    -0.283 NA
HETATM   15  H   UNL     1       7.321  27.065  53.494  1.00  0.00     0.128 HD
BRANCH  14  16
HETATM   16  C   UNL     1       7.527  26.113  55.232  1.00  0.00     0.019 A 
HETATM   17  C   UNL     1       7.745  24.848  54.617  1.00  0.00    -0.005 A 
HETATM   18  C   UNL     1       8.242  23.780  55.408  1.00  0.00    -0.024 A 
HETATM   19  C   UNL     1       7.484  24.583  53.253  1.00  0.00     0.014 A 
HETATM   20  C   UNL     1       8.512  22.533  54.818  1.00  0.00     0.012 A 
HETATM   21  C   UNL     1       8.467  23.970  56.779  1.00  0.00     0.012 A 
HETATM   22  C   UNL     1       8.278  22.316  53.462  1.00  0.00     0.001 A 
HETATM   23  C   UNL     1       7.752  23.337  52.681  1.00  0.00     0.001 A 
HETATM   24  C   UNL     1       8.209  25.197  57.381  1.00  0.00     0.003 A 
HETATM   25  C   UNL     1       7.750  26.262  56.614  1.00  0.00     0.024 A 
ENDBRANCH  14  16
ENDBRANCH   1  14
TORSDOF 5
ENDMDL
MODEL 5
REMARK VINA RESULT:      -8.3      8.546     14.877
REMARK  5 active torsions:
REMARK  status: ('A' for Active; 'I' for Inactive)
REMARK    1  A    between atoms: O_2  and  C_3 
REMARK    2  A    between atoms: C_6  and  N_7 
REMARK       I    between atoms: N_7  and  C_8 
REMARK    3  A    between atoms: C_8  and  C_9 
REMARK    4  A    between atoms: C_9  and  N_10 
REMARK    5  A    between atoms: N_10  and  C_11 
ROOT
HETATM    1  C   UNL     1       5.115  34.735  67.345  1.00  0.00     0.195 C 
ENDROOT
BRANCH   1   2
HETATM    2  C   UNL     1       5.220  34.018  65.992  1.00  0.00     0.235 C 
HETATM    3  N   UNL     1       6.407  34.277  65.327  1.00  0.00    -0.326 N 
HETATM    4  H   UNL     1       7.015  34.952  65.785  1.00  0.00     0.169 HD
HETATM    5  O   UNL     1       4.296  33.314  65.590  1.00  0.00    -0.272 OA
BRANCH   3   6
HETATM    6  C   UNL     1       6.843  33.728  64.105  1.00  0.00     0.034 A 
HETATM    7  C   UNL     1       7.891  32.811  63.996  1.00  0.00     0.032 A 
HETATM    8  C   UNL     1       8.283  32.307  62.748  1.00  0.00     0.039 A 
HETATM    9  C   UNL     1       7.631  32.718  61.589  1.00  0.00     0.068 A 
HETATM   10  C   UNL     1       6.588  33.641  61.691  1.00  0.00     0.039 A 
HETATM   11  C   UNL     1       6.194  34.141  62.939  1.00  0.00     0.032 A 
BRANCH   9  12
HETATM   12  O   UNL     1       7.915  32.303  60.317  1.00  0.00    -0.356 OA
HETATM   13  C   UNL     1       8.226  30.925  60.149  1.00  0.00     0.210 C 
ENDBRANCH   9  12
ENDBRANCH   3   6
ENDBRANCH   1   2
BRANCH   1  14
HETATM   14  N   UNL     1       5.200  33.780  68.485  1.00  0.00    -0.283 NA
HETATM   15  H   UNL     1       4.310  33.783  68.987  1.00  0.00     0.128 HD
BRANCH  14  16
HETATM   16  C   UNL     1       6.209  34.221  69.405  1.00  0.00     0.019 A 
HETATM   17  C   UNL     1       6.732  33.381  70.429  1.00  0.00    -0.005 A 
HETATM   18  C   UNL     1       7.848  33.833  71.180  1.00  0.00    -0.024 A 
HETATM   19  C   UNL     1       6.197  32.113  70.754  1.00  0.00     0.014 A 
HETATM   20  C   UNL     1       8.416  33.007  72.163  1.00  0.00     0.012 A 
HETATM   21  C   UNL     1       8.386  35.106  70.937  1.00  0.00     0.012 A 
HETATM   22  C   UNL     1       7.887  31.747  72.435  1.00  0.00     0.001 A 
HETATM   23  C   UNL     1       6.770  31.304  71.739  1.00  0.00     0.001 A 
HETATM   24  C   UNL     1       7.839  35.938  69.966  1.00  0.00     0.003 A 
HETATM   25  C   UNL     1       6.764  35.498  69.201  1.00  0.00     0.024 A 
ENDBRANCH  14  16
ENDBRANCH   1  14
TORSDOF 5
ENDMDL
MODEL 6
REMARK VINA RESULT:      -8.3      1.519      2.564
REMARK  5 active torsions:
REMARK  status: ('A' for Active; 'I' for Inactive)
REMARK    1  A    between atoms: O_2  and  C_3 
REMARK    2  A    between atoms: C_6  and  N_7 
REMARK       I    between atoms: N_7  and  C_8 
REMARK    3  A    between atoms: C_8  and  C_9 
REMARK    4  A    between atoms: C_9  and  N_10 
REMARK    5  A    between atoms: N_10  and  C_11 
ROOT
HETATM    1  C   UNL     1       6.044  25.513  55.019  1.00  0.00     0.195 C 
ENDROOT
BRANCH   1   2
HETATM    2  C   UNL     1       5.832  26.646  56.031  1.00  0.00     0.235 C 
HETATM    3  N   UNL     1       6.879  27.553  56.064  1.00  0.00    -0.326 N 
HETATM    4  H   UNL     1       7.669  27.314  55.469  1.00  0.00     0.169 HD
HETATM    5  O   UNL     1       4.820  26.674  56.729  1.00  0.00    -0.272 OA
BRANCH   3   6
HETATM    6  C   UNL     1       6.968  28.734  56.826  1.00  0.00     0.034 A 
HETATM    7  C   UNL     1       6.135  29.841  56.643  1.00  0.00     0.032 A 
HETATM    8  C   UNL     1       6.280  30.991  57.430  1.00  0.00     0.039 A 
HETATM    9  C   UNL     1       7.264  31.051  58.413  1.00  0.00     0.068 A 
HETATM   10  C   UNL     1       8.104  29.951  58.596  1.00  0.00     0.039 A 
HETATM   11  C   UNL     1       7.957  28.799  57.811  1.00  0.00     0.032 A 
BRANCH   9  12
HETATM   12  O   UNL     1       7.507  32.109  59.245  1.00  0.00    -0.356 OA
HETATM   13  C   UNL     1       8.794  32.163  59.850  1.00  0.00     0.210 C 
ENDBRANCH   9  12
ENDBRANCH   3   6
ENDBRANCH   1   2
BRANCH   1  14
HETATM   14  N   UNL     1       7.487  25.171  54.867  1.00  0.00    -0.283 NA
HETATM   15  H   UNL     1       7.707  25.098  53.872  1.00  0.00     0.128 HD
BRANCH  14  16
HETATM   16  C   UNL     1       7.740  23.887  55.454  1.00  0.00     0.019 A 
HETATM   17  C   UNL     1       7.890  22.704  54.676  1.00  0.00    -0.005 A 
HETATM   18  C   UNL     1       8.312  21.512  55.319  1.00  0.00    -0.024 A 
HETATM   19  C   UNL     1       7.631  22.640  53.287  1.00  0.00     0.014 A 
HETATM   20  C   UNL     1       8.515  20.341  54.568  1.00  0.00     0.012 A 
HETATM   21  C   UNL     1       8.530  21.503  56.704  1.00  0.00     0.012 A 
HETATM   22  C   UNL     1       8.286  20.321  53.194  1.00  0.00     0.001 A 
HETATM   23  C   UNL     1       7.832  21.467  52.554  1.00  0.00     0.001 A 
HETATM   24  C   UNL     1       8.338  22.652  57.464  1.00  0.00     0.003 A 
HETATM   25  C   UNL     1       7.952  23.836  56.844  1.00  0.00     0.024 A 
ENDBRANCH  14  16
ENDBRANCH   1  14
TORSDOF 5
ENDMDL
MODEL 7
REMARK VINA RESULT:      -8.2      3.744      4.511
REMARK  5 active torsions:
REMARK  status: ('A' for Active; 'I' for Inactive)
REMARK    1  A    between atoms: O_2  and  C_3 
REMARK    2  A    between atoms: C_6  and  N_7 
REMARK       I    between atoms: N_7  and  C_8 
REMARK    3  A    between atoms: C_8  and  C_9 
REMARK    4  A    between atoms: C_9  and  N_10 
REMARK    5  A    between atoms: N_10  and  C_11 
ROOT
HETATM    1  C   UNL     1       6.143  25.563  56.152  1.00  0.00     0.195 C 
ENDROOT
BRANCH   1   2
HETATM    2  C   UNL     1       5.947  27.073  55.958  1.00  0.00     0.235 C 
HETATM    3  N   UNL     1       4.675  27.407  55.522  1.00  0.00    -0.326 N 
HETATM    4  H   UNL     1       4.069  26.614  55.327  1.00  0.00     0.169 HD
HETATM    5  O   UNL     1       6.876  27.851  56.166  1.00  0.00    -0.272 OA
BRANCH   3   6
HETATM    6  C   UNL     1       4.151  28.698  55.313  1.00  0.00     0.034 A 
HETATM    7  C   UNL     1       3.780  29.562  56.345  1.00  0.00     0.032 A 
HETATM    8  C   UNL     1       3.257  30.832  56.070  1.00  0.00     0.039 A 
HETATM    9  C   UNL     1       3.096  31.256  54.754  1.00  0.00     0.068 A 
HETATM   10  C   UNL     1       3.458  30.394  53.718  1.00  0.00     0.039 A 
HETATM   11  C   UNL     1       3.984  29.125  53.993  1.00  0.00     0.032 A 
BRANCH   9  12
HETATM   12  O   UNL     1       2.600  32.466  54.354  1.00  0.00    -0.356 OA
HETATM   13  C   UNL     1       1.346  32.856  54.904  1.00  0.00     0.210 C 
ENDBRANCH   9  12
ENDBRANCH   3   6
ENDBRANCH   1   2
BRANCH   1  14
HETATM   14  N   UNL     1       7.584  25.184  56.108  1.00  0.00    -0.283 NA
HETATM   15  H   UNL     1       8.137  26.010  55.875  1.00  0.00     0.128 HD
BRANCH  14  16
HETATM   16  C   UNL     1       7.794  24.223  55.063  1.00  0.00     0.019 A 
HETATM   17  C   UNL     1       8.016  22.841  55.325  1.00  0.00    -0.005 A 
HETATM   18  C   UNL     1       8.039  21.934  54.235  1.00  0.00    -0.024 A 
HETATM   19  C   UNL     1       8.228  22.312  56.619  1.00  0.00     0.014 A 
HETATM   20  C   UNL     1       8.208  20.558  54.467  1.00  0.00     0.012 A 
HETATM   21  C   UNL     1       7.890  22.410  52.924  1.00  0.00     0.012 A 
HETATM   22  C   UNL     1       8.377  20.064  55.758  1.00  0.00     0.001 A 
HETATM   23  C   UNL     1       8.399  20.942  56.835  1.00  0.00     0.001 A 
HETATM   24  C   UNL     1       7.718  23.768  52.673  1.00  0.00     0.003 A 
HETATM   25  C   UNL     1       7.665  24.667  53.734  1.00  0.00     0.024 A 
ENDBRANCH  14  16
ENDBRANCH   1  14
TORSDOF 5
ENDMDL
MODEL 8
REMARK VINA RESULT:      -8.1      2.028      9.174
REMARK  5 active torsions:
REMARK  status: ('A' for Active; 'I' for Inactive)
REMARK    1  A    between atoms: O_2  and  C_3 
REMARK    2  A    between atoms: C_6  and  N_7 
REMARK       I    between atoms: N_7  and  C_8 
REMARK    3  A    between atoms: C_8  and  C_9 
REMARK    4  A    between atoms: C_9  and  N_10 
REMARK    5  A    between atoms: N_10  and  C_11 
ROOT
HETATM    1  C   UNL     1       7.109  27.827  57.765  1.00  0.00     0.195 C 
ENDROOT
BRANCH   1   2
HETATM    2  C   UNL     1       7.730  26.616  57.057  1.00  0.00     0.235 C 
HETATM    3  N   UNL     1       6.942  26.120  56.030  1.00  0.00    -0.326 N 
HETATM    4  H   UNL     1       6.040  26.577  55.927  1.00  0.00     0.169 HD
HETATM    5  O   UNL     1       8.812  26.166  57.429  1.00  0.00    -0.272 OA
BRANCH   3   6
HETATM    6  C   UNL     1       7.248  25.067  55.146  1.00  0.00     0.034 A 
HETATM    7  C   UNL     1       7.610  25.255  53.810  1.00  0.00     0.032 A 
HETATM    8  C   UNL     1       7.895  24.163  52.979  1.00  0.00     0.039 A 
HETATM    9  C   UNL     1       7.819  22.864  53.474  1.00  0.00     0.068 A 
HETATM   10  C   UNL     1       7.451  22.670  54.807  1.00  0.00     0.039 A 
HETATM   11  C   UNL     1       7.170  23.762  55.639  1.00  0.00     0.032 A 
BRANCH   9  12
HETATM   12  O   UNL     1       8.072  21.719  52.771  1.00  0.00    -0.356 OA
HETATM   13  C   UNL     1       8.163  20.514  53.523  1.00  0.00     0.210 C 
ENDBRANCH   9  12
ENDBRANCH   3   6
ENDBRANCH   1   2
BRANCH   1  14
HETATM   14  N   UNL     1       8.133  28.858  58.095  1.00  0.00    -0.283 NA
HETATM   15  H   UNL     1       8.733  28.503  58.841  1.00  0.00     0.128 HD
BRANCH  14  16
HETATM   16  C   UNL     1       7.482  30.036  58.596  1.00  0.00     0.019 A 
HETATM   17  C   UNL     1       7.952  30.743  59.739  1.00  0.00    -0.005 A 
HETATM   18  C   UNL     1       7.359  31.991  60.061  1.00  0.00    -0.024 A 
HETATM   19  C   UNL     1       8.977  30.269  60.589  1.00  0.00     0.014 A 
HETATM   20  C   UNL     1       7.833  32.734  61.155  1.00  0.00     0.012 A 
HETATM   21  C   UNL     1       6.300  32.485  59.285  1.00  0.00     0.012 A 
HETATM   22  C   UNL     1       8.871  32.255  61.952  1.00  0.00     0.001 A 
HETATM   23  C   UNL     1       9.436  31.016  61.677  1.00  0.00     0.001 A 
HETATM   24  C   UNL     1       5.818  31.765  58.196  1.00  0.00     0.003 A 
HETATM   25  C   UNL     1       6.408  30.554  57.850  1.00  0.00     0.024 A 
ENDBRANCH  14  16
ENDBRANCH   1  14
TORSDOF 5
ENDMDL
MODEL 9
REMARK VINA RESULT:      -8.0      1.832      8.936
REMARK  5 active torsions:
REMARK  status: ('A' for Active; 'I' for Inactive)
REMARK    1  A    between atoms: O_2  and  C_3 
REMARK    2  A    between atoms: C_6  and  N_7 
REMARK       I    between atoms: N_7  and  C_8 
REMARK    3  A    between atoms: C_8  and  C_9 
REMARK    4  A    between atoms: C_9  and  N_10 
REMARK    5  A    between atoms: N_10  and  C_11 
ROOT
HETATM    1  C   UNL     1       6.939  28.076  57.584  1.00  0.00     0.195 C 
ENDROOT
BRANCH   1   2
HETATM    2  C   UNL     1       7.545  26.775  57.043  1.00  0.00     0.235 C 
HETATM    3  N   UNL     1       6.788  26.195  56.038  1.00  0.00    -0.326 N 
HETATM    4  H   UNL     1       5.909  26.667  55.841  1.00  0.00     0.169 HD
HETATM    5  O   UNL     1       8.592  26.335  57.516  1.00  0.00    -0.272 OA
BRANCH   3   6
HETATM    6  C   UNL     1       7.095  25.042  55.290  1.00  0.00     0.034 A 
HETATM    7  C   UNL     1       7.062  23.746  55.812  1.00  0.00     0.032 A 
HETATM    8  C   UNL     1       7.386  22.639  55.016  1.00  0.00     0.039 A 
HETATM    9  C   UNL     1       7.751  22.814  53.684  1.00  0.00     0.068 A 
HETATM   10  C   UNL     1       7.793  24.107  53.159  1.00  0.00     0.039 A 
HETATM   11  C   UNL     1       7.465  25.213  53.954  1.00  0.00     0.032 A 
BRANCH   9  12
HETATM   12  O   UNL     1       8.088  21.821  52.806  1.00  0.00    -0.356 OA
HETATM   13  C   UNL     1       7.857  20.484  53.235  1.00  0.00     0.210 C 
ENDBRANCH   9  12
ENDBRANCH   3   6
ENDBRANCH   1   2
BRANCH   1  14
HETATM   14  N   UNL     1       7.237  29.235  56.696  1.00  0.00    -0.283 NA
HETATM   15  H   UNL     1       7.558  28.886  55.792  1.00  0.00     0.128 HD
BRANCH  14  16
HETATM   16  C   UNL     1       8.308  30.007  57.259  1.00  0.00     0.019 A 
HETATM   17  C   UNL     1       8.110  30.929  58.326  1.00  0.00    -0.005 A 
HETATM   18  C   UNL     1       9.246  31.517  58.940  1.00  0.00    -0.024 A 
HETATM   19  C   UNL     1       6.837  31.307  58.811  1.00  0.00     0.014 A 
HETATM   20  C   UNL     1       9.085  32.394  60.026  1.00  0.00     0.012 A 
HETATM   21  C   UNL     1      10.532  31.221  58.463  1.00  0.00     0.012 A 
HETATM   22  C   UNL     1       7.817  32.718  60.504  1.00  0.00     0.001 A 
HETATM   23  C   UNL     1       6.691  32.184  59.889  1.00  0.00     0.001 A 
HETATM   24  C   UNL     1      10.713  30.354  57.391  1.00  0.00     0.003 A 
HETATM   25  C   UNL     1       9.611  29.746  56.798  1.00  0.00     0.024 A 
ENDBRANCH  14  16
ENDBRANCH   1  14
TORSDOF 5
ENDMDL
MODEL 10
REMARK VINA RESULT:      -7.9      2.063      2.395
REMARK  5 active torsions:
REMARK  status: ('A' for Active; 'I' for Inactive)
REMARK    1  A    between atoms: O_2  and  C_3 
REMARK    2  A    between atoms: C_6  and  N_7 
REMARK       I    between atoms: N_7  and  C_8 
REMARK    3  A    between atoms: C_8  and  C_9 
REMARK    4  A    between atoms: C_9  and  N_10 
REMARK    5  A    between atoms: N_10  and  C_11 
ROOT
HETATM    1  C   UNL     1       6.074  26.608  55.723  1.00  0.00     0.195 C 
ENDROOT
BRANCH   1   2
HETATM    2  C   UNL     1       6.379  27.633  56.824  1.00  0.00     0.235 C 
HETATM    3  N   UNL     1       5.719  28.838  56.646  1.00  0.00    -0.326 N 
HETATM    4  H   UNL     1       5.179  28.906  55.787  1.00  0.00     0.169 HD
HETATM    5  O   UNL     1       7.159  27.354  57.733  1.00  0.00    -0.272 OA
BRANCH   3   6
HETATM    6  C   UNL     1       5.728  29.955  57.504  1.00  0.00     0.034 A 
HETATM    7  C   UNL     1       6.892  30.518  58.033  1.00  0.00     0.032 A 
HETATM    8  C   UNL     1       6.833  31.627  58.889  1.00  0.00     0.039 A 
HETATM    9  C   UNL     1       5.605  32.188  59.228  1.00  0.00     0.068 A 
HETATM   10  C   UNL     1       4.438  31.625  58.709  1.00  0.00     0.039 A 
HETATM   11  C   UNL     1       4.497  30.519  57.850  1.00  0.00     0.032 A 
BRANCH   9  12
HETATM   12  O   UNL     1       5.412  33.265  60.048  1.00  0.00    -0.356 OA
HETATM   13  C   UNL     1       5.954  33.173  61.361  1.00  0.00     0.210 C 
ENDBRANCH   9  12
ENDBRANCH   3   6
ENDBRANCH   1   2
BRANCH   1  14
HETATM   14  N   UNL     1       6.696  25.285  56.013  1.00  0.00    -0.283 NA
HETATM   15  H   UNL     1       7.486  25.421  56.645  1.00  0.00     0.128 HD
BRANCH  14  16
HETATM   16  C   UNL     1       7.215  24.724  54.799  1.00  0.00     0.019 A 
HETATM   17  C   UNL     1       7.509  23.338  54.659  1.00  0.00    -0.005 A 
HETATM   18  C   UNL     1       7.850  22.837  53.376  1.00  0.00    -0.024 A 
HETATM   19  C   UNL     1       7.492  22.419  55.734  1.00  0.00     0.014 A 
HETATM   20  C   UNL     1       8.098  21.465  53.199  1.00  0.00     0.012 A 
HETATM   21  C   UNL     1       7.937  23.712  52.283  1.00  0.00     0.012 A 
HETATM   22  C   UNL     1       8.037  20.580  54.273  1.00  0.00     0.001 A 
HETATM   23  C   UNL     1       7.745  21.059  55.544  1.00  0.00     0.001 A 
HETATM   24  C   UNL     1       7.692  25.073  52.438  1.00  0.00     0.003 A 
HETATM   25  C   UNL     1       7.328  25.574  53.683  1.00  0.00     0.024 A 
ENDBRANCH  14  16
ENDBRANCH   1  14
TORSDOF 5
ENDMDL
