MODEL 1
REMARK VINA RESULT:     -10.2      0.000      0.000
REMARK  5 active torsions:
REMARK  status: ('A' for Active; 'I' for Inactive)
REMARK    1  A    between atoms: C_2  and  C_3 
REMARK    2  A    between atoms: C_3  and  C_4 
REMARK    3  A    between atoms: C_8  and  N_9 
REMARK       I    between atoms: N_9  and  C_10 
REMARK    4  A    between atoms: C_10  and  C_11 
REMARK    5  A    between atoms: N_13  and  C_14 
ROOT
HETATM    1  C   UNL     1       6.249  28.767  57.069  1.00  0.00     0.106 C 
HETATM    2  C   UNL     1       6.241  27.261  57.202  1.00  0.00     0.148 C 
HETATM    3  N   UNL     1       7.221  26.820  56.243  1.00  0.00    -0.299 N 
HETATM    4  C   UNL     1       7.445  27.796  55.258  1.00  0.00     0.226 C 
HETATM    5  O   UNL     1       8.161  27.765  54.269  1.00  0.00    -0.273 OA
HETATM    6  C   UNL     1       6.628  29.014  55.619  1.00  0.00     0.119 C 
ENDROOT
BRANCH   1   7
HETATM    7  C   UNL     1       7.212  29.431  58.053  1.00  0.00     0.242 C 
HETATM    8  N   UNL     1       6.742  30.595  58.635  1.00  0.00    -0.156 N 
HETATM    9  H   UNL     1       5.841  30.977  58.375  1.00  0.00     0.187 HD
HETATM   10  O   UNL     1       8.308  28.910  58.244  1.00  0.00    -0.272 OA
BRANCH   8  11
HETATM   11  C   UNL     1       7.473  31.285  59.571  1.00  0.00     0.725 A 
HETATM   12  N   UNL     1       8.629  31.946  59.247  1.00  0.00    -0.106 N 
HETATM   13  N   UNL     1       9.179  32.542  60.317  1.00  0.00    -0.144 NA
HETATM   14  H   UNL     1       9.083  32.029  58.346  1.00  0.00     0.208 HD
HETATM   15  C   UNL     1       8.300  32.220  61.273  1.00  0.00     0.166 A 
HETATM   16  N   UNL     1       7.248  31.454  60.850  1.00  0.00    -0.046 NA
BRANCH  15  17
HETATM   17  C   UNL     1       8.437  32.664  62.687  1.00  0.00     0.087 C 
BRANCH  17  18
HETATM   18  C   UNL     1       7.093  33.010  63.354  1.00  0.00    -0.016 C 
HETATM   19  C   UNL     1       6.400  34.192  62.669  1.00  0.00     0.010 C 
HETATM   20  C   UNL     1       7.314  33.330  64.833  1.00  0.00     0.010 C 
ENDBRANCH  17  18
ENDBRANCH  15  17
ENDBRANCH   8  11
ENDBRANCH   1   7
BRANCH   3  21
HETATM   21  C   UNL     1       7.845  25.575  56.234  1.00  0.00     0.165 A 
HETATM   22  N   UNL     1       8.617  25.163  57.244  1.00  0.00    -0.155 NA
HETATM   23  N   UNL     1       9.046  23.950  56.882  1.00  0.00    -0.275 N 
HETATM   24  H   UNL     1       9.691  23.468  57.500  1.00  0.00     0.189 HD
HETATM   25  C   UNL     1       8.533  23.506  55.699  1.00  0.00     0.065 A 
HETATM   26  C   UNL     1       7.734  24.548  55.234  1.00  0.00     0.040 A 
HETATM   27  C   UNL     1       8.716  22.300  55.011  1.00  0.00     0.051 A 
HETATM   28  C   UNL     1       7.085  24.377  53.991  1.00  0.00     0.019 A 
HETATM   29  C   UNL     1       7.248  23.177  53.283  1.00  0.00     0.020 A 
HETATM   30  C   UNL     1       8.051  22.160  53.792  1.00  0.00     0.013 A 
HETATM   31 BR   UNL     1       8.255  20.555  52.809  1.00  0.00    -0.051 Br
ENDBRANCH   3  21
TORSDOF 5
ENDMDL
MODEL 2
REMARK VINA RESULT:      -9.7      4.977      8.707
REMARK  5 active torsions:
REMARK  status: ('A' for Active; 'I' for Inactive)
REMARK    1  A    between atoms: C_2  and  C_3 
REMARK    2  A    between atoms: C_3  and  C_4 
REMARK    3  A    between atoms: C_8  and  N_9 
REMARK       I    between atoms: N_9  and  C_10 
REMARK    4  A    between atoms: C_10  and  C_11 
REMARK    5  A    between atoms: N_13  and  C_14 
ROOT
HETATM    1  C   UNL     1       5.483  28.562  54.709  1.00  0.00     0.106 C 
HETATM    2  C   UNL     1       6.833  27.918  54.930  1.00  0.00     0.148 C 
HETATM    3  N   UNL     1       6.538  26.748  55.716  1.00  0.00    -0.299 N 
HETATM    4  C   UNL     1       5.304  26.874  56.375  1.00  0.00     0.226 C 
HETATM    5  O   UNL     1       4.749  26.118  57.155  1.00  0.00    -0.273 OA
HETATM    6  C   UNL     1       4.679  28.179  55.939  1.00  0.00     0.119 C 
ENDROOT
BRANCH   1   7
HETATM    7  C   UNL     1       4.828  28.102  53.407  1.00  0.00     0.242 C 
HETATM    8  N   UNL     1       5.709  27.802  52.384  1.00  0.00    -0.156 N 
HETATM    9  H   UNL     1       6.706  27.930  52.505  1.00  0.00     0.187 HD
HETATM   10  O   UNL     1       3.601  28.045  53.356  1.00  0.00    -0.272 OA
BRANCH   8  11
HETATM   11  C   UNL     1       5.275  27.335  51.166  1.00  0.00     0.725 A 
HETATM   12  N   UNL     1       4.766  26.072  51.012  1.00  0.00    -0.106 N 
HETATM   13  N   UNL     1       4.413  25.828  49.740  1.00  0.00    -0.144 NA
HETATM   14  H   UNL     1       4.634  25.350  51.709  1.00  0.00     0.208 HD
HETATM   15  C   UNL     1       4.720  26.995  49.158  1.00  0.00     0.166 A 
HETATM   16  N   UNL     1       5.247  27.935  50.002  1.00  0.00    -0.046 NA
BRANCH  15  17
HETATM   17  C   UNL     1       4.498  27.266  47.713  1.00  0.00     0.087 C 
BRANCH  17  18
HETATM   18  C   UNL     1       3.019  27.184  47.293  1.00  0.00    -0.016 C 
HETATM   19  C   UNL     1       2.083  27.701  48.389  1.00  0.00     0.010 C 
HETATM   20  C   UNL     1       2.656  25.739  46.946  1.00  0.00     0.010 C 
ENDBRANCH  17  18
ENDBRANCH  15  17
ENDBRANCH   8  11
ENDBRANCH   1   7
BRANCH   3  21
HETATM   21  C   UNL     1       7.370  25.642  55.869  1.00  0.00     0.165 A 
HETATM   22  N   UNL     1       8.164  25.496  56.934  1.00  0.00    -0.155 NA
HETATM   23  N   UNL     1       8.812  24.345  56.731  1.00  0.00    -0.275 N 
HETATM   24  H   UNL     1       9.508  24.062  57.413  1.00  0.00     0.189 HD
HETATM   25  C   UNL     1       8.429  23.680  55.604  1.00  0.00     0.065 A 
HETATM   26  C   UNL     1       7.477  24.500  55.002  1.00  0.00     0.040 A 
HETATM   27  C   UNL     1       8.846  22.453  55.072  1.00  0.00     0.051 A 
HETATM   28  C   UNL     1       6.915  24.070  53.780  1.00  0.00     0.019 A 
HETATM   29  C   UNL     1       7.312  22.844  53.227  1.00  0.00     0.020 A 
HETATM   30  C   UNL     1       8.261  22.053  53.869  1.00  0.00     0.013 A 
HETATM   31 BR   UNL     1       8.779  20.406  53.094  1.00  0.00    -0.051 Br
ENDBRANCH   3  21
TORSDOF 5
ENDMDL
MODEL 3
REMARK VINA RESULT:      -9.6      1.722      2.213
REMARK  5 active torsions:
REMARK  status: ('A' for Active; 'I' for Inactive)
REMARK    1  A    between atoms: C_2  and  C_3 
REMARK    2  A    between atoms: C_3  and  C_4 
REMARK    3  A    between atoms: C_8  and  N_9 
REMARK       I    between atoms: N_9  and  C_10 
REMARK    4  A    between atoms: C_10  and  C_11 
REMARK    5  A    between atoms: N_13  and  C_14 
ROOT
HETATM    1  C   UNL     1       4.878  28.975  55.710  1.00  0.00     0.106 C 
HETATM    2  C   UNL     1       5.010  27.642  56.412  1.00  0.00     0.148 C 
HETATM    3  N   UNL     1       6.265  27.120  55.938  1.00  0.00    -0.299 N 
HETATM    4  C   UNL     1       6.642  27.721  54.726  1.00  0.00     0.226 C 
HETATM    5  O   UNL     1       7.606  27.505  54.008  1.00  0.00    -0.273 OA
HETATM    6  C   UNL     1       5.619  28.782  54.399  1.00  0.00     0.119 C 
ENDROOT
BRANCH   1   7
HETATM    7  C   UNL     1       5.440  30.127  56.543  1.00  0.00     0.242 C 
HETATM    8  N   UNL     1       6.022  29.752  57.740  1.00  0.00    -0.156 N 
HETATM    9  H   UNL     1       6.021  28.784  58.036  1.00  0.00     0.187 HD
HETATM   10  O   UNL     1       5.328  31.272  56.112  1.00  0.00    -0.272 OA
BRANCH   8  11
HETATM   11  C   UNL     1       6.609  30.668  58.580  1.00  0.00     0.725 A 
HETATM   12  N   UNL     1       5.879  31.629  59.231  1.00  0.00    -0.106 N 
HETATM   13  N   UNL     1       6.658  32.417  59.990  1.00  0.00    -0.144 NA
HETATM   14  H   UNL     1       4.882  31.797  59.204  1.00  0.00     0.208 HD
HETATM   15  C   UNL     1       7.863  31.877  59.773  1.00  0.00     0.166 A 
HETATM   16  N   UNL     1       7.866  30.808  58.918  1.00  0.00    -0.046 NA
BRANCH  15  17
HETATM   17  C   UNL     1       9.108  32.380  60.414  1.00  0.00     0.087 C 
BRANCH  17  18
HETATM   18  C   UNL     1       9.338  31.821  61.829  1.00  0.00    -0.016 C 
HETATM   19  C   UNL     1       9.340  30.289  61.848  1.00  0.00     0.010 C 
HETATM   20  C   UNL     1       8.258  32.345  62.778  1.00  0.00     0.010 C 
ENDBRANCH  17  18
ENDBRANCH  15  17
ENDBRANCH   8  11
ENDBRANCH   1   7
BRANCH   3  21
HETATM   21  C   UNL     1       7.008  26.112  56.549  1.00  0.00     0.165 A 
HETATM   22  N   UNL     1       7.571  26.277  57.750  1.00  0.00    -0.155 NA
HETATM   23  N   UNL     1       8.202  25.126  58.000  1.00  0.00    -0.275 N 
HETATM   24  H   UNL     1       8.739  25.052  58.858  1.00  0.00     0.189 HD
HETATM   25  C   UNL     1       8.022  24.171  57.043  1.00  0.00     0.065 A 
HETATM   26  C   UNL     1       7.239  24.778  56.064  1.00  0.00     0.040 A 
HETATM   27  C   UNL     1       8.488  22.853  56.959  1.00  0.00     0.051 A 
HETATM   28  C   UNL     1       6.912  24.021  54.918  1.00  0.00     0.019 A 
HETATM   29  C   UNL     1       7.362  22.697  54.810  1.00  0.00     0.020 A 
HETATM   30  C   UNL     1       8.135  22.129  55.818  1.00  0.00     0.013 A 
HETATM   31 BR   UNL     1       8.732  20.341  55.640  1.00  0.00    -0.051 Br
ENDBRANCH   3  21
TORSDOF 5
ENDMDL
MODEL 4
REMARK VINA RESULT:      -9.5      2.036      2.617
REMARK  5 active torsions:
REMARK  status: ('A' for Active; 'I' for Inactive)
REMARK    1  A    between atoms: C_2  and  C_3 
REMARK    2  A    between atoms: C_3  and  C_4 
REMARK    3  A    between atoms: C_8  and  N_9 
REMARK       I    between atoms: N_9  and  C_10 
REMARK    4  A    between atoms: C_10  and  C_11 
REMARK    5  A    between atoms: N_13  and  C_14 
ROOT
HETATM    1  C   UNL     1       5.078  27.784  56.908  1.00  0.00     0.106 C 
HETATM    2  C   UNL     1       5.321  26.454  56.230  1.00  0.00     0.148 C 
HETATM    3  N   UNL     1       5.554  26.802  54.851  1.00  0.00    -0.299 N 
HETATM    4  C   UNL     1       5.020  28.065  54.547  1.00  0.00     0.226 C 
HETATM    5  O   UNL     1       4.981  28.667  53.486  1.00  0.00    -0.273 OA
HETATM    6  C   UNL     1       4.463  28.651  55.823  1.00  0.00     0.119 C 
ENDROOT
BRANCH   1   7
HETATM    7  C   UNL     1       6.360  28.382  57.487  1.00  0.00     0.242 C 
HETATM    8  N   UNL     1       6.278  29.720  57.828  1.00  0.00    -0.156 N 
HETATM    9  H   UNL     1       5.432  30.248  57.653  1.00  0.00     0.187 HD
HETATM   10  O   UNL     1       7.349  27.660  57.594  1.00  0.00    -0.272 OA
BRANCH   8  11
HETATM   11  C   UNL     1       7.334  30.389  58.399  1.00  0.00     0.725 A 
HETATM   12  N   UNL     1       8.612  30.275  57.918  1.00  0.00    -0.106 N 
HETATM   13  N   UNL     1       9.481  31.009  58.632  1.00  0.00    -0.144 NA
HETATM   14  H   UNL     1       8.951  29.734  57.133  1.00  0.00     0.208 HD
HETATM   15  C   UNL     1       8.666  31.566  59.537  1.00  0.00     0.166 A 
HETATM   16  N   UNL     1       7.350  31.209  59.420  1.00  0.00    -0.046 NA
BRANCH  15  17
HETATM   17  C   UNL     1       9.139  32.512  60.584  1.00  0.00     0.087 C 
BRANCH  17  18
HETATM   18  C   UNL     1       9.312  31.859  61.967  1.00  0.00    -0.016 C 
HETATM   19  C   UNL     1       9.430  30.335  61.871  1.00  0.00     0.010 C 
HETATM   20  C   UNL     1       8.131  32.228  62.867  1.00  0.00     0.010 C 
ENDBRANCH  17  18
ENDBRANCH  15  17
ENDBRANCH   8  11
ENDBRANCH   1   7
BRANCH   3  21
HETATM   21  C   UNL     1       6.175  25.992  53.904  1.00  0.00     0.165 A 
HETATM   22  N   UNL     1       6.383  26.404  52.649  1.00  0.00    -0.155 NA
HETATM   23  N   UNL     1       6.977  25.375  52.038  1.00  0.00    -0.275 N 
HETATM   24  H   UNL     1       7.188  25.463  51.050  1.00  0.00     0.189 HD
HETATM   25  C   UNL     1       7.240  24.316  52.857  1.00  0.00     0.065 A 
HETATM   26  C   UNL     1       6.727  24.680  54.100  1.00  0.00     0.040 A 
HETATM   27  C   UNL     1       7.864  23.088  52.602  1.00  0.00     0.051 A 
HETATM   28  C   UNL     1       6.834  23.747  55.156  1.00  0.00     0.019 A 
HETATM   29  C   UNL     1       7.458  22.512  54.929  1.00  0.00     0.020 A 
HETATM   30  C   UNL     1       7.964  22.196  53.671  1.00  0.00     0.013 A 
HETATM   31 BR   UNL     1       8.796  20.518  53.397  1.00  0.00    -0.051 Br
ENDBRANCH   3  21
TORSDOF 5
ENDMDL
MODEL 5
REMARK VINA RESULT:      -9.4      4.252      9.701
REMARK  5 active torsions:
REMARK  status: ('A' for Active; 'I' for Inactive)
REMARK    1  A    between atoms: C_2  and  C_3 
REMARK    2  A    between atoms: C_3  and  C_4 
REMARK    3  A    between atoms: C_8  and  N_9 
REMARK       I    between atoms: N_9  and  C_10 
REMARK    4  A    between atoms: C_10  and  C_11 
REMARK    5  A    between atoms: N_13  and  C_14 
ROOT
HETATM    1  C   UNL     1       9.575  28.980  57.404  1.00  0.00     0.106 C 
HETATM    2  C   UNL     1       8.616  29.294  58.530  1.00  0.00     0.148 C 
HETATM    3  N   UNL     1       8.725  30.720  58.695  1.00  0.00    -0.299 N 
HETATM    4  C   UNL     1       9.934  31.204  58.167  1.00  0.00     0.226 C 
HETATM    5  O   UNL     1      10.393  32.334  58.164  1.00  0.00    -0.273 OA
HETATM    6  C   UNL     1      10.654  30.042  57.524  1.00  0.00     0.119 C 
ENDROOT
BRANCH   1   7
HETATM    7  C   UNL     1       8.888  28.986  56.039  1.00  0.00     0.242 C 
HETATM    8  N   UNL     1       7.670  28.332  55.995  1.00  0.00    -0.156 N 
HETATM    9  H   UNL     1       7.308  27.856  56.812  1.00  0.00     0.187 HD
HETATM   10  O   UNL     1       9.453  29.543  55.100  1.00  0.00    -0.272 OA
BRANCH   8  11
HETATM   11  C   UNL     1       6.912  28.287  54.850  1.00  0.00     0.725 A 
HETATM   12  N   UNL     1       5.828  29.104  54.664  1.00  0.00    -0.106 N 
HETATM   13  N   UNL     1       5.233  28.883  53.481  1.00  0.00    -0.144 NA
HETATM   14  H   UNL     1       5.451  29.812  55.282  1.00  0.00     0.208 HD
HETATM   15  C   UNL     1       6.014  27.920  52.975  1.00  0.00     0.166 A 
HETATM   16  N   UNL     1       7.047  27.535  53.786  1.00  0.00    -0.046 NA
BRANCH  15  17
HETATM   17  C   UNL     1       5.795  27.316  51.633  1.00  0.00     0.087 C 
BRANCH  17  18
HETATM   18  C   UNL     1       5.680  25.781  51.662  1.00  0.00    -0.016 C 
HETATM   19  C   UNL     1       4.811  25.293  52.825  1.00  0.00     0.010 C 
HETATM   20  C   UNL     1       7.073  25.157  51.764  1.00  0.00     0.010 C 
ENDBRANCH  17  18
ENDBRANCH  15  17
ENDBRANCH   8  11
ENDBRANCH   1   7
BRANCH   3  21
HETATM   21  C   UNL     1       7.797  31.537  59.338  1.00  0.00     0.165 A 
HETATM   22  N   UNL     1       6.727  32.027  58.704  1.00  0.00    -0.155 NA
HETATM   23  N   UNL     1       6.088  32.763  59.618  1.00  0.00    -0.275 N 
HETATM   24  H   UNL     1       5.256  33.266  59.328  1.00  0.00     0.189 HD
HETATM   25  C   UNL     1       6.652  32.726  60.859  1.00  0.00     0.065 A 
HETATM   26  C   UNL     1       7.785  31.928  60.721  1.00  0.00     0.040 A 
HETATM   27  C   UNL     1       6.268  33.331  62.063  1.00  0.00     0.051 A 
HETATM   28  C   UNL     1       8.596  31.732  61.861  1.00  0.00     0.019 A 
HETATM   29  C   UNL     1       8.232  32.323  63.080  1.00  0.00     0.020 A 
HETATM   30  C   UNL     1       7.086  33.106  63.172  1.00  0.00     0.013 A 
HETATM   31 BR   UNL     1       6.626  33.894  64.831  1.00  0.00    -0.051 Br
ENDBRANCH   3  21
TORSDOF 5
ENDMDL
MODEL 6
REMARK VINA RESULT:      -8.7      8.264     11.332
REMARK  5 active torsions:
REMARK  status: ('A' for Active; 'I' for Inactive)
REMARK    1  A    between atoms: C_2  and  C_3 
REMARK    2  A    between atoms: C_3  and  C_4 
REMARK    3  A    between atoms: C_8  and  N_9 
REMARK       I    between atoms: N_9  and  C_10 
REMARK    4  A    between atoms: C_10  and  C_11 
REMARK    5  A    between atoms: N_13  and  C_14 
ROOT
HETATM    1  C   UNL     1       5.094  28.973  50.418  1.00  0.00     0.106 C 
HETATM    2  C   UNL     1       3.678  29.070  49.897  1.00  0.00     0.148 C 
HETATM    3  N   UNL     1       3.701  28.309  48.675  1.00  0.00    -0.299 N 
HETATM    4  C   UNL     1       5.008  28.188  48.175  1.00  0.00     0.226 C 
HETATM    5  O   UNL     1       5.412  27.661  47.150  1.00  0.00    -0.273 OA
HETATM    6  C   UNL     1       5.944  28.836  49.167  1.00  0.00     0.119 C 
ENDROOT
BRANCH   1   7
HETATM    7  C   UNL     1       5.276  27.806  51.387  1.00  0.00     0.242 C 
HETATM    8  N   UNL     1       6.139  26.815  50.953  1.00  0.00    -0.156 N 
HETATM    9  H   UNL     1       6.568  26.867  50.037  1.00  0.00     0.187 HD
HETATM   10  O   UNL     1       4.654  27.819  52.447  1.00  0.00    -0.272 OA
BRANCH   8  11
HETATM   11  C   UNL     1       6.439  25.722  51.730  1.00  0.00     0.725 A 
HETATM   12  N   UNL     1       5.503  25.123  52.532  1.00  0.00    -0.106 N 
HETATM   13  N   UNL     1       6.017  24.080  53.205  1.00  0.00    -0.144 NA
HETATM   14  H   UNL     1       4.529  25.364  52.664  1.00  0.00     0.208 HD
HETATM   15  C   UNL     1       7.280  24.082  52.759  1.00  0.00     0.166 A 
HETATM   16  N   UNL     1       7.567  25.071  51.857  1.00  0.00    -0.046 NA
BRANCH  15  17
HETATM   17  C   UNL     1       8.296  23.085  53.191  1.00  0.00     0.087 C 
BRANCH  17  18
HETATM   18  C   UNL     1       7.688  21.743  53.638  1.00  0.00    -0.016 C 
HETATM   19  C   UNL     1       7.941  21.465  55.122  1.00  0.00     0.010 C 
HETATM   20  C   UNL     1       8.264  20.604  52.795  1.00  0.00     0.010 C 
ENDBRANCH  17  18
ENDBRANCH  15  17
ENDBRANCH   8  11
ENDBRANCH   1   7
BRANCH   3  21
HETATM   21  C   UNL     1       2.587  27.792  48.019  1.00  0.00     0.165 A 
HETATM   22  N   UNL     1       2.225  26.511  48.142  1.00  0.00    -0.155 NA
HETATM   23  N   UNL     1       1.141  26.380  47.372  1.00  0.00    -0.275 N 
HETATM   24  H   UNL     1       0.722  25.459  47.288  1.00  0.00     0.189 HD
HETATM   25  C   UNL     1       0.722  27.542  46.794  1.00  0.00     0.065 A 
HETATM   26  C   UNL     1       1.648  28.503  47.194  1.00  0.00     0.040 A 
HETATM   27  C   UNL     1      -0.370  27.815  45.960  1.00  0.00     0.051 A 
HETATM   28  C   UNL     1       1.479  29.821  46.716  1.00  0.00     0.019 A 
HETATM   29  C   UNL     1       0.393  30.122  45.881  1.00  0.00     0.020 A 
HETATM   30  C   UNL     1      -0.513  29.130  45.515  1.00  0.00     0.013 A 
HETATM   31 BR   UNL     1      -1.966  29.568  44.383  1.00  0.00    -0.051 Br
ENDBRANCH   3  21
TORSDOF 5
ENDMDL
MODEL 7
REMARK VINA RESULT:      -8.7      6.369     10.283
REMARK  5 active torsions:
REMARK  status: ('A' for Active; 'I' for Inactive)
REMARK    1  A    between atoms: C_2  and  C_3 
REMARK    2  A    between atoms: C_3  and  C_4 
REMARK    3  A    between atoms: C_8  and  N_9 
REMARK       I    between atoms: N_9  and  C_10 
REMARK    4  A    between atoms: C_10  and  C_11 
REMARK    5  A    between atoms: N_13  and  C_14 
ROOT
HETATM    1  C   UNL     1       4.752  27.726  49.299  1.00  0.00     0.106 C 
HETATM    2  C   UNL     1       4.939  29.002  50.088  1.00  0.00     0.148 C 
HETATM    3  N   UNL     1       3.623  29.296  50.595  1.00  0.00    -0.299 N 
HETATM    4  C   UNL     1       2.630  28.654  49.837  1.00  0.00     0.226 C 
HETATM    5  O   UNL     1       1.414  28.702  49.934  1.00  0.00    -0.273 OA
HETATM    6  C   UNL     1       3.320  27.800  48.799  1.00  0.00     0.119 C 
ENDROOT
BRANCH   1   7
HETATM    7  C   UNL     1       5.021  26.479  50.141  1.00  0.00     0.242 C 
HETATM    8  N   UNL     1       6.121  26.564  50.975  1.00  0.00    -0.156 N 
HETATM    9  H   UNL     1       6.711  27.387  50.973  1.00  0.00     0.187 HD
HETATM   10  O   UNL     1       4.273  25.513  50.014  1.00  0.00    -0.272 OA
BRANCH   8  11
HETATM   11  C   UNL     1       6.468  25.541  51.825  1.00  0.00     0.725 A 
HETATM   12  N   UNL     1       5.620  25.091  52.803  1.00  0.00    -0.106 N 
HETATM   13  N   UNL     1       6.168  24.094  53.517  1.00  0.00    -0.144 NA
HETATM   14  H   UNL     1       4.686  25.406  53.031  1.00  0.00     0.208 HD
HETATM   15  C   UNL     1       7.357  23.968  52.915  1.00  0.00     0.166 A 
HETATM   16  N   UNL     1       7.570  24.836  51.879  1.00  0.00    -0.046 NA
BRANCH  15  17
HETATM   17  C   UNL     1       8.372  22.959  53.322  1.00  0.00     0.087 C 
BRANCH  17  18
HETATM   18  C   UNL     1       7.762  21.603  53.723  1.00  0.00    -0.016 C 
HETATM   19  C   UNL     1       8.007  21.278  55.199  1.00  0.00     0.010 C 
HETATM   20  C   UNL     1       8.344  20.492  52.848  1.00  0.00     0.010 C 
ENDBRANCH  17  18
ENDBRANCH  15  17
ENDBRANCH   8  11
ENDBRANCH   1   7
BRANCH   3  21
HETATM   21  C   UNL     1       3.334  30.143  51.662  1.00  0.00     0.165 A 
HETATM   22  N   UNL     1       2.672  31.292  51.494  1.00  0.00    -0.155 NA
HETATM   23  N   UNL     1       2.596  31.832  52.713  1.00  0.00    -0.275 N 
HETATM   24  H   UNL     1       2.160  32.744  52.806  1.00  0.00     0.189 HD
HETATM   25  C   UNL     1       3.120  31.054  53.703  1.00  0.00     0.065 A 
HETATM   26  C   UNL     1       3.620  29.927  53.054  1.00  0.00     0.040 A 
HETATM   27  C   UNL     1       3.202  31.255  55.087  1.00  0.00     0.051 A 
HETATM   28  C   UNL     1       4.257  28.941  53.841  1.00  0.00     0.019 A 
HETATM   29  C   UNL     1       4.349  29.116  55.230  1.00  0.00     0.020 A 
HETATM   30  C   UNL     1       3.827  30.256  55.835  1.00  0.00     0.013 A 
HETATM   31 BR   UNL     1       3.973  30.464  57.711  1.00  0.00    -0.051 Br
ENDBRANCH   3  21
TORSDOF 5
ENDMDL
MODEL 8
REMARK VINA RESULT:      -8.6      2.559      3.013
REMARK  5 active torsions:
REMARK  status: ('A' for Active; 'I' for Inactive)
REMARK    1  A    between atoms: C_2  and  C_3 
REMARK    2  A    between atoms: C_3  and  C_4 
REMARK    3  A    between atoms: C_8  and  N_9 
REMARK       I    between atoms: N_9  and  C_10 
REMARK    4  A    between atoms: C_10  and  C_11 
REMARK    5  A    between atoms: N_13  and  C_14 
ROOT
HETATM    1  C   UNL     1       4.688  28.494  55.134  1.00  0.00     0.106 C 
HETATM    2  C   UNL     1       4.979  27.012  55.198  1.00  0.00     0.148 C 
HETATM    3  N   UNL     1       6.411  26.930  55.070  1.00  0.00    -0.299 N 
HETATM    4  C   UNL     1       6.936  28.088  54.472  1.00  0.00     0.226 C 
HETATM    5  O   UNL     1       8.085  28.361  54.162  1.00  0.00    -0.273 OA
HETATM    6  C   UNL     1       5.796  29.056  54.259  1.00  0.00     0.119 C 
ENDROOT
BRANCH   1   7
HETATM    7  C   UNL     1       4.645  29.138  56.519  1.00  0.00     0.242 C 
HETATM    8  N   UNL     1       3.873  30.282  56.608  1.00  0.00    -0.156 N 
HETATM    9  H   UNL     1       3.417  30.664  55.788  1.00  0.00     0.187 HD
HETATM   10  O   UNL     1       5.290  28.619  57.428  1.00  0.00    -0.272 OA
BRANCH   8  11
HETATM   11  C   UNL     1       3.701  30.951  57.796  1.00  0.00     0.725 A 
HETATM   12  N   UNL     1       3.179  30.338  58.906  1.00  0.00    -0.106 N 
HETATM   13  N   UNL     1       3.095  31.182  59.947  1.00  0.00    -0.144 NA
HETATM   14  H   UNL     1       2.872  29.381  59.019  1.00  0.00     0.208 HD
HETATM   15  C   UNL     1       3.596  32.303  59.414  1.00  0.00     0.166 A 
HETATM   16  N   UNL     1       3.976  32.194  58.104  1.00  0.00    -0.046 NA
BRANCH  15  17
HETATM   17  C   UNL     1       3.748  33.570  60.178  1.00  0.00     0.087 C 
BRANCH  17  18
HETATM   18  C   UNL     1       4.062  33.353  61.670  1.00  0.00    -0.016 C 
HETATM   19  C   UNL     1       2.885  33.748  62.567  1.00  0.00     0.010 C 
HETATM   20  C   UNL     1       5.302  34.158  62.063  1.00  0.00     0.010 C 
ENDBRANCH  17  18
ENDBRANCH  15  17
ENDBRANCH   8  11
ENDBRANCH   1   7
BRANCH   3  21
HETATM   21  C   UNL     1       7.198  25.839  55.431  1.00  0.00     0.165 A 
HETATM   22  N   UNL     1       7.853  25.794  56.595  1.00  0.00    -0.155 NA
HETATM   23  N   UNL     1       8.501  24.625  56.585  1.00  0.00    -0.275 N 
HETATM   24  H   UNL     1       9.102  24.406  57.372  1.00  0.00     0.189 HD
HETATM   25  C   UNL     1       8.245  23.855  55.489  1.00  0.00     0.065 A 
HETATM   26  C   UNL     1       7.389  24.617  54.698  1.00  0.00     0.040 A 
HETATM   27  C   UNL     1       8.702  22.579  55.134  1.00  0.00     0.051 A 
HETATM   28  C   UNL     1       6.972  24.073  53.463  1.00  0.00     0.019 A 
HETATM   29  C   UNL     1       7.411  22.795  53.086  1.00  0.00     0.020 A 
HETATM   30  C   UNL     1       8.260  22.066  53.913  1.00  0.00     0.013 A 
HETATM   31 BR   UNL     1       8.839  20.347  53.372  1.00  0.00    -0.051 Br
ENDBRANCH   3  21
TORSDOF 5
ENDMDL
MODEL 9
REMARK VINA RESULT:      -8.5      4.026      9.709
REMARK  5 active torsions:
REMARK  status: ('A' for Active; 'I' for Inactive)
REMARK    1  A    between atoms: C_2  and  C_3 
REMARK    2  A    between atoms: C_3  and  C_4 
REMARK    3  A    between atoms: C_8  and  N_9 
REMARK       I    between atoms: N_9  and  C_10 
REMARK    4  A    between atoms: C_10  and  C_11 
REMARK    5  A    between atoms: N_13  and  C_14 
ROOT
HETATM    1  C   UNL     1       4.886  30.763  55.814  1.00  0.00     0.106 C 
HETATM    2  C   UNL     1       6.148  31.133  56.560  1.00  0.00     0.148 C 
HETATM    3  N   UNL     1       5.747  31.145  57.943  1.00  0.00    -0.299 N 
HETATM    4  C   UNL     1       4.356  31.303  58.069  1.00  0.00     0.226 C 
HETATM    5  O   UNL     1       3.664  31.405  59.069  1.00  0.00    -0.273 OA
HETATM    6  C   UNL     1       3.765  31.313  56.679  1.00  0.00     0.119 C 
ENDROOT
BRANCH   1   7
HETATM    7  C   UNL     1       4.769  29.257  55.583  1.00  0.00     0.242 C 
HETATM    8  N   UNL     1       5.874  28.670  54.993  1.00  0.00    -0.156 N 
HETATM    9  H   UNL     1       6.668  29.230  54.708  1.00  0.00     0.187 HD
HETATM   10  O   UNL     1       3.730  28.691  55.913  1.00  0.00    -0.272 OA
BRANCH   8  11
HETATM   11  C   UNL     1       5.939  27.317  54.759  1.00  0.00     0.725 A 
HETATM   12  N   UNL     1       4.881  26.619  54.236  1.00  0.00    -0.106 N 
HETATM   13  N   UNL     1       5.164  25.314  54.100  1.00  0.00    -0.144 NA
HETATM   14  H   UNL     1       3.969  26.959  53.959  1.00  0.00     0.208 HD
HETATM   15  C   UNL     1       6.426  25.274  54.546  1.00  0.00     0.166 A 
HETATM   16  N   UNL     1       6.927  26.480  54.954  1.00  0.00    -0.046 NA
BRANCH  15  17
HETATM   17  C   UNL     1       7.235  24.027  54.587  1.00  0.00     0.087 C 
BRANCH  17  18
HETATM   18  C   UNL     1       7.416  23.368  53.207  1.00  0.00    -0.016 C 
HETATM   19  C   UNL     1       8.340  22.148  53.271  1.00  0.00     0.010 C 
HETATM   20  C   UNL     1       7.978  24.387  52.214  1.00  0.00     0.010 C 
ENDBRANCH  17  18
ENDBRANCH  15  17
ENDBRANCH   8  11
ENDBRANCH   1   7
BRANCH   3  21
HETATM   21  C   UNL     1       6.603  31.066  59.038  1.00  0.00     0.165 A 
HETATM   22  N   UNL     1       7.643  30.226  59.065  1.00  0.00    -0.155 NA
HETATM   23  N   UNL     1       8.215  30.417  60.257  1.00  0.00    -0.275 N 
HETATM   24  H   UNL     1       9.012  29.838  60.503  1.00  0.00     0.189 HD
HETATM   25  C   UNL     1       7.639  31.404  61.001  1.00  0.00     0.065 A 
HETATM   26  C   UNL     1       6.569  31.862  60.235  1.00  0.00     0.040 A 
HETATM   27  C   UNL     1       7.962  31.910  62.267  1.00  0.00     0.051 A 
HETATM   28  C   UNL     1       5.760  32.885  60.777  1.00  0.00     0.019 A 
HETATM   29  C   UNL     1       6.064  33.412  62.041  1.00  0.00     0.020 A 
HETATM   30  C   UNL     1       7.149  32.929  62.767  1.00  0.00     0.013 A 
HETATM   31 BR   UNL     1       7.528  33.658  64.472  1.00  0.00    -0.051 Br
ENDBRANCH   3  21
TORSDOF 5
ENDMDL
MODEL 10
REMARK VINA RESULT:      -8.4      7.055      9.846
REMARK  5 active torsions:
REMARK  status: ('A' for Active; 'I' for Inactive)
REMARK    1  A    between atoms: C_2  and  C_3 
REMARK    2  A    between atoms: C_3  and  C_4 
REMARK    3  A    between atoms: C_8  and  N_9 
REMARK       I    between atoms: N_9  and  C_10 
REMARK    4  A    between atoms: C_10  and  C_11 
REMARK    5  A    between atoms: N_13  and  C_14 
ROOT
HETATM    1  C   UNL     1       6.886  34.397  64.404  1.00  0.00     0.106 C 
HETATM    2  C   UNL     1       5.884  34.360  63.273  1.00  0.00     0.148 C 
HETATM    3  N   UNL     1       5.911  32.990  62.827  1.00  0.00    -0.299 N 
HETATM    4  C   UNL     1       7.104  32.353  63.207  1.00  0.00     0.226 C 
HETATM    5  O   UNL     1       7.501  31.223  62.972  1.00  0.00    -0.273 OA
HETATM    6  C   UNL     1       7.902  33.328  64.040  1.00  0.00     0.119 C 
ENDROOT
BRANCH   1   7
HETATM    7  C   UNL     1       6.234  34.154  65.765  1.00  0.00     0.242 C 
HETATM    8  N   UNL     1       7.030  34.454  66.856  1.00  0.00    -0.156 N 
HETATM    9  H   UNL     1       7.985  34.768  66.730  1.00  0.00     0.187 HD
HETATM   10  O   UNL     1       5.089  33.710  65.797  1.00  0.00    -0.272 OA
BRANCH   8  11
HETATM   11  C   UNL     1       6.572  34.329  68.145  1.00  0.00     0.725 A 
HETATM   12  N   UNL     1       5.589  33.435  68.483  1.00  0.00    -0.106 N 
HETATM   13  N   UNL     1       5.294  33.489  69.792  1.00  0.00    -0.144 NA
HETATM   14  H   UNL     1       5.094  32.779  67.891  1.00  0.00     0.208 HD
HETATM   15  C   UNL     1       6.146  34.434  70.210  1.00  0.00     0.166 A 
HETATM   16  N   UNL     1       6.939  34.965  69.229  1.00  0.00    -0.046 NA
BRANCH  15  17
HETATM   17  C   UNL     1       6.242  34.872  71.629  1.00  0.00     0.087 C 
BRANCH  17  18
HETATM   18  C   UNL     1       7.601  34.551  72.278  1.00  0.00    -0.016 C 
HETATM   19  C   UNL     1       7.977  33.075  72.122  1.00  0.00     0.010 C 
HETATM   20  C   UNL     1       7.566  34.918  73.763  1.00  0.00     0.010 C 
ENDBRANCH  17  18
ENDBRANCH  15  17
ENDBRANCH   8  11
ENDBRANCH   1   7
BRANCH   3  21
HETATM   21  C   UNL     1       4.924  32.364  62.069  1.00  0.00     0.165 A 
HETATM   22  N   UNL     1       3.885  31.743  62.635  1.00  0.00    -0.155 NA
HETATM   23  N   UNL     1       3.171  31.258  61.615  1.00  0.00    -0.275 N 
HETATM   24  H   UNL     1       2.346  30.706  61.829  1.00  0.00     0.189 HD
HETATM   25  C   UNL     1       3.655  31.592  60.385  1.00  0.00     0.065 A 
HETATM   26  C   UNL     1       4.814  32.323  60.636  1.00  0.00     0.040 A 
HETATM   27  C   UNL     1       3.181  31.304  59.099  1.00  0.00     0.051 A 
HETATM   28  C   UNL     1       5.556  32.785  59.526  1.00  0.00     0.019 A 
HETATM   29  C   UNL     1       5.101  32.513  58.227  1.00  0.00     0.020 A 
HETATM   30  C   UNL     1       3.932  31.786  58.025  1.00  0.00     0.013 A 
HETATM   31 BR   UNL     1       3.349  31.432  56.260  1.00  0.00    -0.051 Br
ENDBRANCH   3  21
TORSDOF 5
ENDMDL
