MODEL 1
REMARK VINA RESULT:      -8.6      0.000      0.000
REMARK  6 active torsions:
REMARK  status: ('A' for Active; 'I' for Inactive)
REMARK    1  A    between atoms: O_2  and  C_3 
REMARK    2  A    between atoms: C_3  and  C_4 
REMARK    3  A    between atoms: C_4  and  N_5 
REMARK       I    between atoms: N_5  and  C_6 
REMARK    4  A    between atoms: C_6  and  C_7 
REMARK    5  A    between atoms: C_12  and  C_13 
REMARK    6  A    between atoms: C_21  and  C_22 
ROOT
HETATM    1  C   UNL     1       5.395  27.401  51.810  1.00  0.00     0.170 A 
HETATM    2  N   UNL     1       6.361  26.538  52.211  1.00  0.00    -0.163 NA
HETATM    3  N   UNL     1       6.051  26.274  53.490  1.00  0.00    -0.238 N 
HETATM    4  C   UNL     1       4.996  27.007  53.963  1.00  0.00     0.145 A 
HETATM    5  N   UNL     1       4.622  26.927  55.268  1.00  0.00    -0.365 N 
HETATM    6  C   UNL     1       5.557  26.398  56.265  1.00  0.00     0.118 C 
HETATM    7  C   UNL     1       6.171  25.120  55.662  1.00  0.00     0.066 C 
HETATM    8  C   UNL     1       6.872  25.406  54.317  1.00  0.00     0.221 C 
HETATM    9  C   UNL     1       4.522  27.721  52.887  1.00  0.00     0.115 A 
HETATM   10 CL   UNL     1       3.202  28.786  52.884  1.00  0.00    -0.077 Cl
HETATM   11  H   UNL     1       3.910  27.563  55.626  1.00  0.00     0.162 HD
ENDROOT
BRANCH   1  12
HETATM   12  C   UNL     1       5.355  27.897  50.426  1.00  0.00     0.273 C 
HETATM   13  N   UNL     1       5.031  26.921  49.506  1.00  0.00    -0.353 N 
HETATM   14  H   UNL     1       5.001  25.969  49.863  1.00  0.00     0.162 HD
HETATM   15  O   UNL     1       5.593  29.057  50.106  1.00  0.00    -0.266 OA
BRANCH  13  16
HETATM   16  C   UNL     1       5.057  27.151  48.078  1.00  0.00     0.149 C 
BRANCH  16  17
HETATM   17  C   UNL     1       3.656  27.227  47.469  1.00  0.00     0.186 C 
BRANCH  17  18
HETATM   18  O   UNL     1       3.406  26.037  46.713  1.00  0.00    -0.394 OA
HETATM   19  C   UNL     1       2.922  24.987  47.541  1.00  0.00     0.201 C 
ENDBRANCH  17  18
ENDBRANCH  16  17
ENDBRANCH  13  16
ENDBRANCH   1  12
BRANCH   8  20
HETATM   20  C   UNL     1       7.180  24.097  53.622  1.00  0.00     0.409 C 
HETATM   21  F   UNL     1       6.186  23.705  52.795  1.00  0.00    -0.169 F 
HETATM   22  F   UNL     1       8.332  24.118  52.921  1.00  0.00    -0.169 F 
HETATM   23  F   UNL     1       7.320  23.112  54.551  1.00  0.00    -0.169 F 
ENDBRANCH   8  20
BRANCH   6  24
HETATM   24  C   UNL     1       6.565  27.445  56.740  1.00  0.00    -0.035 A 
HETATM   25  C   UNL     1       6.153  28.686  57.266  1.00  0.00     0.011 A 
HETATM   26  C   UNL     1       7.080  29.626  57.728  1.00  0.00     0.024 A 
HETATM   27  C   UNL     1       8.439  29.337  57.685  1.00  0.00     0.034 A 
HETATM   28 CL   UNL     1       9.582  30.490  58.251  1.00  0.00    -0.084 Cl
HETATM   29  C   UNL     1       8.875  28.111  57.195  1.00  0.00     0.024 A 
HETATM   30  C   UNL     1       7.946  27.169  56.739  1.00  0.00     0.011 A 
ENDBRANCH   6  24
TORSDOF 6
ENDMDL
MODEL 2
REMARK VINA RESULT:      -8.0      7.779     11.432
REMARK  6 active torsions:
REMARK  status: ('A' for Active; 'I' for Inactive)
REMARK    1  A    between atoms: O_2  and  C_3 
REMARK    2  A    between atoms: C_3  and  C_4 
REMARK    3  A    between atoms: C_4  and  N_5 
REMARK       I    between atoms: N_5  and  C_6 
REMARK    4  A    between atoms: C_6  and  C_7 
REMARK    5  A    between atoms: C_12  and  C_13 
REMARK    6  A    between atoms: C_21  and  C_22 
ROOT
HETATM    1  C   UNL     1       5.418  32.560  61.635  1.00  0.00     0.170 A 
HETATM    2  N   UNL     1       6.402  31.698  61.992  1.00  0.00    -0.163 NA
HETATM    3  N   UNL     1       7.138  31.566  60.877  1.00  0.00    -0.238 N 
HETATM    4  C   UNL     1       6.615  32.217  59.792  1.00  0.00     0.145 A 
HETATM    5  N   UNL     1       7.191  32.098  58.566  1.00  0.00    -0.365 N 
HETATM    6  C   UNL     1       8.103  30.984  58.291  1.00  0.00     0.118 C 
HETATM    7  C   UNL     1       9.059  30.887  59.494  1.00  0.00     0.066 C 
HETATM    8  C   UNL     1       8.290  30.683  60.816  1.00  0.00     0.221 C 
HETATM    9  C   UNL     1       5.518  32.903  60.258  1.00  0.00     0.115 A 
HETATM   10 CL   UNL     1       4.493  33.906  59.352  1.00  0.00    -0.077 Cl
HETATM   11  H   UNL     1       6.723  32.496  57.751  1.00  0.00     0.162 HD
ENDROOT
BRANCH   1  12
HETATM   12  C   UNL     1       4.415  33.005  62.615  1.00  0.00     0.273 C 
HETATM   13  N   UNL     1       4.953  33.741  63.650  1.00  0.00    -0.353 N 
HETATM   14  H   UNL     1       5.969  33.768  63.693  1.00  0.00     0.162 HD
HETATM   15  O   UNL     1       3.218  32.746  62.537  1.00  0.00    -0.266 OA
BRANCH  13  16
HETATM   16  C   UNL     1       4.175  34.173  64.792  1.00  0.00     0.149 C 
BRANCH  16  17
HETATM   17  C   UNL     1       4.872  33.880  66.121  1.00  0.00     0.186 C 
BRANCH  17  18
HETATM   18  O   UNL     1       4.074  34.394  67.194  1.00  0.00    -0.394 OA
HETATM   19  C   UNL     1       3.316  35.524  66.783  1.00  0.00     0.201 C 
ENDBRANCH  17  18
ENDBRANCH  16  17
ENDBRANCH  13  16
ENDBRANCH   1  12
BRANCH   8  20
HETATM   20  C   UNL     1       9.229  30.903  61.983  1.00  0.00     0.409 C 
HETATM   21  F   UNL     1       8.568  31.096  63.147  1.00  0.00    -0.169 F 
HETATM   22  F   UNL     1      10.114  29.901  62.159  1.00  0.00    -0.169 F 
HETATM   23  F   UNL     1       9.966  32.027  61.767  1.00  0.00    -0.169 F 
ENDBRANCH   8  20
BRANCH   6  24
HETATM   24  C   UNL     1       7.363  29.692  57.938  1.00  0.00    -0.035 A 
HETATM   25  C   UNL     1       6.006  29.694  57.561  1.00  0.00     0.011 A 
HETATM   26  C   UNL     1       5.345  28.512  57.209  1.00  0.00     0.024 A 
HETATM   27  C   UNL     1       6.035  27.306  57.215  1.00  0.00     0.034 A 
HETATM   28 CL   UNL     1       5.227  25.851  56.784  1.00  0.00    -0.084 Cl
HETATM   29  C   UNL     1       7.382  27.275  57.558  1.00  0.00     0.024 A 
HETATM   30  C   UNL     1       8.043  28.460  57.904  1.00  0.00     0.011 A 
ENDBRANCH   6  24
TORSDOF 6
ENDMDL
MODEL 3
REMARK VINA RESULT:      -7.9      1.479      1.847
REMARK  6 active torsions:
REMARK  status: ('A' for Active; 'I' for Inactive)
REMARK    1  A    between atoms: O_2  and  C_3 
REMARK    2  A    between atoms: C_3  and  C_4 
REMARK    3  A    between atoms: C_4  and  N_5 
REMARK       I    between atoms: N_5  and  C_6 
REMARK    4  A    between atoms: C_6  and  C_7 
REMARK    5  A    between atoms: C_12  and  C_13 
REMARK    6  A    between atoms: C_21  and  C_22 
ROOT
HETATM    1  C   UNL     1       5.409  27.373  52.036  1.00  0.00     0.170 A 
HETATM    2  N   UNL     1       6.388  26.523  52.436  1.00  0.00    -0.163 NA
HETATM    3  N   UNL     1       6.101  26.282  53.725  1.00  0.00    -0.238 N 
HETATM    4  C   UNL     1       5.050  27.016  54.202  1.00  0.00     0.145 A 
HETATM    5  N   UNL     1       4.699  26.958  55.515  1.00  0.00    -0.365 N 
HETATM    6  C   UNL     1       5.654  26.453  56.505  1.00  0.00     0.118 C 
HETATM    7  C   UNL     1       6.266  25.169  55.916  1.00  0.00     0.066 C 
HETATM    8  C   UNL     1       6.942  25.434  54.553  1.00  0.00     0.221 C 
HETATM    9  C   UNL     1       4.553  27.707  53.122  1.00  0.00     0.115 A 
HETATM   10 CL   UNL     1       3.226  28.764  53.121  1.00  0.00    -0.077 Cl
HETATM   11  H   UNL     1       3.989  27.596  55.873  1.00  0.00     0.162 HD
ENDROOT
BRANCH   1  12
HETATM   12  C   UNL     1       5.343  27.842  50.643  1.00  0.00     0.273 C 
HETATM   13  N   UNL     1       5.590  29.193  50.512  1.00  0.00    -0.353 N 
HETATM   14  H   UNL     1       5.644  29.720  51.379  1.00  0.00     0.162 HD
HETATM   15  O   UNL     1       5.084  27.118  49.687  1.00  0.00    -0.266 OA
BRANCH  13  16
HETATM   16  C   UNL     1       5.453  29.895  49.253  1.00  0.00     0.149 C 
BRANCH  16  17
HETATM   17  C   UNL     1       4.095  30.584  49.110  1.00  0.00     0.186 C 
BRANCH  17  18
HETATM   18  O   UNL     1       3.236  29.768  48.305  1.00  0.00    -0.394 OA
HETATM   19  C   UNL     1       2.184  29.202  49.077  1.00  0.00     0.201 C 
ENDBRANCH  17  18
ENDBRANCH  16  17
ENDBRANCH  13  16
ENDBRANCH   1  12
BRANCH   8  20
HETATM   20  C   UNL     1       7.247  24.114  53.878  1.00  0.00     0.409 C 
HETATM   21  F   UNL     1       6.234  23.693  53.088  1.00  0.00    -0.169 F 
HETATM   22  F   UNL     1       8.378  24.134  53.144  1.00  0.00    -0.169 F 
HETATM   23  F   UNL     1       7.426  23.151  54.823  1.00  0.00    -0.169 F 
ENDBRANCH   8  20
BRANCH   6  24
HETATM   24  C   UNL     1       6.663  27.516  56.944  1.00  0.00    -0.035 A 
HETATM   25  C   UNL     1       8.053  27.311  56.832  1.00  0.00     0.011 A 
HETATM   26  C   UNL     1       8.968  28.300  57.206  1.00  0.00     0.024 A 
HETATM   27  C   UNL     1       8.510  29.520  57.687  1.00  0.00     0.034 A 
HETATM   28 CL   UNL     1       9.632  30.739  58.149  1.00  0.00    -0.084 Cl
HETATM   29  C   UNL     1       7.145  29.762  57.785  1.00  0.00     0.024 A 
HETATM   30  C   UNL     1       6.229  28.774  57.405  1.00  0.00     0.011 A 
ENDBRANCH   6  24
TORSDOF 6
ENDMDL
MODEL 4
REMARK VINA RESULT:      -7.7      4.010      6.387
REMARK  6 active torsions:
REMARK  status: ('A' for Active; 'I' for Inactive)
REMARK    1  A    between atoms: O_2  and  C_3 
REMARK    2  A    between atoms: C_3  and  C_4 
REMARK    3  A    between atoms: C_4  and  N_5 
REMARK       I    between atoms: N_5  and  C_6 
REMARK    4  A    between atoms: C_6  and  C_7 
REMARK    5  A    between atoms: C_12  and  C_13 
REMARK    6  A    between atoms: C_21  and  C_22 
ROOT
HETATM    1  C   UNL     1       6.566  25.255  53.747  1.00  0.00     0.170 A 
HETATM    2  N   UNL     1       6.819  26.329  54.537  1.00  0.00    -0.163 NA
HETATM    3  N   UNL     1       5.712  27.081  54.427  1.00  0.00    -0.238 N 
HETATM    4  C   UNL     1       4.805  26.597  53.523  1.00  0.00     0.145 A 
HETATM    5  N   UNL     1       3.678  27.296  53.225  1.00  0.00    -0.365 N 
HETATM    6  C   UNL     1       3.603  28.727  53.532  1.00  0.00     0.118 C 
HETATM    7  C   UNL     1       4.144  28.903  54.963  1.00  0.00     0.066 C 
HETATM    8  C   UNL     1       5.585  28.364  55.097  1.00  0.00     0.221 C 
HETATM    9  C   UNL     1       5.311  25.393  53.091  1.00  0.00     0.115 A 
HETATM   10 CL   UNL     1       4.591  24.335  51.978  1.00  0.00    -0.077 Cl
HETATM   11  H   UNL     1       3.073  26.975  52.469  1.00  0.00     0.162 HD
ENDROOT
BRANCH   1  12
HETATM   12  C   UNL     1       7.537  24.156  53.638  1.00  0.00     0.273 C 
HETATM   13  N   UNL     1       7.556  23.333  54.745  1.00  0.00    -0.353 N 
HETATM   14  H   UNL     1       7.017  23.655  55.546  1.00  0.00     0.162 HD
HETATM   15  O   UNL     1       8.270  23.982  52.670  1.00  0.00    -0.266 OA
BRANCH  13  16
HETATM   16  C   UNL     1       8.519  22.265  54.911  1.00  0.00     0.149 C 
BRANCH  16  17
HETATM   17  C   UNL     1       7.855  20.904  55.123  1.00  0.00     0.186 C 
BRANCH  17  18
HETATM   18  O   UNL     1       8.428  19.955  54.217  1.00  0.00    -0.394 OA
HETATM   19  C   UNL     1       8.404  20.433  52.879  1.00  0.00     0.201 C 
ENDBRANCH  17  18
ENDBRANCH  16  17
ENDBRANCH  13  16
ENDBRANCH   1  12
BRANCH   8  20
HETATM   20  C   UNL     1       5.953  28.271  56.562  1.00  0.00     0.409 C 
HETATM   21  F   UNL     1       5.537  27.115  57.126  1.00  0.00    -0.169 F 
HETATM   22  F   UNL     1       7.275  28.405  56.794  1.00  0.00    -0.169 F 
HETATM   23  F   UNL     1       5.345  29.277  57.248  1.00  0.00    -0.169 F 
ENDBRANCH   8  20
BRANCH   6  24
HETATM   24  C   UNL     1       4.279  29.593  52.468  1.00  0.00    -0.035 A 
HETATM   25  C   UNL     1       5.053  29.028  51.434  1.00  0.00     0.011 A 
HETATM   26  C   UNL     1       5.641  29.825  50.446  1.00  0.00     0.024 A 
HETATM   27  C   UNL     1       5.457  31.201  50.466  1.00  0.00     0.034 A 
HETATM   28 CL   UNL     1       6.179  32.184  49.254  1.00  0.00    -0.084 Cl
HETATM   29  C   UNL     1       4.678  31.786  51.459  1.00  0.00     0.024 A 
HETATM   30  C   UNL     1       4.084  30.987  52.443  1.00  0.00     0.011 A 
ENDBRANCH   6  24
TORSDOF 6
ENDMDL
MODEL 5
REMARK VINA RESULT:      -7.5      8.767     11.590
REMARK  6 active torsions:
REMARK  status: ('A' for Active; 'I' for Inactive)
REMARK    1  A    between atoms: O_2  and  C_3 
REMARK    2  A    between atoms: C_3  and  C_4 
REMARK    3  A    between atoms: C_4  and  N_5 
REMARK       I    between atoms: N_5  and  C_6 
REMARK    4  A    between atoms: C_6  and  C_7 
REMARK    5  A    between atoms: C_12  and  C_13 
REMARK    6  A    between atoms: C_21  and  C_22 
ROOT
HETATM    1  C   UNL     1       5.852  32.868  60.124  1.00  0.00     0.170 A 
HETATM    2  N   UNL     1       6.707  33.057  61.160  1.00  0.00    -0.163 NA
HETATM    3  N   UNL     1       5.992  33.768  62.046  1.00  0.00    -0.238 N 
HETATM    4  C   UNL     1       4.756  34.137  61.587  1.00  0.00     0.145 A 
HETATM    5  N   UNL     1       3.951  34.944  62.328  1.00  0.00    -0.365 N 
HETATM    6  C   UNL     1       4.522  35.753  63.409  1.00  0.00     0.118 C 
HETATM    7  C   UNL     1       5.463  34.830  64.205  1.00  0.00     0.066 C 
HETATM    8  C   UNL     1       6.560  34.224  63.303  1.00  0.00     0.221 C 
HETATM    9  C   UNL     1       4.618  33.537  60.357  1.00  0.00     0.115 A 
HETATM   10 CL   UNL     1       3.267  33.628  59.335  1.00  0.00    -0.077 Cl
HETATM   11  H   UNL     1       3.085  35.298  61.923  1.00  0.00     0.162 HD
ENDROOT
BRANCH   1  12
HETATM   12  C   UNL     1       6.252  32.076  58.952  1.00  0.00     0.273 C 
HETATM   13  N   UNL     1       6.906  30.907  59.282  1.00  0.00    -0.353 N 
HETATM   14  H   UNL     1       7.157  30.801  60.262  1.00  0.00     0.162 HD
HETATM   15  O   UNL     1       6.041  32.413  57.791  1.00  0.00    -0.266 OA
BRANCH  13  16
HETATM   16  C   UNL     1       7.501  30.035  58.291  1.00  0.00     0.149 C 
BRANCH  16  17
HETATM   17  C   UNL     1       9.028  30.012  58.371  1.00  0.00     0.186 C 
BRANCH  17  18
HETATM   18  O   UNL     1       9.538  29.112  57.381  1.00  0.00    -0.394 OA
HETATM   19  C   UNL     1      10.280  29.802  56.384  1.00  0.00     0.201 C 
ENDBRANCH  17  18
ENDBRANCH  16  17
ENDBRANCH  13  16
ENDBRANCH   1  12
BRANCH   8  20
HETATM   20  C   UNL     1       7.256  33.101  64.044  1.00  0.00     0.409 C 
HETATM   21  F   UNL     1       8.528  32.917  63.624  1.00  0.00    -0.169 F 
HETATM   22  F   UNL     1       7.271  33.268  65.382  1.00  0.00    -0.169 F 
HETATM   23  F   UNL     1       6.600  31.931  63.815  1.00  0.00    -0.169 F 
ENDBRANCH   8  20
BRANCH   6  24
HETATM   24  C   UNL     1       5.154  37.050  62.901  1.00  0.00    -0.035 A 
HETATM   25  C   UNL     1       6.013  37.822  63.708  1.00  0.00     0.011 A 
HETATM   26  C   UNL     1       6.612  38.990  63.225  1.00  0.00     0.024 A 
HETATM   27  C   UNL     1       6.374  39.401  61.920  1.00  0.00     0.034 A 
HETATM   28 CL   UNL     1       7.108  40.837  61.322  1.00  0.00    -0.084 Cl
HETATM   29  C   UNL     1       5.551  38.647  61.091  1.00  0.00     0.024 A 
HETATM   30  C   UNL     1       4.957  37.475  61.573  1.00  0.00     0.011 A 
ENDBRANCH   6  24
TORSDOF 6
ENDMDL
MODEL 6
REMARK VINA RESULT:      -7.4      5.049      6.812
REMARK  6 active torsions:
REMARK  status: ('A' for Active; 'I' for Inactive)
REMARK    1  A    between atoms: O_2  and  C_3 
REMARK    2  A    between atoms: C_3  and  C_4 
REMARK    3  A    between atoms: C_4  and  N_5 
REMARK       I    between atoms: N_5  and  C_6 
REMARK    4  A    between atoms: C_6  and  C_7 
REMARK    5  A    between atoms: C_12  and  C_13 
REMARK    6  A    between atoms: C_21  and  C_22 
ROOT
HETATM    1  C   UNL     1       7.453  26.396  56.929  1.00  0.00     0.170 A 
HETATM    2  N   UNL     1       8.045  27.616  56.902  1.00  0.00    -0.163 NA
HETATM    3  N   UNL     1       7.052  28.465  57.208  1.00  0.00    -0.238 N 
HETATM    4  C   UNL     1       5.828  27.863  57.326  1.00  0.00     0.145 A 
HETATM    5  N   UNL     1       4.706  28.602  57.535  1.00  0.00    -0.365 N 
HETATM    6  C   UNL     1       4.709  30.037  57.236  1.00  0.00     0.118 C 
HETATM    7  C   UNL     1       6.010  30.610  57.826  1.00  0.00     0.066 C 
HETATM    8  C   UNL     1       7.256  29.904  57.250  1.00  0.00     0.221 C 
HETATM    9  C   UNL     1       6.059  26.515  57.187  1.00  0.00     0.115 A 
HETATM   10 CL   UNL     1       4.900  25.278  57.268  1.00  0.00    -0.077 Cl
HETATM   11  H   UNL     1       3.793  28.148  57.506  1.00  0.00     0.162 HD
ENDROOT
BRANCH   1  12
HETATM   12  C   UNL     1       8.235  25.174  56.689  1.00  0.00     0.273 C 
HETATM   13  N   UNL     1       7.866  24.507  55.539  1.00  0.00    -0.353 N 
HETATM   14  H   UNL     1       7.024  24.847  55.081  1.00  0.00     0.162 HD
HETATM   15  O   UNL     1       9.123  24.771  57.433  1.00  0.00    -0.266 OA
BRANCH  13  16
HETATM   16  C   UNL     1       8.412  23.218  55.172  1.00  0.00     0.149 C 
BRANCH  16  17
HETATM   17  C   UNL     1       7.690  22.594  53.976  1.00  0.00     0.186 C 
BRANCH  17  18
HETATM   18  O   UNL     1       7.739  21.167  54.088  1.00  0.00    -0.394 OA
HETATM   19  C   UNL     1       8.203  20.568  52.885  1.00  0.00     0.201 C 
ENDBRANCH  17  18
ENDBRANCH  16  17
ENDBRANCH  13  16
ENDBRANCH   1  12
BRANCH   8  20
HETATM   20  C   UNL     1       8.471  30.275  58.073  1.00  0.00     0.409 C 
HETATM   21  F   UNL     1       8.548  29.570  59.225  1.00  0.00    -0.169 F 
HETATM   22  F   UNL     1       9.636  30.131  57.409  1.00  0.00    -0.169 F 
HETATM   23  F   UNL     1       8.396  31.587  58.428  1.00  0.00    -0.169 F 
ENDBRANCH   8  20
BRANCH   6  24
HETATM   24  C   UNL     1       4.481  30.328  55.751  1.00  0.00    -0.035 A 
HETATM   25  C   UNL     1       4.227  29.299  54.824  1.00  0.00     0.011 A 
HETATM   26  C   UNL     1       3.988  29.577  53.474  1.00  0.00     0.024 A 
HETATM   27  C   UNL     1       3.986  30.892  53.028  1.00  0.00     0.034 A 
HETATM   28 CL   UNL     1       3.694  31.239  51.369  1.00  0.00    -0.084 Cl
HETATM   29  C   UNL     1       4.209  31.932  53.924  1.00  0.00     0.024 A 
HETATM   30  C   UNL     1       4.441  31.653  55.276  1.00  0.00     0.011 A 
ENDBRANCH   6  24
TORSDOF 6
ENDMDL
MODEL 7
REMARK VINA RESULT:      -7.4      4.225      5.831
REMARK  6 active torsions:
REMARK  status: ('A' for Active; 'I' for Inactive)
REMARK    1  A    between atoms: O_2  and  C_3 
REMARK    2  A    between atoms: C_3  and  C_4 
REMARK    3  A    between atoms: C_4  and  N_5 
REMARK       I    between atoms: N_5  and  C_6 
REMARK    4  A    between atoms: C_6  and  C_7 
REMARK    5  A    between atoms: C_12  and  C_13 
REMARK    6  A    between atoms: C_21  and  C_22 
ROOT
HETATM    1  C   UNL     1       6.906  25.887  54.122  1.00  0.00     0.170 A 
HETATM    2  N   UNL     1       7.527  26.812  54.895  1.00  0.00    -0.163 NA
HETATM    3  N   UNL     1       6.523  27.411  55.554  1.00  0.00    -0.238 N 
HETATM    4  C   UNL     1       5.280  26.990  55.166  1.00  0.00     0.145 A 
HETATM    5  N   UNL     1       4.158  27.573  55.669  1.00  0.00    -0.365 N 
HETATM    6  C   UNL     1       4.241  28.893  56.298  1.00  0.00     0.118 C 
HETATM    7  C   UNL     1       5.461  28.862  57.237  1.00  0.00     0.066 C 
HETATM    8  C   UNL     1       6.756  28.511  56.475  1.00  0.00     0.221 C 
HETATM    9  C   UNL     1       5.493  25.974  54.264  1.00  0.00     0.115 A 
HETATM   10 CL   UNL     1       4.303  25.061  53.470  1.00  0.00    -0.077 Cl
HETATM   11  H   UNL     1       3.247  27.323  55.284  1.00  0.00     0.162 HD
ENDROOT
BRANCH   1  12
HETATM   12  C   UNL     1       7.682  24.973  53.270  1.00  0.00     0.273 C 
HETATM   13  N   UNL     1       7.597  23.655  53.666  1.00  0.00    -0.353 N 
HETATM   14  H   UNL     1       7.139  23.488  54.559  1.00  0.00     0.162 HD
HETATM   15  O   UNL     1       8.351  25.335  52.308  1.00  0.00    -0.266 OA
BRANCH  13  16
HETATM   16  C   UNL     1       8.378  22.601  53.053  1.00  0.00     0.149 C 
BRANCH  16  17
HETATM   17  C   UNL     1       7.957  21.208  53.525  1.00  0.00     0.186 C 
BRANCH  17  18
HETATM   18  O   UNL     1       8.698  20.865  54.701  1.00  0.00    -0.394 OA
HETATM   19  C   UNL     1       7.835  20.534  55.781  1.00  0.00     0.201 C 
ENDBRANCH  17  18
ENDBRANCH  16  17
ENDBRANCH  13  16
ENDBRANCH   1  12
BRANCH   8  20
HETATM   20  C   UNL     1       7.852  28.190  57.467  1.00  0.00     0.409 C 
HETATM   21  F   UNL     1       7.774  26.921  57.929  1.00  0.00    -0.169 F 
HETATM   22  F   UNL     1       9.095  28.388  56.981  1.00  0.00    -0.169 F 
HETATM   23  F   UNL     1       7.737  29.004  58.552  1.00  0.00    -0.169 F 
ENDBRANCH   8  20
BRANCH   6  24
HETATM   24  C   UNL     1       4.230  30.033  55.278  1.00  0.00    -0.035 A 
HETATM   25  C   UNL     1       4.578  31.351  55.634  1.00  0.00     0.011 A 
HETATM   26  C   UNL     1       4.597  32.381  54.687  1.00  0.00     0.024 A 
HETATM   27  C   UNL     1       4.281  32.109  53.362  1.00  0.00     0.034 A 
HETATM   28 CL   UNL     1       4.302  33.372  52.195  1.00  0.00    -0.084 Cl
HETATM   29  C   UNL     1       3.957  30.813  52.975  1.00  0.00     0.024 A 
HETATM   30  C   UNL     1       3.945  29.782  53.922  1.00  0.00     0.011 A 
ENDBRANCH   6  24
TORSDOF 6
ENDMDL
MODEL 8
REMARK VINA RESULT:      -7.2      2.172      2.585
REMARK  6 active torsions:
REMARK  status: ('A' for Active; 'I' for Inactive)
REMARK    1  A    between atoms: O_2  and  C_3 
REMARK    2  A    between atoms: C_3  and  C_4 
REMARK    3  A    between atoms: C_4  and  N_5 
REMARK       I    between atoms: N_5  and  C_6 
REMARK    4  A    between atoms: C_6  and  C_7 
REMARK    5  A    between atoms: C_12  and  C_13 
REMARK    6  A    between atoms: C_21  and  C_22 
ROOT
HETATM    1  C   UNL     1       4.083  29.116  53.499  1.00  0.00     0.170 A 
HETATM    2  N   UNL     1       4.952  28.081  53.382  1.00  0.00    -0.163 NA
HETATM    3  N   UNL     1       5.146  27.675  54.646  1.00  0.00    -0.238 N 
HETATM    4  C   UNL     1       4.529  28.464  55.579  1.00  0.00     0.145 A 
HETATM    5  N   UNL     1       4.711  28.243  56.909  1.00  0.00    -0.365 N 
HETATM    6  C   UNL     1       5.856  27.451  57.368  1.00  0.00     0.118 C 
HETATM    7  C   UNL     1       5.925  26.206  56.464  1.00  0.00     0.066 C 
HETATM    8  C   UNL     1       6.057  26.592  54.975  1.00  0.00     0.221 C 
HETATM    9  C   UNL     1       3.800  29.387  54.867  1.00  0.00     0.115 A 
HETATM   10 CL   UNL     1       2.812  30.608  55.508  1.00  0.00    -0.077 Cl
HETATM   11  H   UNL     1       4.336  28.908  57.584  1.00  0.00     0.162 HD
ENDROOT
BRANCH   1  12
HETATM   12  C   UNL     1       3.576  29.812  52.307  1.00  0.00     0.273 C 
HETATM   13  N   UNL     1       2.516  29.164  51.707  1.00  0.00    -0.353 N 
HETATM   14  H   UNL     1       2.307  28.234  52.062  1.00  0.00     0.162 HD
HETATM   15  O   UNL     1       4.046  30.859  51.872  1.00  0.00    -0.266 OA
BRANCH  13  16
HETATM   16  C   UNL     1       1.941  29.599  50.452  1.00  0.00     0.149 C 
BRANCH  16  17
HETATM   17  C   UNL     1       2.618  28.953  49.242  1.00  0.00     0.186 C 
BRANCH  17  18
HETATM   18  O   UNL     1       1.649  28.771  48.203  1.00  0.00    -0.394 OA
HETATM   19  C   UNL     1       1.195  27.425  48.146  1.00  0.00     0.201 C 
ENDBRANCH  17  18
ENDBRANCH  16  17
ENDBRANCH  13  16
ENDBRANCH   1  12
BRANCH   8  20
HETATM   20  C   UNL     1       5.810  25.370  54.115  1.00  0.00     0.409 C 
HETATM   21  F   UNL     1       4.502  25.206  53.816  1.00  0.00    -0.169 F 
HETATM   22  F   UNL     1       6.512  25.372  52.963  1.00  0.00    -0.169 F 
HETATM   23  F   UNL     1       6.195  24.253  54.791  1.00  0.00    -0.169 F 
ENDBRANCH   8  20
BRANCH   6  24
HETATM   24  C   UNL     1       7.144  28.272  57.449  1.00  0.00    -0.035 A 
HETATM   25  C   UNL     1       8.360  27.798  56.919  1.00  0.00     0.011 A 
HETATM   26  C   UNL     1       9.527  28.568  56.969  1.00  0.00     0.024 A 
HETATM   27  C   UNL     1       9.495  29.834  57.541  1.00  0.00     0.034 A 
HETATM   28 CL   UNL     1      10.927  30.785  57.606  1.00  0.00    -0.084 Cl
HETATM   29  C   UNL     1       8.304  30.340  58.050  1.00  0.00     0.024 A 
HETATM   30  C   UNL     1       7.136  29.570  57.993  1.00  0.00     0.011 A 
ENDBRANCH   6  24
TORSDOF 6
ENDMDL
MODEL 9
REMARK VINA RESULT:      -6.9      2.196      2.852
REMARK  6 active torsions:
REMARK  status: ('A' for Active; 'I' for Inactive)
REMARK    1  A    between atoms: O_2  and  C_3 
REMARK    2  A    between atoms: C_3  and  C_4 
REMARK    3  A    between atoms: C_4  and  N_5 
REMARK       I    between atoms: N_5  and  C_6 
REMARK    4  A    between atoms: C_6  and  C_7 
REMARK    5  A    between atoms: C_12  and  C_13 
REMARK    6  A    between atoms: C_21  and  C_22 
ROOT
HETATM    1  C   UNL     1       5.181  28.828  51.792  1.00  0.00     0.170 A 
HETATM    2  N   UNL     1       6.006  27.776  52.023  1.00  0.00    -0.163 NA
HETATM    3  N   UNL     1       5.654  27.351  53.246  1.00  0.00    -0.238 N 
HETATM    4  C   UNL     1       4.719  28.142  53.858  1.00  0.00     0.145 A 
HETATM    5  N   UNL     1       4.333  27.901  55.139  1.00  0.00    -0.365 N 
HETATM    6  C   UNL     1       5.174  27.078  56.013  1.00  0.00     0.118 C 
HETATM    7  C   UNL     1       5.591  25.843  55.193  1.00  0.00     0.066 C 
HETATM    8  C   UNL     1       6.332  26.244  53.900  1.00  0.00     0.221 C 
HETATM    9  C   UNL     1       4.363  29.089  52.926  1.00  0.00     0.115 A 
HETATM   10 CL   UNL     1       3.217  30.324  53.128  1.00  0.00    -0.077 Cl
HETATM   11  H   UNL     1       3.722  28.566  55.613  1.00  0.00     0.162 HD
ENDROOT
BRANCH   1  12
HETATM   12  C   UNL     1       5.222  29.550  50.511  1.00  0.00     0.273 C 
HETATM   13  N   UNL     1       5.889  30.755  50.585  1.00  0.00    -0.353 N 
HETATM   14  H   UNL     1       6.142  31.065  51.520  1.00  0.00     0.162 HD
HETATM   15  O   UNL     1       4.710  29.138  49.475  1.00  0.00    -0.266 OA
BRANCH  13  16
HETATM   16  C   UNL     1       5.943  31.689  49.481  1.00  0.00     0.149 C 
BRANCH  16  17
HETATM   17  C   UNL     1       5.408  33.072  49.856  1.00  0.00     0.186 C 
BRANCH  17  18
HETATM   18  O   UNL     1       4.028  33.160  49.485  1.00  0.00    -0.394 OA
HETATM   19  C   UNL     1       3.785  32.529  48.234  1.00  0.00     0.201 C 
ENDBRANCH  17  18
ENDBRANCH  16  17
ENDBRANCH  13  16
ENDBRANCH   1  12
BRANCH   8  20
HETATM   20  C   UNL     1       6.443  25.039  52.990  1.00  0.00     0.409 C 
HETATM   21  F   UNL     1       5.289  24.778  52.336  1.00  0.00    -0.169 F 
HETATM   22  F   UNL     1       7.434  25.141  52.080  1.00  0.00    -0.169 F 
HETATM   23  F   UNL     1       6.725  23.933  53.733  1.00  0.00    -0.169 F 
ENDBRANCH   8  20
BRANCH   6  24
HETATM   24  C   UNL     1       6.326  27.870  56.635  1.00  0.00    -0.035 A 
HETATM   25  C   UNL     1       6.122  29.128  57.236  1.00  0.00     0.011 A 
HETATM   26  C   UNL     1       7.175  29.831  57.830  1.00  0.00     0.024 A 
HETATM   27  C   UNL     1       8.451  29.282  57.847  1.00  0.00     0.034 A 
HETATM   28 CL   UNL     1       9.749  30.143  58.576  1.00  0.00    -0.084 Cl
HETATM   29  C   UNL     1       8.679  28.031  57.284  1.00  0.00     0.024 A 
HETATM   30  C   UNL     1       7.623  27.326  56.695  1.00  0.00     0.011 A 
ENDBRANCH   6  24
TORSDOF 6
ENDMDL
MODEL 10
REMARK VINA RESULT:      -6.7      2.897      3.540
REMARK  6 active torsions:
REMARK  status: ('A' for Active; 'I' for Inactive)
REMARK    1  A    between atoms: O_2  and  C_3 
REMARK    2  A    between atoms: C_3  and  C_4 
REMARK    3  A    between atoms: C_4  and  N_5 
REMARK       I    between atoms: N_5  and  C_6 
REMARK    4  A    between atoms: C_6  and  C_7 
REMARK    5  A    between atoms: C_12  and  C_13 
REMARK    6  A    between atoms: C_21  and  C_22 
ROOT
HETATM    1  C   UNL     1       4.119  29.620  53.088  1.00  0.00     0.170 A 
HETATM    2  N   UNL     1       4.917  28.527  53.004  1.00  0.00    -0.163 NA
HETATM    3  N   UNL     1       4.977  28.071  54.265  1.00  0.00    -0.238 N 
HETATM    4  C   UNL     1       4.345  28.877  55.173  1.00  0.00     0.145 A 
HETATM    5  N   UNL     1       4.402  28.604  56.504  1.00  0.00    -0.365 N 
HETATM    6  C   UNL     1       5.444  27.716  57.024  1.00  0.00     0.118 C 
HETATM    7  C   UNL     1       5.497  26.496  56.086  1.00  0.00     0.066 C 
HETATM    8  C   UNL     1       5.778  26.913  54.627  1.00  0.00     0.221 C 
HETATM    9  C   UNL     1       3.745  29.872  54.437  1.00  0.00     0.115 A 
HETATM   10 CL   UNL     1       2.799  31.145  55.041  1.00  0.00    -0.077 Cl
HETATM   11  H   UNL     1       4.022  29.276  57.170  1.00  0.00     0.162 HD
ENDROOT
BRANCH   1  12
HETATM   12  C   UNL     1       3.762  30.386  51.884  1.00  0.00     0.273 C 
HETATM   13  N   UNL     1       4.756  31.251  51.475  1.00  0.00    -0.353 N 
HETATM   14  H   UNL     1       5.538  31.363  52.115  1.00  0.00     0.162 HD
HETATM   15  O   UNL     1       2.689  30.283  51.298  1.00  0.00    -0.266 OA
BRANCH  13  16
HETATM   16  C   UNL     1       4.576  32.195  50.392  1.00  0.00     0.149 C 
BRANCH  16  17
HETATM   17  C   UNL     1       5.241  31.733  49.094  1.00  0.00     0.186 C 
BRANCH  17  18
HETATM   18  O   UNL     1       6.511  32.381  48.959  1.00  0.00    -0.394 OA
HETATM   19  C   UNL     1       6.364  33.791  48.851  1.00  0.00     0.201 C 
ENDBRANCH  17  18
ENDBRANCH  16  17
ENDBRANCH  13  16
ENDBRANCH   1  12
BRANCH   8  20
HETATM   20  C   UNL     1       5.514  25.739  53.708  1.00  0.00     0.409 C 
HETATM   21  F   UNL     1       5.766  24.552  54.304  1.00  0.00    -0.169 F 
HETATM   22  F   UNL     1       4.257  25.710  53.219  1.00  0.00    -0.169 F 
HETATM   23  F   UNL     1       6.339  25.813  52.628  1.00  0.00    -0.169 F 
ENDBRANCH   8  20
BRANCH   6  24
HETATM   24  C   UNL     1       6.778  28.435  57.236  1.00  0.00    -0.035 A 
HETATM   25  C   UNL     1       6.846  29.710  57.832  1.00  0.00     0.011 A 
HETATM   26  C   UNL     1       8.072  30.348  58.052  1.00  0.00     0.024 A 
HETATM   27  C   UNL     1       9.255  29.716  57.689  1.00  0.00     0.034 A 
HETATM   28 CL   UNL     1      10.764  30.496  57.956  1.00  0.00    -0.084 Cl
HETATM   29  C   UNL     1       9.222  28.447  57.122  1.00  0.00     0.024 A 
HETATM   30  C   UNL     1       7.994  27.807  56.909  1.00  0.00     0.011 A 
ENDBRANCH   6  24
TORSDOF 6
ENDMDL
