MODEL 1
REMARK VINA RESULT:      -8.7      0.000      0.000
REMARK  9 active torsions:
REMARK  status: ('A' for Active; 'I' for Inactive)
REMARK    1  A    between atoms: C_2  and  C_3 
REMARK    2  A    between atoms: C_3  and  C_4 
REMARK    3  A    between atoms: C_7  and  C_8 
REMARK       I    between atoms: C_8  and  N_9 
REMARK    4  A    between atoms: C_13  and  O_14 
REMARK    5  A    between atoms: O_14  and  C_15 
REMARK    6  A    between atoms: C_15  and  C_16 
REMARK    7  A    between atoms: C_16  and  O_17 
REMARK    8  A    between atoms: C_19  and  N_20 
REMARK       I    between atoms: N_20  and  C_21 
REMARK    9  A    between atoms: C_21  and  C_22 
ROOT
HETATM    1  C   UNL     1       9.539  30.360  57.821  1.00  0.00     0.274 C 
HETATM    2  N   UNL     1       8.723  29.250  57.536  1.00  0.00    -0.347 N 
HETATM    3  C   UNL     1       7.443  28.979  58.195  1.00  0.00     0.127 C 
HETATM    4  C   UNL     1       6.311  29.526  57.326  1.00  0.00     0.037 C 
HETATM    5  C   UNL     1       6.328  28.892  55.914  1.00  0.00     0.019 C 
HETATM    6  C   UNL     1       5.894  27.373  55.907  1.00  0.00     0.162 C 
HETATM    7  C   UNL     1       4.988  27.163  54.650  1.00  0.00     0.148 C 
HETATM    8  C   UNL     1       4.531  28.558  54.337  1.00  0.00    -0.026 A 
HETATM    9  C   UNL     1       5.279  29.521  55.016  1.00  0.00    -0.038 A 
HETATM   10  C   UNL     1       3.519  28.921  53.455  1.00  0.00     0.010 A 
HETATM   11  C   UNL     1       3.260  30.277  53.253  1.00  0.00     0.001 A 
HETATM   12  C   UNL     1       4.016  31.247  53.921  1.00  0.00     0.001 A 
HETATM   13  C   UNL     1       5.032  30.873  54.805  1.00  0.00     0.009 A 
HETATM   14  C   UNL     1       7.736  29.073  55.283  1.00  0.00     0.037 C 
HETATM   15  C   UNL     1       8.853  28.614  56.229  1.00  0.00     0.127 C 
HETATM   16  O   UNL     1      10.308  30.814  56.971  1.00  0.00    -0.266 OA
ENDROOT
BRANCH   6  17
HETATM   17  O   UNL     1       5.168  27.061  57.115  1.00  0.00    -0.380 OA
BRANCH  17  18
HETATM   18  C   UNL     1       5.226  25.675  57.463  1.00  0.00     0.194 C 
BRANCH  18  19
HETATM   19  C   UNL     1       6.625  25.146  57.166  1.00  0.00     0.193 C 
BRANCH  19  20
HETATM   20  O   UNL     1       6.549  24.114  56.186  1.00  0.00    -0.394 OA
HETATM   21  C   UNL     1       7.735  24.043  55.406  1.00  0.00     0.201 C 
ENDBRANCH  19  20
ENDBRANCH  18  19
ENDBRANCH  17  18
ENDBRANCH   6  17
BRANCH   7  22
HETATM   22  N   UNL     1       5.680  26.596  53.506  1.00  0.00    -0.350 N 
HETATM   23  C   UNL     1       5.225  25.456  52.889  1.00  0.00     0.221 C 
HETATM   24  O   UNL     1       4.319  24.772  53.353  1.00  0.00    -0.273 OA
HETATM   25  H   UNL     1       6.403  27.150  53.066  1.00  0.00     0.163 HD
BRANCH  23  26
HETATM   26  C   UNL     1       5.943  25.128  51.583  1.00  0.00     0.070 C 
HETATM   27  C   UNL     1       5.628  26.168  50.511  1.00  0.00     0.019 C 
HETATM   28  C   UNL     1       7.452  25.050  51.814  1.00  0.00     0.019 C 
ENDBRANCH  23  26
ENDBRANCH   7  22
BRANCH   1  29
HETATM   29  C   UNL     1       9.455  31.015  59.137  1.00  0.00     0.154 A 
HETATM   30  N   UNL     1      10.046  32.185  59.432  1.00  0.00    -0.123 NA
HETATM   31  O   UNL     1       9.779  32.431  60.763  1.00  0.00    -0.217 OA
HETATM   32  C   UNL     1       8.962  31.461  61.251  1.00  0.00     0.081 A 
HETATM   33  C   UNL     1       8.703  30.556  60.253  1.00  0.00     0.074 A 
BRANCH  32  34
HETATM   34  C   UNL     1       8.598  31.550  62.688  1.00  0.00     0.071 C 
BRANCH  34  35
HETATM   35  C   UNL     1       7.485  32.570  62.987  1.00  0.00    -0.017 C 
HETATM   36  C   UNL     1       7.587  33.146  64.403  1.00  0.00     0.010 C 
HETATM   37  C   UNL     1       6.116  31.901  62.814  1.00  0.00     0.010 C 
ENDBRANCH  34  35
ENDBRANCH  32  34
ENDBRANCH   1  29
TORSDOF 9
ENDMDL
MODEL 2
REMARK VINA RESULT:      -8.2      2.428      8.573
REMARK  9 active torsions:
REMARK  status: ('A' for Active; 'I' for Inactive)
REMARK    1  A    between atoms: C_2  and  C_3 
REMARK    2  A    between atoms: C_3  and  C_4 
REMARK    3  A    between atoms: C_7  and  C_8 
REMARK       I    between atoms: C_8  and  N_9 
REMARK    4  A    between atoms: C_13  and  O_14 
REMARK    5  A    between atoms: O_14  and  C_15 
REMARK    6  A    between atoms: C_15  and  C_16 
REMARK    7  A    between atoms: C_16  and  O_17 
REMARK    8  A    between atoms: C_19  and  N_20 
REMARK       I    between atoms: N_20  and  C_21 
REMARK    9  A    between atoms: C_21  and  C_22 
ROOT
HETATM    1  C   UNL     1       6.098  25.121  55.998  1.00  0.00     0.274 C 
HETATM    2  N   UNL     1       6.533  26.255  56.708  1.00  0.00    -0.347 N 
HETATM    3  C   UNL     1       7.603  27.148  56.257  1.00  0.00     0.127 C 
HETATM    4  C   UNL     1       6.982  28.339  55.530  1.00  0.00     0.037 C 
HETATM    5  C   UNL     1       5.998  29.107  56.444  1.00  0.00     0.019 C 
HETATM    6  C   UNL     1       6.717  29.909  57.601  1.00  0.00     0.162 C 
HETATM    7  C   UNL     1       5.984  31.285  57.726  1.00  0.00     0.148 C 
HETATM    8  C   UNL     1       5.310  31.421  56.392  1.00  0.00    -0.026 A 
HETATM    9  C   UNL     1       5.295  30.217  55.685  1.00  0.00    -0.038 A 
HETATM   10  C   UNL     1       4.713  32.567  55.878  1.00  0.00     0.010 A 
HETATM   11  C   UNL     1       4.089  32.496  54.632  1.00  0.00     0.001 A 
HETATM   12  C   UNL     1       4.060  31.289  53.924  1.00  0.00     0.001 A 
HETATM   13  C   UNL     1       4.661  30.142  54.449  1.00  0.00     0.009 A 
HETATM   14  C   UNL     1       4.948  28.118  57.019  1.00  0.00     0.037 C 
HETATM   15  C   UNL     1       5.605  26.882  57.645  1.00  0.00     0.127 C 
HETATM   16  O   UNL     1       4.947  24.698  56.126  1.00  0.00    -0.266 OA
ENDROOT
BRANCH   6  17
HETATM   17  O   UNL     1       8.110  30.102  57.276  1.00  0.00    -0.380 OA
BRANCH  17  18
HETATM   18  C   UNL     1       8.957  30.122  58.429  1.00  0.00     0.194 C 
BRANCH  18  19
HETATM   19  C   UNL     1       9.978  31.245  58.275  1.00  0.00     0.193 C 
BRANCH  19  20
HETATM   20  O   UNL     1       9.547  32.386  59.013  1.00  0.00    -0.394 OA
HETATM   21  C   UNL     1       9.212  32.048  60.353  1.00  0.00     0.201 C 
ENDBRANCH  19  20
ENDBRANCH  18  19
ENDBRANCH  17  18
ENDBRANCH   6  17
BRANCH   7  22
HETATM   22  N   UNL     1       5.000  31.339  58.791  1.00  0.00    -0.350 N 
HETATM   23  C   UNL     1       5.031  32.331  59.743  1.00  0.00     0.221 C 
HETATM   24  O   UNL     1       5.964  33.120  59.842  1.00  0.00    -0.273 OA
HETATM   25  H   UNL     1       4.190  30.736  58.722  1.00  0.00     0.163 HD
BRANCH  23  26
HETATM   26  C   UNL     1       3.804  32.359  60.650  1.00  0.00     0.070 C 
HETATM   27  C   UNL     1       4.213  32.470  62.117  1.00  0.00     0.019 C 
HETATM   28  C   UNL     1       2.890  33.523  60.268  1.00  0.00     0.019 C 
ENDBRANCH  23  26
ENDBRANCH   7  22
BRANCH   1  29
HETATM   29  C   UNL     1       7.011  24.446  55.062  1.00  0.00     0.154 A 
HETATM   30  N   UNL     1       7.141  24.780  53.767  1.00  0.00    -0.123 NA
HETATM   31  O   UNL     1       8.043  23.890  53.223  1.00  0.00    -0.217 OA
HETATM   32  C   UNL     1       8.521  23.073  54.198  1.00  0.00     0.081 A 
HETATM   33  C   UNL     1       7.923  23.404  55.388  1.00  0.00     0.074 A 
BRANCH  32  34
HETATM   34  C   UNL     1       9.485  22.023  53.782  1.00  0.00     0.071 C 
BRANCH  34  35
HETATM   35  C   UNL     1       8.891  20.603  53.764  1.00  0.00    -0.017 C 
HETATM   36  C   UNL     1       7.610  20.517  52.929  1.00  0.00     0.010 C 
HETATM   37  C   UNL     1       8.588  20.156  55.199  1.00  0.00     0.010 C 
ENDBRANCH  34  35
ENDBRANCH  32  34
ENDBRANCH   1  29
TORSDOF 9
ENDMDL
MODEL 3
REMARK VINA RESULT:      -8.1      3.601      9.838
REMARK  9 active torsions:
REMARK  status: ('A' for Active; 'I' for Inactive)
REMARK    1  A    between atoms: C_2  and  C_3 
REMARK    2  A    between atoms: C_3  and  C_4 
REMARK    3  A    between atoms: C_7  and  C_8 
REMARK       I    between atoms: C_8  and  N_9 
REMARK    4  A    between atoms: C_13  and  O_14 
REMARK    5  A    between atoms: O_14  and  C_15 
REMARK    6  A    between atoms: C_15  and  C_16 
REMARK    7  A    between atoms: C_16  and  O_17 
REMARK    8  A    between atoms: C_19  and  N_20 
REMARK       I    between atoms: N_20  and  C_21 
REMARK    9  A    between atoms: C_21  and  C_22 
ROOT
HETATM    1  C   UNL     1       4.596  28.689  50.106  1.00  0.00     0.274 C 
HETATM    2  N   UNL     1       4.665  28.951  51.486  1.00  0.00    -0.347 N 
HETATM    3  C   UNL     1       3.715  28.428  52.471  1.00  0.00     0.127 C 
HETATM    4  C   UNL     1       4.292  27.158  53.093  1.00  0.00     0.037 C 
HETATM    5  C   UNL     1       5.660  27.429  53.764  1.00  0.00     0.019 C 
HETATM    6  C   UNL     1       5.546  28.286  55.087  1.00  0.00     0.162 C 
HETATM    7  C   UNL     1       6.547  27.668  56.118  1.00  0.00     0.148 C 
HETATM    8  C   UNL     1       6.756  26.282  55.584  1.00  0.00    -0.026 A 
HETATM    9  C   UNL     1       6.286  26.146  54.276  1.00  0.00    -0.038 A 
HETATM   10  C   UNL     1       7.372  25.224  56.242  1.00  0.00     0.010 A 
HETATM   11  C   UNL     1       7.520  24.010  55.569  1.00  0.00     0.001 A 
HETATM   12  C   UNL     1       7.063  23.872  54.253  1.00  0.00     0.001 A 
HETATM   13  C   UNL     1       6.446  24.941  53.599  1.00  0.00     0.009 A 
HETATM   14  C   UNL     1       6.612  28.106  52.741  1.00  0.00     0.037 C 
HETATM   15  C   UNL     1       5.958  29.313  52.058  1.00  0.00     0.127 C 
HETATM   16  O   UNL     1       5.610  28.716  49.406  1.00  0.00    -0.266 OA
ENDROOT
BRANCH   6  17
HETATM   17  O   UNL     1       4.196  28.234  55.594  1.00  0.00    -0.380 OA
BRANCH  17  18
HETATM   18  C   UNL     1       3.767  29.469  56.175  1.00  0.00     0.194 C 
BRANCH  18  19
HETATM   19  C   UNL     1       4.469  30.623  55.466  1.00  0.00     0.193 C 
BRANCH  19  20
HETATM   20  O   UNL     1       4.679  31.692  56.384  1.00  0.00    -0.394 OA
HETATM   21  C   UNL     1       5.671  31.366  57.350  1.00  0.00     0.201 C 
ENDBRANCH  19  20
ENDBRANCH  18  19
ENDBRANCH  17  18
ENDBRANCH   6  17
BRANCH   7  22
HETATM   22  N   UNL     1       7.817  28.366  56.205  1.00  0.00    -0.350 N 
HETATM   23  C   UNL     1       8.370  28.695  57.420  1.00  0.00     0.221 C 
HETATM   24  O   UNL     1       7.762  28.566  58.477  1.00  0.00    -0.273 OA
HETATM   25  H   UNL     1       8.370  28.453  55.362  1.00  0.00     0.163 HD
BRANCH  23  26
HETATM   26  C   UNL     1       9.797  29.226  57.328  1.00  0.00     0.070 C 
HETATM   27  C   UNL     1      10.153  29.592  55.889  1.00  0.00     0.019 C 
HETATM   28  C   UNL     1       9.968  30.443  58.238  1.00  0.00     0.019 C 
ENDBRANCH  23  26
ENDBRANCH   7  22
BRANCH   1  29
HETATM   29  C   UNL     1       3.305  28.344  49.488  1.00  0.00     0.154 A 
HETATM   30  N   UNL     1       2.112  28.598  50.051  1.00  0.00    -0.123 NA
HETATM   31  O   UNL     1       1.161  28.082  49.195  1.00  0.00    -0.217 OA
HETATM   32  C   UNL     1       1.766  27.592  48.082  1.00  0.00     0.081 A 
HETATM   33  C   UNL     1       3.122  27.762  48.203  1.00  0.00     0.074 A 
BRANCH  32  34
HETATM   34  C   UNL     1       0.889  26.963  47.062  1.00  0.00     0.071 C 
BRANCH  34  35
HETATM   35  C   UNL     1      -0.116  27.935  46.417  1.00  0.00    -0.017 C 
HETATM   36  C   UNL     1      -0.605  27.447  45.050  1.00  0.00     0.010 C 
HETATM   37  C   UNL     1       0.537  29.313  46.255  1.00  0.00     0.010 C 
ENDBRANCH  34  35
ENDBRANCH  32  34
ENDBRANCH   1  29
TORSDOF 9
ENDMDL
MODEL 4
REMARK VINA RESULT:      -7.4      5.916      9.705
REMARK  9 active torsions:
REMARK  status: ('A' for Active; 'I' for Inactive)
REMARK    1  A    between atoms: C_2  and  C_3 
REMARK    2  A    between atoms: C_3  and  C_4 
REMARK    3  A    between atoms: C_7  and  C_8 
REMARK       I    between atoms: C_8  and  N_9 
REMARK    4  A    between atoms: C_13  and  O_14 
REMARK    5  A    between atoms: O_14  and  C_15 
REMARK    6  A    between atoms: C_15  and  C_16 
REMARK    7  A    between atoms: C_16  and  O_17 
REMARK    8  A    between atoms: C_19  and  N_20 
REMARK       I    between atoms: N_20  and  C_21 
REMARK    9  A    between atoms: C_21  and  C_22 
ROOT
HETATM    1  C   UNL     1       4.744  27.998  52.931  1.00  0.00     0.274 C 
HETATM    2  N   UNL     1       4.692  29.015  51.960  1.00  0.00    -0.347 N 
HETATM    3  C   UNL     1       5.416  28.975  50.687  1.00  0.00     0.127 C 
HETATM    4  C   UNL     1       4.482  28.444  49.600  1.00  0.00     0.037 C 
HETATM    5  C   UNL     1       3.217  29.324  49.466  1.00  0.00     0.019 C 
HETATM    6  C   UNL     1       3.507  30.742  48.829  1.00  0.00     0.162 C 
HETATM    7  C   UNL     1       2.331  31.050  47.846  1.00  0.00     0.148 C 
HETATM    8  C   UNL     1       1.768  29.687  47.568  1.00  0.00    -0.026 A 
HETATM    9  C   UNL     1       2.237  28.730  48.471  1.00  0.00    -0.038 A 
HETATM   10  C   UNL     1       0.855  29.353  46.574  1.00  0.00     0.010 A 
HETATM   11  C   UNL     1       0.404  28.035  46.492  1.00  0.00     0.001 A 
HETATM   12  C   UNL     1       0.861  27.075  47.403  1.00  0.00     0.001 A 
HETATM   13  C   UNL     1       1.778  27.419  48.399  1.00  0.00     0.009 A 
HETATM   14  C   UNL     1       2.534  29.464  50.854  1.00  0.00     0.037 C 
HETATM   15  C   UNL     1       3.527  29.894  51.941  1.00  0.00     0.127 C 
HETATM   16  O   UNL     1       3.808  27.823  53.714  1.00  0.00    -0.266 OA
ENDROOT
BRANCH   6  17
HETATM   17  O   UNL     1       4.767  30.718  48.125  1.00  0.00    -0.380 OA
BRANCH  17  18
HETATM   18  C   UNL     1       5.313  32.022  47.909  1.00  0.00     0.194 C 
BRANCH  18  19
HETATM   19  C   UNL     1       6.096  32.445  49.148  1.00  0.00     0.193 C 
BRANCH  19  20
HETATM   20  O   UNL     1       6.552  33.787  48.990  1.00  0.00    -0.394 OA
HETATM   21  C   UNL     1       7.459  33.907  47.903  1.00  0.00     0.201 C 
ENDBRANCH  19  20
ENDBRANCH  18  19
ENDBRANCH  17  18
ENDBRANCH   6  17
BRANCH   7  22
HETATM   22  N   UNL     1       1.302  31.911  48.401  1.00  0.00    -0.350 N 
HETATM   23  C   UNL     1       0.643  32.830  47.620  1.00  0.00     0.221 C 
HETATM   24  O   UNL     1       0.987  33.087  46.472  1.00  0.00    -0.273 OA
HETATM   25  H   UNL     1       0.959  31.703  49.330  1.00  0.00     0.163 HD
BRANCH  23  26
HETATM   26  C   UNL     1      -0.546  33.491  48.311  1.00  0.00     0.070 C 
HETATM   27  C   UNL     1      -1.396  32.456  49.045  1.00  0.00     0.019 C 
HETATM   28  C   UNL     1      -0.062  34.563  49.288  1.00  0.00     0.019 C 
ENDBRANCH  23  26
ENDBRANCH   7  22
BRANCH   1  29
HETATM   29  C   UNL     1       5.913  27.106  52.998  1.00  0.00     0.154 A 
HETATM   30  N   UNL     1       7.129  27.493  53.421  1.00  0.00    -0.123 NA
HETATM   31  O   UNL     1       7.955  26.397  53.286  1.00  0.00    -0.217 OA
HETATM   32  C   UNL     1       7.230  25.329  52.862  1.00  0.00     0.081 A 
HETATM   33  C   UNL     1       5.924  25.717  52.694  1.00  0.00     0.074 A 
BRANCH  32  34
HETATM   34  C   UNL     1       7.970  24.063  52.629  1.00  0.00     0.071 C 
BRANCH  34  35
HETATM   35  C   UNL     1       7.535  22.906  53.546  1.00  0.00    -0.017 C 
HETATM   36  C   UNL     1       7.628  23.271  55.030  1.00  0.00     0.010 C 
HETATM   37  C   UNL     1       8.412  21.679  53.274  1.00  0.00     0.010 C 
ENDBRANCH  34  35
ENDBRANCH  32  34
ENDBRANCH   1  29
TORSDOF 9
ENDMDL
MODEL 5
REMARK VINA RESULT:      -7.1      4.055      6.121
REMARK  9 active torsions:
REMARK  status: ('A' for Active; 'I' for Inactive)
REMARK    1  A    between atoms: C_2  and  C_3 
REMARK    2  A    between atoms: C_3  and  C_4 
REMARK    3  A    between atoms: C_7  and  C_8 
REMARK       I    between atoms: C_8  and  N_9 
REMARK    4  A    between atoms: C_13  and  O_14 
REMARK    5  A    between atoms: O_14  and  C_15 
REMARK    6  A    between atoms: C_15  and  C_16 
REMARK    7  A    between atoms: C_16  and  O_17 
REMARK    8  A    between atoms: C_19  and  N_20 
REMARK       I    between atoms: N_20  and  C_21 
REMARK    9  A    between atoms: C_21  and  C_22 
ROOT
HETATM    1  C   UNL     1       3.411  32.986  60.372  1.00  0.00     0.274 C 
HETATM    2  N   UNL     1       3.495  32.458  59.070  1.00  0.00    -0.347 N 
HETATM    3  C   UNL     1       4.129  33.146  57.943  1.00  0.00     0.127 C 
HETATM    4  C   UNL     1       5.567  32.649  57.803  1.00  0.00     0.037 C 
HETATM    5  C   UNL     1       5.616  31.118  57.588  1.00  0.00     0.019 C 
HETATM    6  C   UNL     1       5.093  30.670  56.166  1.00  0.00     0.162 C 
HETATM    7  C   UNL     1       6.045  29.535  55.666  1.00  0.00     0.148 C 
HETATM    8  C   UNL     1       7.279  29.753  56.492  1.00  0.00    -0.026 A 
HETATM    9  C   UNL     1       7.046  30.611  57.568  1.00  0.00    -0.038 A 
HETATM   10  C   UNL     1       8.525  29.170  56.290  1.00  0.00     0.010 A 
HETATM   11  C   UNL     1       9.552  29.455  57.191  1.00  0.00     0.001 A 
HETATM   12  C   UNL     1       9.321  30.304  58.280  1.00  0.00     0.001 A 
HETATM   13  C   UNL     1       8.065  30.884  58.475  1.00  0.00     0.009 A 
HETATM   14  C   UNL     1       4.825  30.411  58.722  1.00  0.00     0.037 C 
HETATM   15  C   UNL     1       3.425  31.010  58.905  1.00  0.00     0.127 C 
HETATM   16  O   UNL     1       3.330  32.242  61.351  1.00  0.00    -0.266 OA
ENDROOT
BRANCH   6  17
HETATM   17  O   UNL     1       5.114  31.790  55.257  1.00  0.00    -0.380 OA
BRANCH  17  18
HETATM   18  C   UNL     1       3.903  31.929  54.508  1.00  0.00     0.194 C 
BRANCH  18  19
HETATM   19  C   UNL     1       2.789  31.167  55.219  1.00  0.00     0.193 C 
BRANCH  19  20
HETATM   20  O   UNL     1       1.698  32.048  55.479  1.00  0.00    -0.394 OA
HETATM   21  C   UNL     1       1.946  33.353  54.972  1.00  0.00     0.201 C 
ENDBRANCH  19  20
ENDBRANCH  18  19
ENDBRANCH  17  18
ENDBRANCH   6  17
BRANCH   7  22
HETATM   22  N   UNL     1       5.533  28.193  55.877  1.00  0.00    -0.350 N 
HETATM   23  C   UNL     1       5.836  27.169  55.012  1.00  0.00     0.221 C 
HETATM   24  O   UNL     1       6.411  27.355  53.945  1.00  0.00    -0.273 OA
HETATM   25  H   UNL     1       5.092  27.987  56.764  1.00  0.00     0.163 HD
BRANCH  23  26
HETATM   26  C   UNL     1       5.396  25.793  55.502  1.00  0.00     0.070 C 
HETATM   27  C   UNL     1       6.444  24.733  55.167  1.00  0.00     0.019 C 
HETATM   28  C   UNL     1       5.141  25.824  57.009  1.00  0.00     0.019 C 
ENDBRANCH  23  26
ENDBRANCH   7  22
BRANCH   1  29
HETATM   29  C   UNL     1       3.454  34.443  60.577  1.00  0.00     0.154 A 
HETATM   30  N   UNL     1       2.369  35.236  60.555  1.00  0.00    -0.123 NA
HETATM   31  O   UNL     1       2.826  36.525  60.733  1.00  0.00    -0.217 OA
HETATM   32  C   UNL     1       4.167  36.508  60.945  1.00  0.00     0.081 A 
HETATM   33  C   UNL     1       4.610  35.211  60.886  1.00  0.00     0.074 A 
BRANCH  32  34
HETATM   34  C   UNL     1       4.836  37.822  61.123  1.00  0.00     0.071 C 
BRANCH  34  35
HETATM   35  C   UNL     1       6.130  37.756  61.955  1.00  0.00    -0.017 C 
HETATM   36  C   UNL     1       5.855  37.731  63.461  1.00  0.00     0.010 C 
HETATM   37  C   UNL     1       7.012  38.966  61.625  1.00  0.00     0.010 C 
ENDBRANCH  34  35
ENDBRANCH  32  34
ENDBRANCH   1  29
TORSDOF 9
ENDMDL
MODEL 6
REMARK VINA RESULT:      -7.0      4.042      8.461
REMARK  9 active torsions:
REMARK  status: ('A' for Active; 'I' for Inactive)
REMARK    1  A    between atoms: C_2  and  C_3 
REMARK    2  A    between atoms: C_3  and  C_4 
REMARK    3  A    between atoms: C_7  and  C_8 
REMARK       I    between atoms: C_8  and  N_9 
REMARK    4  A    between atoms: C_13  and  O_14 
REMARK    5  A    between atoms: O_14  and  C_15 
REMARK    6  A    between atoms: C_15  and  C_16 
REMARK    7  A    between atoms: C_16  and  O_17 
REMARK    8  A    between atoms: C_19  and  N_20 
REMARK       I    between atoms: N_20  and  C_21 
REMARK    9  A    between atoms: C_21  and  C_22 
ROOT
HETATM    1  C   UNL     1       5.106  25.692  52.014  1.00  0.00     0.274 C 
HETATM    2  N   UNL     1       4.635  26.823  52.706  1.00  0.00    -0.347 N 
HETATM    3  C   UNL     1       5.481  27.709  53.507  1.00  0.00     0.127 C 
HETATM    4  C   UNL     1       5.897  28.906  52.653  1.00  0.00     0.037 C 
HETATM    5  C   UNL     1       4.664  29.679  52.127  1.00  0.00     0.019 C 
HETATM    6  C   UNL     1       3.898  30.475  53.258  1.00  0.00     0.162 C 
HETATM    7  C   UNL     1       3.489  31.855  52.647  1.00  0.00     0.148 C 
HETATM    8  C   UNL     1       4.435  31.996  51.491  1.00  0.00    -0.026 A 
HETATM    9  C   UNL     1       5.075  30.794  51.184  1.00  0.00    -0.038 A 
HETATM   10  C   UNL     1       4.666  33.146  50.744  1.00  0.00     0.010 A 
HETATM   11  C   UNL     1       5.553  33.081  49.669  1.00  0.00     0.001 A 
HETATM   12  C   UNL     1       6.186  31.875  49.348  1.00  0.00     0.001 A 
HETATM   13  C   UNL     1       5.948  30.723  50.103  1.00  0.00     0.009 A 
HETATM   14  C   UNL     1       3.712  28.695  51.394  1.00  0.00     0.037 C 
HETATM   15  C   UNL     1       3.404  27.454  52.241  1.00  0.00     0.127 C 
HETATM   16  O   UNL     1       4.523  25.276  51.011  1.00  0.00    -0.266 OA
ENDROOT
BRANCH   6  17
HETATM   17  O   UNL     1       4.759  30.659  54.401  1.00  0.00    -0.380 OA
BRANCH  17  18
HETATM   18  C   UNL     1       4.107  30.386  55.645  1.00  0.00     0.194 C 
BRANCH  18  19
HETATM   19  C   UNL     1       5.162  30.225  56.734  1.00  0.00     0.193 C 
BRANCH  19  20
HETATM   20  O   UNL     1       6.442  30.031  56.136  1.00  0.00    -0.394 OA
HETATM   21  C   UNL     1       7.121  28.918  56.702  1.00  0.00     0.201 C 
ENDBRANCH  19  20
ENDBRANCH  18  19
ENDBRANCH  17  18
ENDBRANCH   6  17
BRANCH   7  22
HETATM   22  N   UNL     1       2.117  31.914  52.178  1.00  0.00    -0.350 N 
HETATM   23  C   UNL     1       1.388  33.077  52.247  1.00  0.00     0.221 C 
HETATM   24  O   UNL     1       1.788  34.072  52.843  1.00  0.00    -0.273 OA
HETATM   25  H   UNL     1       1.763  31.132  51.643  1.00  0.00     0.163 HD
BRANCH  23  26
HETATM   26  C   UNL     1       0.049  33.015  51.518  1.00  0.00     0.070 C 
HETATM   27  C   UNL     1      -0.307  34.372  50.914  1.00  0.00     0.019 C 
HETATM   28  C   UNL     1       0.091  31.947  50.425  1.00  0.00     0.019 C 
ENDBRANCH  23  26
ENDBRANCH   7  22
BRANCH   1  29
HETATM   29  C   UNL     1       6.331  25.012  52.466  1.00  0.00     0.154 A 
HETATM   30  N   UNL     1       7.556  25.267  51.974  1.00  0.00    -0.123 NA
HETATM   31  O   UNL     1       8.418  24.398  52.610  1.00  0.00    -0.217 OA
HETATM   32  C   UNL     1       7.738  23.679  53.541  1.00  0.00     0.081 A 
HETATM   33  C   UNL     1       6.417  24.052  53.511  1.00  0.00     0.074 A 
BRANCH  32  34
HETATM   34  C   UNL     1       8.509  22.664  54.302  1.00  0.00     0.071 C 
BRANCH  34  35
HETATM   35  C   UNL     1       7.896  21.252  54.258  1.00  0.00    -0.017 C 
HETATM   36  C   UNL     1       8.344  20.385  55.438  1.00  0.00     0.010 C 
HETATM   37  C   UNL     1       8.291  20.563  52.948  1.00  0.00     0.010 C 
ENDBRANCH  34  35
ENDBRANCH  32  34
ENDBRANCH   1  29
TORSDOF 9
ENDMDL
MODEL 7
REMARK VINA RESULT:      -6.7      4.781      7.485
REMARK  9 active torsions:
REMARK  status: ('A' for Active; 'I' for Inactive)
REMARK    1  A    between atoms: C_2  and  C_3 
REMARK    2  A    between atoms: C_3  and  C_4 
REMARK    3  A    between atoms: C_7  and  C_8 
REMARK       I    between atoms: C_8  and  N_9 
REMARK    4  A    between atoms: C_13  and  O_14 
REMARK    5  A    between atoms: O_14  and  C_15 
REMARK    6  A    between atoms: C_15  and  C_16 
REMARK    7  A    between atoms: C_16  and  O_17 
REMARK    8  A    between atoms: C_19  and  N_20 
REMARK       I    between atoms: N_20  and  C_21 
REMARK    9  A    between atoms: C_21  and  C_22 
ROOT
HETATM    1  C   UNL     1       5.522  30.321  57.796  1.00  0.00     0.274 C 
HETATM    2  N   UNL     1       4.518  31.303  57.712  1.00  0.00    -0.347 N 
HETATM    3  C   UNL     1       4.779  32.733  57.536  1.00  0.00     0.127 C 
HETATM    4  C   UNL     1       4.679  33.078  56.051  1.00  0.00     0.037 C 
HETATM    5  C   UNL     1       3.286  32.717  55.481  1.00  0.00     0.019 C 
HETATM    6  C   UNL     1       2.134  33.664  56.002  1.00  0.00     0.162 C 
HETATM    7  C   UNL     1       1.198  33.957  54.784  1.00  0.00     0.148 C 
HETATM    8  C   UNL     1       2.081  33.652  53.610  1.00  0.00    -0.026 A 
HETATM    9  C   UNL     1       3.228  32.949  53.983  1.00  0.00    -0.038 A 
HETATM   10  C   UNL     1       1.828  33.965  52.279  1.00  0.00     0.010 A 
HETATM   11  C   UNL     1       2.745  33.560  51.309  1.00  0.00     0.001 A 
HETATM   12  C   UNL     1       3.891  32.844  51.675  1.00  0.00     0.001 A 
HETATM   13  C   UNL     1       4.136  32.532  53.015  1.00  0.00     0.009 A 
HETATM   14  C   UNL     1       2.970  31.229  55.794  1.00  0.00     0.037 C 
HETATM   15  C   UNL     1       3.186  30.894  57.275  1.00  0.00     0.127 C 
HETATM   16  O   UNL     1       5.296  29.155  57.463  1.00  0.00    -0.266 OA
ENDROOT
BRANCH   6  17
HETATM   17  O   UNL     1       2.697  34.889  56.517  1.00  0.00    -0.380 OA
BRANCH  17  18
HETATM   18  C   UNL     1       1.706  35.822  56.957  1.00  0.00     0.194 C 
BRANCH  18  19
HETATM   19  C   UNL     1       1.262  35.447  58.367  1.00  0.00     0.193 C 
BRANCH  19  20
HETATM   20  O   UNL     1       1.129  36.627  59.156  1.00  0.00    -0.394 OA
HETATM   21  C   UNL     1       2.378  37.281  59.335  1.00  0.00     0.201 C 
ENDBRANCH  19  20
ENDBRANCH  18  19
ENDBRANCH  17  18
ENDBRANCH   6  17
BRANCH   7  22
HETATM   22  N   UNL     1       0.005  33.131  54.740  1.00  0.00    -0.350 N 
HETATM   23  C   UNL     1      -1.220  33.624  55.121  1.00  0.00     0.221 C 
HETATM   24  O   UNL     1      -1.352  34.717  55.662  1.00  0.00    -0.273 OA
HETATM   25  H   UNL     1       0.060  32.241  54.261  1.00  0.00     0.163 HD
BRANCH  23  26
HETATM   26  C   UNL     1      -2.388  32.694  54.806  1.00  0.00     0.070 C 
HETATM   27  C   UNL     1      -3.442  32.747  55.911  1.00  0.00     0.019 C 
HETATM   28  C   UNL     1      -3.015  33.067  53.463  1.00  0.00     0.019 C 
ENDBRANCH  23  26
ENDBRANCH   7  22
BRANCH   1  29
HETATM   29  C   UNL     1       6.871  30.688  58.256  1.00  0.00     0.154 A 
HETATM   30  N   UNL     1       8.004  30.220  57.705  1.00  0.00    -0.123 NA
HETATM   31  O   UNL     1       9.043  30.751  58.443  1.00  0.00    -0.217 OA
HETATM   32  C   UNL     1       8.549  31.600  59.381  1.00  0.00     0.081 A 
HETATM   33  C   UNL     1       7.180  31.620  59.285  1.00  0.00     0.074 A 
BRANCH  32  34
HETATM   34  C   UNL     1       9.531  32.240  60.293  1.00  0.00     0.071 C 
BRANCH  34  35
HETATM   35  C   UNL     1       9.438  31.753  61.750  1.00  0.00    -0.017 C 
HETATM   36  C   UNL     1       9.363  30.227  61.852  1.00  0.00     0.010 C 
HETATM   37  C   UNL     1       8.199  32.363  62.416  1.00  0.00     0.010 C 
ENDBRANCH  34  35
ENDBRANCH  32  34
ENDBRANCH   1  29
TORSDOF 9
ENDMDL
MODEL 8
REMARK VINA RESULT:      -6.5      4.274      6.010
REMARK  9 active torsions:
REMARK  status: ('A' for Active; 'I' for Inactive)
REMARK    1  A    between atoms: C_2  and  C_3 
REMARK    2  A    between atoms: C_3  and  C_4 
REMARK    3  A    between atoms: C_7  and  C_8 
REMARK       I    between atoms: C_8  and  N_9 
REMARK    4  A    between atoms: C_13  and  O_14 
REMARK    5  A    between atoms: O_14  and  C_15 
REMARK    6  A    between atoms: C_15  and  C_16 
REMARK    7  A    between atoms: C_16  and  O_17 
REMARK    8  A    between atoms: C_19  and  N_20 
REMARK       I    between atoms: N_20  and  C_21 
REMARK    9  A    between atoms: C_21  and  C_22 
ROOT
HETATM    1  C   UNL     1       3.219  32.631  59.690  1.00  0.00     0.274 C 
HETATM    2  N   UNL     1       3.338  31.986  58.445  1.00  0.00    -0.347 N 
HETATM    3  C   UNL     1       3.916  32.606  57.250  1.00  0.00     0.127 C 
HETATM    4  C   UNL     1       5.387  32.206  57.145  1.00  0.00     0.037 C 
HETATM    5  C   UNL     1       5.550  30.669  57.079  1.00  0.00     0.019 C 
HETATM    6  C   UNL     1       5.057  30.046  55.712  1.00  0.00     0.162 C 
HETATM    7  C   UNL     1       6.091  28.942  55.315  1.00  0.00     0.148 C 
HETATM    8  C   UNL     1       7.307  29.331  56.104  1.00  0.00    -0.026 A 
HETATM    9  C   UNL     1       7.014  30.270  57.094  1.00  0.00    -0.038 A 
HETATM   10  C   UNL     1       8.593  28.825  55.947  1.00  0.00     0.010 A 
HETATM   11  C   UNL     1       9.598  29.272  56.806  1.00  0.00     0.001 A 
HETATM   12  C   UNL     1       9.307  30.203  57.810  1.00  0.00     0.001 A 
HETATM   13  C   UNL     1       8.011  30.705  57.960  1.00  0.00     0.009 A 
HETATM   14  C   UNL     1       4.817  30.019  58.285  1.00  0.00     0.037 C 
HETATM   15  C   UNL     1       3.376  30.527  58.423  1.00  0.00     0.127 C 
HETATM   16  O   UNL     1       3.197  31.982  60.738  1.00  0.00    -0.266 OA
ENDROOT
BRANCH   6  17
HETATM   17  O   UNL     1       4.992  31.071  54.699  1.00  0.00    -0.380 OA
BRANCH  17  18
HETATM   18  C   UNL     1       3.775  31.042  53.948  1.00  0.00     0.194 C 
BRANCH  18  19
HETATM   19  C   UNL     1       4.101  30.769  52.483  1.00  0.00     0.193 C 
BRANCH  19  20
HETATM   20  O   UNL     1       4.421  29.391  52.313  1.00  0.00    -0.394 OA
HETATM   21  C   UNL     1       3.344  28.550  52.704  1.00  0.00     0.201 C 
ENDBRANCH  19  20
ENDBRANCH  18  19
ENDBRANCH  17  18
ENDBRANCH   6  17
BRANCH   7  22
HETATM   22  N   UNL     1       5.682  27.593  55.661  1.00  0.00    -0.350 N 
HETATM   23  C   UNL     1       5.991  26.524  54.854  1.00  0.00     0.221 C 
HETATM   24  O   UNL     1       6.482  26.660  53.739  1.00  0.00    -0.273 OA
HETATM   25  H   UNL     1       5.314  27.431  56.590  1.00  0.00     0.163 HD
BRANCH  23  26
HETATM   26  C   UNL     1       5.675  25.167  55.475  1.00  0.00     0.070 C 
HETATM   27  C   UNL     1       6.871  24.224  55.366  1.00  0.00     0.019 C 
HETATM   28  C   UNL     1       5.268  25.336  56.939  1.00  0.00     0.019 C 
ENDBRANCH  23  26
ENDBRANCH   7  22
BRANCH   1  29
HETATM   29  C   UNL     1       3.153  34.100  59.753  1.00  0.00     0.154 A 
HETATM   30  N   UNL     1       2.023  34.808  59.580  1.00  0.00    -0.123 NA
HETATM   31  O   UNL     1       2.383  36.137  59.660  1.00  0.00    -0.217 OA
HETATM   32  C   UNL     1       3.704  36.236  59.961  1.00  0.00     0.081 A 
HETATM   33  C   UNL     1       4.231  34.974  60.061  1.00  0.00     0.074 A 
BRANCH  32  34
HETATM   34  C   UNL     1       4.272  37.605  60.053  1.00  0.00     0.071 C 
BRANCH  34  35
HETATM   35  C   UNL     1       4.368  38.333  58.699  1.00  0.00    -0.017 C 
HETATM   36  C   UNL     1       3.067  39.050  58.329  1.00  0.00     0.010 C 
HETATM   37  C   UNL     1       4.717  37.324  57.599  1.00  0.00     0.010 C 
ENDBRANCH  34  35
ENDBRANCH  32  34
ENDBRANCH   1  29
TORSDOF 9
ENDMDL
MODEL 9
REMARK VINA RESULT:      -6.4      4.661      9.199
REMARK  9 active torsions:
REMARK  status: ('A' for Active; 'I' for Inactive)
REMARK    1  A    between atoms: C_2  and  C_3 
REMARK    2  A    between atoms: C_3  and  C_4 
REMARK    3  A    between atoms: C_7  and  C_8 
REMARK       I    between atoms: C_8  and  N_9 
REMARK    4  A    between atoms: C_13  and  O_14 
REMARK    5  A    between atoms: O_14  and  C_15 
REMARK    6  A    between atoms: C_15  and  C_16 
REMARK    7  A    between atoms: C_16  and  O_17 
REMARK    8  A    between atoms: C_19  and  N_20 
REMARK       I    between atoms: N_20  and  C_21 
REMARK    9  A    between atoms: C_21  and  C_22 
ROOT
HETATM    1  C   UNL     1       6.476  29.416  56.282  1.00  0.00     0.274 C 
HETATM    2  N   UNL     1       5.560  30.440  55.983  1.00  0.00    -0.347 N 
HETATM    3  C   UNL     1       4.104  30.283  56.034  1.00  0.00     0.127 C 
HETATM    4  C   UNL     1       3.598  30.777  57.388  1.00  0.00     0.037 C 
HETATM    5  C   UNL     1       3.983  32.256  57.629  1.00  0.00     0.019 C 
HETATM    6  C   UNL     1       3.180  33.266  56.716  1.00  0.00     0.162 C 
HETATM    7  C   UNL     1       2.812  34.495  57.610  1.00  0.00     0.148 C 
HETATM    8  C   UNL     1       2.921  33.937  58.999  1.00  0.00    -0.026 A 
HETATM    9  C   UNL     1       3.584  32.708  59.021  1.00  0.00    -0.038 A 
HETATM   10  C   UNL     1       2.473  34.536  60.171  1.00  0.00     0.010 A 
HETATM   11  C   UNL     1       2.702  33.888  61.385  1.00  0.00     0.001 A 
HETATM   12  C   UNL     1       3.378  32.662  61.415  1.00  0.00     0.001 A 
HETATM   13  C   UNL     1       3.825  32.068  60.232  1.00  0.00     0.009 A 
HETATM   14  C   UNL     1       5.515  32.429  57.441  1.00  0.00     0.037 C 
HETATM   15  C   UNL     1       6.003  31.825  56.118  1.00  0.00     0.127 C 
HETATM   16  O   UNL     1       7.608  29.679  56.694  1.00  0.00    -0.266 OA
ENDROOT
BRANCH   6  17
HETATM   17  O   UNL     1       1.988  32.631  56.208  1.00  0.00    -0.380 OA
BRANCH  17  18
HETATM   18  C   UNL     1       1.655  33.044  54.879  1.00  0.00     0.194 C 
BRANCH  18  19
HETATM   19  C   UNL     1       0.266  33.674  54.888  1.00  0.00     0.193 C 
BRANCH  19  20
HETATM   20  O   UNL     1      -0.680  32.739  55.401  1.00  0.00    -0.394 OA
HETATM   21  C   UNL     1      -1.982  33.303  55.483  1.00  0.00     0.201 C 
ENDBRANCH  19  20
ENDBRANCH  18  19
ENDBRANCH  17  18
ENDBRANCH   6  17
BRANCH   7  22
HETATM   22  N   UNL     1       3.705  35.629  57.457  1.00  0.00    -0.350 N 
HETATM   23  C   UNL     1       3.223  36.916  57.410  1.00  0.00     0.221 C 
HETATM   24  O   UNL     1       2.026  37.169  57.333  1.00  0.00    -0.273 OA
HETATM   25  H   UNL     1       4.699  35.469  57.560  1.00  0.00     0.163 HD
BRANCH  23  26
HETATM   26  C   UNL     1       4.309  37.987  57.464  1.00  0.00     0.070 C 
HETATM   27  C   UNL     1       4.752  38.242  58.903  1.00  0.00     0.019 C 
HETATM   28  C   UNL     1       5.506  37.571  56.610  1.00  0.00     0.019 C 
ENDBRANCH  23  26
ENDBRANCH   7  22
BRANCH   1  29
HETATM   29  C   UNL     1       6.076  28.007  56.135  1.00  0.00     0.154 A 
HETATM   30  N   UNL     1       5.330  27.341  57.033  1.00  0.00    -0.123 NA
HETATM   31  O   UNL     1       5.219  26.049  56.565  1.00  0.00    -0.217 OA
HETATM   32  C   UNL     1       5.821  25.950  55.351  1.00  0.00     0.081 A 
HETATM   33  C   UNL     1       6.353  27.170  55.019  1.00  0.00     0.074 A 
BRANCH  32  34
HETATM   34  C   UNL     1       5.827  24.610  54.711  1.00  0.00     0.071 C 
BRANCH  34  35
HETATM   35  C   UNL     1       7.235  24.082  54.380  1.00  0.00    -0.017 C 
HETATM   36  C   UNL     1       7.456  23.915  52.874  1.00  0.00     0.010 C 
HETATM   37  C   UNL     1       7.451  22.732  55.073  1.00  0.00     0.010 C 
ENDBRANCH  34  35
ENDBRANCH  32  34
ENDBRANCH   1  29
TORSDOF 9
ENDMDL
MODEL 10
REMARK VINA RESULT:      -6.4      5.553      9.299
REMARK  9 active torsions:
REMARK  status: ('A' for Active; 'I' for Inactive)
REMARK    1  A    between atoms: C_2  and  C_3 
REMARK    2  A    between atoms: C_3  and  C_4 
REMARK    3  A    between atoms: C_7  and  C_8 
REMARK       I    between atoms: C_8  and  N_9 
REMARK    4  A    between atoms: C_13  and  O_14 
REMARK    5  A    between atoms: O_14  and  C_15 
REMARK    6  A    between atoms: C_15  and  C_16 
REMARK    7  A    between atoms: C_16  and  O_17 
REMARK    8  A    between atoms: C_19  and  N_20 
REMARK       I    between atoms: N_20  and  C_21 
REMARK    9  A    between atoms: C_21  and  C_22 
ROOT
HETATM    1  C   UNL     1       4.855  26.729  50.521  1.00  0.00     0.274 C 
HETATM    2  N   UNL     1       3.977  27.792  50.799  1.00  0.00    -0.347 N 
HETATM    3  C   UNL     1       4.146  28.730  51.912  1.00  0.00     0.127 C 
HETATM    4  C   UNL     1       4.858  29.982  51.403  1.00  0.00     0.037 C 
HETATM    5  C   UNL     1       4.065  30.654  50.256  1.00  0.00     0.019 C 
HETATM    6  C   UNL     1       2.730  31.346  50.743  1.00  0.00     0.162 C 
HETATM    7  C   UNL     1       2.609  32.699  49.969  1.00  0.00     0.148 C 
HETATM    8  C   UNL     1       4.022  32.958  49.536  1.00  0.00    -0.026 A 
HETATM    9  C   UNL     1       4.830  31.828  49.673  1.00  0.00    -0.038 A 
HETATM   10  C   UNL     1       4.525  34.144  49.014  1.00  0.00     0.010 A 
HETATM   11  C   UNL     1       5.863  34.190  48.620  1.00  0.00     0.001 A 
HETATM   12  C   UNL     1       6.674  33.055  48.742  1.00  0.00     0.001 A 
HETATM   13  C   UNL     1       6.159  31.867  49.267  1.00  0.00     0.009 A 
HETATM   14  C   UNL     1       3.779  29.609  49.144  1.00  0.00     0.037 C 
HETATM   15  C   UNL     1       3.165  28.322  49.708  1.00  0.00     0.127 C 
HETATM   16  O   UNL     1       4.972  26.289  49.376  1.00  0.00    -0.266 OA
ENDROOT
BRANCH   6  17
HETATM   17  O   UNL     1       2.783  31.576  52.166  1.00  0.00    -0.380 OA
BRANCH  17  18
HETATM   18  C   UNL     1       2.158  32.801  52.561  1.00  0.00     0.194 C 
BRANCH  18  19
HETATM   19  C   UNL     1       2.513  33.094  54.015  1.00  0.00     0.193 C 
BRANCH  19  20
HETATM   20  O   UNL     1       3.249  31.999  54.558  1.00  0.00    -0.394 OA
HETATM   21  C   UNL     1       2.625  31.475  55.723  1.00  0.00     0.201 C 
ENDBRANCH  19  20
ENDBRANCH  18  19
ENDBRANCH  17  18
ENDBRANCH   6  17
BRANCH   7  22
HETATM   22  N   UNL     1       1.734  32.646  48.812  1.00  0.00    -0.350 N 
HETATM   23  C   UNL     1       0.402  32.975  48.907  1.00  0.00     0.221 C 
HETATM   24  O   UNL     1      -0.152  33.172  49.983  1.00  0.00    -0.273 OA
HETATM   25  H   UNL     1       2.158  32.530  47.900  1.00  0.00     0.163 HD
BRANCH  23  26
HETATM   26  C   UNL     1      -0.310  33.072  47.562  1.00  0.00     0.070 C 
HETATM   27  C   UNL     1       0.684  32.965  46.408  1.00  0.00     0.019 C 
HETATM   28  C   UNL     1      -1.372  31.979  47.445  1.00  0.00     0.019 C 
ENDBRANCH  23  26
ENDBRANCH   7  22
BRANCH   1  29
HETATM   29  C   UNL     1       5.673  26.151  51.600  1.00  0.00     0.154 A 
HETATM   30  N   UNL     1       6.804  26.710  52.065  1.00  0.00    -0.123 NA
HETATM   31  O   UNL     1       7.297  25.848  53.023  1.00  0.00    -0.217 OA
HETATM   32  C   UNL     1       6.430  24.817  53.199  1.00  0.00     0.081 A 
HETATM   33  C   UNL     1       5.370  24.977  52.343  1.00  0.00     0.074 A 
BRANCH  32  34
HETATM   34  C   UNL     1       6.821  23.769  54.176  1.00  0.00     0.071 C 
BRANCH  34  35
HETATM   35  C   UNL     1       8.147  23.064  53.837  1.00  0.00    -0.017 C 
HETATM   36  C   UNL     1       7.932  21.742  53.093  1.00  0.00     0.010 C 
HETATM   37  C   UNL     1       8.927  22.792  55.129  1.00  0.00     0.010 C 
ENDBRANCH  34  35
ENDBRANCH  32  34
ENDBRANCH   1  29
TORSDOF 9
ENDMDL
