MODEL 1
REMARK VINA RESULT:     -11.3      0.000      0.000
REMARK  8 active torsions:
REMARK  status: ('A' for Active; 'I' for Inactive)
REMARK    1  A    between atoms: C_8  and  N_9 
REMARK       I    between atoms: N_9  and  C_10 
REMARK    2  A    between atoms: C_10  and  C_11 
REMARK    3  A    between atoms: C_11  and  N_12 
REMARK    4  A    between atoms: N_16  and  C_17 
REMARK    5  A    between atoms: C_19  and  N_20 
REMARK    6  A    between atoms: N_20  and  C_21 
REMARK    7  A    between atoms: C_28  and  N_29 
REMARK    8  A    between atoms: N_29  and  C_30 
ROOT
HETATM    1  C   UNL     1       5.612  27.111  54.416  1.00  0.00     0.756 A 
HETATM    2  N   UNL     1       6.551  26.220  54.702  1.00  0.00     0.131 NA
HETATM    3  C   UNL     1       6.845  25.338  53.749  1.00  0.00     0.758 A 
HETATM    4  N   UNL     1       6.187  25.254  52.604  1.00  0.00     0.131 NA
HETATM    5  C   UNL     1       5.258  26.172  52.393  1.00  0.00     0.758 A 
HETATM    6  N   UNL     1       4.956  27.125  53.267  1.00  0.00     0.131 NA
ENDROOT
BRANCH   1   7
HETATM    7  N   UNL     1       5.320  28.100  55.364  1.00  0.00    -0.210 N 
HETATM    8  C   UNL     1       6.378  28.320  56.362  1.00  0.00     0.169 C 
HETATM    9  C   UNL     1       5.878  29.249  57.487  1.00  0.00     0.256 C 
HETATM   10  N   UNL     1       5.319  30.544  56.890  1.00  0.00    -0.060 N 
HETATM   11  H   UNL     1       6.074  30.945  56.323  1.00  0.00     0.280 HD
HETATM   12  C   UNL     1       4.171  30.220  55.936  1.00  0.00     0.256 C 
HETATM   13  C   UNL     1       4.657  29.284  54.809  1.00  0.00     0.169 C 
BRANCH  10  14
HETATM   14  C   UNL     1       4.946  31.591  57.942  1.00  0.00     0.337 C 
BRANCH  14  15
HETATM   15  C   UNL     1       6.034  31.942  58.971  1.00  0.00     0.248 C 
HETATM   16  N   UNL     1       5.599  31.843  60.284  1.00  0.00    -0.325 N 
HETATM   17  H   UNL     1       4.664  31.492  60.448  1.00  0.00     0.169 HD
HETATM   18  O   UNL     1       7.159  32.258  58.600  1.00  0.00    -0.271 OA
BRANCH  16  19
HETATM   19  C   UNL     1       6.333  32.164  61.461  1.00  0.00     0.042 A 
HETATM   20  C   UNL     1       5.890  33.237  62.280  1.00  0.00    -0.014 A 
HETATM   21  C   UNL     1       4.625  33.994  61.952  1.00  0.00     0.052 C 
HETATM   22  C   UNL     1       6.672  33.600  63.399  1.00  0.00     0.042 A 
HETATM   23 CL   UNL     1       6.262  34.932  64.424  1.00  0.00    -0.084 Cl
HETATM   24  C   UNL     1       7.832  32.898  63.727  1.00  0.00     0.024 A 
HETATM   25  C   UNL     1       8.242  31.831  62.939  1.00  0.00     0.004 A 
HETATM   26  C   UNL     1       7.500  31.471  61.814  1.00  0.00     0.030 A 
ENDBRANCH  16  19
ENDBRANCH  14  15
ENDBRANCH  10  14
ENDBRANCH   1   7
BRANCH   3  27
HETATM   27  N   UNL     1       7.899  24.474  54.047  1.00  0.00    -0.187 N 
HETATM   28  H   UNL     1       8.766  24.890  53.737  1.00  0.00     0.184 HD
BRANCH  27  29
HETATM   29  C   UNL     1       7.952  23.076  54.181  1.00  0.00     0.049 A 
HETATM   30  C   UNL     1       8.088  22.192  53.105  1.00  0.00     0.030 A 
HETATM   31  C   UNL     1       8.118  20.807  53.306  1.00  0.00     0.002 A 
HETATM   32  C   UNL     1       7.987  20.282  54.587  1.00  0.00     0.000 A 
HETATM   33  C   UNL     1       7.816  21.141  55.667  1.00  0.00     0.002 A 
HETATM   34  C   UNL     1       7.790  22.523  55.462  1.00  0.00     0.030 A 
ENDBRANCH  27  29
ENDBRANCH   3  27
BRANCH   5  35
HETATM   35  N   UNL     1       4.544  26.058  51.203  1.00  0.00    -0.187 N 
HETATM   36  H   UNL     1       4.093  25.154  51.154  1.00  0.00     0.184 HD
BRANCH  35  37
HETATM   37  C   UNL     1       4.701  26.708  49.970  1.00  0.00     0.049 A 
HETATM   38  C   UNL     1       5.350  27.940  49.829  1.00  0.00     0.030 A 
HETATM   39  C   UNL     1       5.468  28.555  48.578  1.00  0.00     0.002 A 
HETATM   40  C   UNL     1       4.909  27.957  47.452  1.00  0.00     0.000 A 
HETATM   41  C   UNL     1       4.233  26.747  47.577  1.00  0.00     0.002 A 
HETATM   42  C   UNL     1       4.132  26.128  48.826  1.00  0.00     0.030 A 
ENDBRANCH  35  37
ENDBRANCH   5  35
TORSDOF 8
ENDMDL
MODEL 2
REMARK VINA RESULT:     -11.3      0.138      5.211
REMARK  8 active torsions:
REMARK  status: ('A' for Active; 'I' for Inactive)
REMARK    1  A    between atoms: C_8  and  N_9 
REMARK       I    between atoms: N_9  and  C_10 
REMARK    2  A    between atoms: C_10  and  C_11 
REMARK    3  A    between atoms: C_11  and  N_12 
REMARK    4  A    between atoms: N_16  and  C_17 
REMARK    5  A    between atoms: C_19  and  N_20 
REMARK    6  A    between atoms: N_20  and  C_21 
REMARK    7  A    between atoms: C_28  and  N_29 
REMARK    8  A    between atoms: N_29  and  C_30 
ROOT
HETATM    1  C   UNL     1       5.758  27.133  54.335  1.00  0.00     0.756 A 
HETATM    2  N   UNL     1       5.087  27.103  53.192  1.00  0.00     0.131 NA
HETATM    3  C   UNL     1       5.375  26.106  52.358  1.00  0.00     0.758 A 
HETATM    4  N   UNL     1       6.344  25.231  52.574  1.00  0.00     0.131 NA
HETATM    5  C   UNL     1       6.974  25.328  53.732  1.00  0.00     0.758 A 
HETATM    6  N   UNL     1       6.697  26.253  54.643  1.00  0.00     0.131 NA
ENDROOT
BRANCH   1   7
HETATM    7  N   UNL     1       5.438  28.125  55.270  1.00  0.00    -0.210 N 
HETATM    8  C   UNL     1       6.365  28.213  56.408  1.00  0.00     0.169 C 
HETATM    9  C   UNL     1       5.808  29.162  57.489  1.00  0.00     0.256 C 
HETATM   10  N   UNL     1       5.466  30.521  56.870  1.00  0.00    -0.060 N 
HETATM   11  H   UNL     1       6.327  30.856  56.425  1.00  0.00     0.280 HD
HETATM   12  C   UNL     1       4.434  30.338  55.759  1.00  0.00     0.256 C 
HETATM   13  C   UNL     1       4.976  29.383  54.675  1.00  0.00     0.169 C 
BRANCH  10  14
HETATM   14  C   UNL     1       5.056  31.577  57.900  1.00  0.00     0.337 C 
BRANCH  14  15
HETATM   15  C   UNL     1       6.109  31.941  58.960  1.00  0.00     0.248 C 
HETATM   16  N   UNL     1       5.628  31.871  60.258  1.00  0.00    -0.325 N 
HETATM   17  H   UNL     1       4.685  31.529  60.396  1.00  0.00     0.169 HD
HETATM   18  O   UNL     1       7.249  32.242  58.622  1.00  0.00    -0.271 OA
BRANCH  16  19
HETATM   19  C   UNL     1       6.323  32.211  61.454  1.00  0.00     0.042 A 
HETATM   20  C   UNL     1       5.880  33.325  62.216  1.00  0.00    -0.014 A 
HETATM   21  C   UNL     1       4.656  34.109  61.808  1.00  0.00     0.052 C 
HETATM   22  C   UNL     1       6.627  33.704  63.354  1.00  0.00     0.042 A 
HETATM   23 CL   UNL     1       6.218  35.084  64.314  1.00  0.00    -0.084 Cl
HETATM   24  C   UNL     1       7.749  32.978  63.755  1.00  0.00     0.024 A 
HETATM   25  C   UNL     1       8.156  31.872  63.022  1.00  0.00     0.004 A 
HETATM   26  C   UNL     1       7.451  31.495  61.880  1.00  0.00     0.030 A 
ENDBRANCH  16  19
ENDBRANCH  14  15
ENDBRANCH  10  14
ENDBRANCH   1   7
BRANCH   3  27
HETATM   27  N   UNL     1       4.588  26.052  51.207  1.00  0.00    -0.187 N 
HETATM   28  H   UNL     1       4.136  25.150  51.158  1.00  0.00     0.184 HD
BRANCH  27  29
HETATM   29  C   UNL     1       4.701  26.703  49.967  1.00  0.00     0.049 A 
HETATM   30  C   UNL     1       5.348  27.930  49.783  1.00  0.00     0.030 A 
HETATM   31  C   UNL     1       5.410  28.534  48.523  1.00  0.00     0.002 A 
HETATM   32  C   UNL     1       4.804  27.930  47.425  1.00  0.00     0.000 A 
HETATM   33  C   UNL     1       4.125  26.728  47.592  1.00  0.00     0.002 A 
HETATM   34  C   UNL     1       4.068  26.127  48.853  1.00  0.00     0.030 A 
ENDBRANCH  27  29
ENDBRANCH   3  27
BRANCH   5  35
HETATM   35  N   UNL     1       8.017  24.428  53.939  1.00  0.00    -0.187 N 
HETATM   36  H   UNL     1       8.878  24.803  53.565  1.00  0.00     0.184 HD
BRANCH  35  37
HETATM   37  C   UNL     1       8.009  23.039  54.127  1.00  0.00     0.049 A 
HETATM   38  C   UNL     1       8.079  22.121  53.072  1.00  0.00     0.030 A 
HETATM   39  C   UNL     1       8.054  20.743  53.311  1.00  0.00     0.002 A 
HETATM   40  C   UNL     1       7.926  20.263  54.611  1.00  0.00     0.000 A 
HETATM   41  C   UNL     1       7.825  21.159  55.671  1.00  0.00     0.002 A 
HETATM   42  C   UNL     1       7.867  22.536  55.429  1.00  0.00     0.030 A 
ENDBRANCH  35  37
ENDBRANCH   5  35
TORSDOF 8
ENDMDL
MODEL 3
REMARK VINA RESULT:     -11.2      1.646      2.189
REMARK  8 active torsions:
REMARK  status: ('A' for Active; 'I' for Inactive)
REMARK    1  A    between atoms: C_8  and  N_9 
REMARK       I    between atoms: N_9  and  C_10 
REMARK    2  A    between atoms: C_10  and  C_11 
REMARK    3  A    between atoms: C_11  and  N_12 
REMARK    4  A    between atoms: N_16  and  C_17 
REMARK    5  A    between atoms: C_19  and  N_20 
REMARK    6  A    between atoms: N_20  and  C_21 
REMARK    7  A    between atoms: C_28  and  N_29 
REMARK    8  A    between atoms: N_29  and  C_30 
ROOT
HETATM    1  C   UNL     1       6.682  27.143  55.618  1.00  0.00     0.756 A 
HETATM    2  N   UNL     1       6.962  25.913  56.025  1.00  0.00     0.131 NA
HETATM    3  C   UNL     1       6.517  24.918  55.262  1.00  0.00     0.758 A 
HETATM    4  N   UNL     1       5.744  25.099  54.203  1.00  0.00     0.131 NA
HETATM    5  C   UNL     1       5.502  26.354  53.862  1.00  0.00     0.758 A 
HETATM    6  N   UNL     1       5.968  27.400  54.535  1.00  0.00     0.131 NA
ENDROOT
BRANCH   1   7
HETATM    7  N   UNL     1       7.191  28.221  56.354  1.00  0.00    -0.210 N 
HETATM    8  C   UNL     1       6.200  28.907  57.197  1.00  0.00     0.169 C 
HETATM    9  C   UNL     1       6.792  30.206  57.782  1.00  0.00     0.256 C 
HETATM   10  N   UNL     1       8.109  29.905  58.504  1.00  0.00    -0.060 N 
HETATM   11  H   UNL     1       7.890  29.193  59.209  1.00  0.00     0.280 HD
HETATM   12  C   UNL     1       9.102  29.276  57.529  1.00  0.00     0.256 C 
HETATM   13  C   UNL     1       8.518  27.979  56.931  1.00  0.00     0.169 C 
BRANCH  10  14
HETATM   14  C   UNL     1       8.685  31.110  59.252  1.00  0.00     0.337 C 
BRANCH  14  15
HETATM   15  C   UNL     1       8.341  31.214  60.747  1.00  0.00     0.248 C 
HETATM   16  N   UNL     1       7.510  32.283  61.046  1.00  0.00    -0.325 N 
HETATM   17  H   UNL     1       7.157  32.838  60.277  1.00  0.00     0.169 HD
HETATM   18  O   UNL     1       8.780  30.390  61.543  1.00  0.00    -0.271 OA
BRANCH  16  19
HETATM   19  C   UNL     1       7.067  32.696  62.335  1.00  0.00     0.042 A 
HETATM   20  C   UNL     1       5.707  33.069  62.510  1.00  0.00    -0.014 A 
HETATM   21  C   UNL     1       4.722  32.975  61.369  1.00  0.00     0.052 C 
HETATM   22  C   UNL     1       5.298  33.557  63.771  1.00  0.00     0.042 A 
HETATM   23 CL   UNL     1       3.685  34.103  64.076  1.00  0.00    -0.084 Cl
HETATM   24  C   UNL     1       6.192  33.631  64.840  1.00  0.00     0.024 A 
HETATM   25  C   UNL     1       7.511  33.235  64.669  1.00  0.00     0.004 A 
HETATM   26  C   UNL     1       7.944  32.776  63.426  1.00  0.00     0.030 A 
ENDBRANCH  16  19
ENDBRANCH  14  15
ENDBRANCH  10  14
ENDBRANCH   1   7
BRANCH   3  27
HETATM   27  N   UNL     1       6.905  23.641  55.668  1.00  0.00    -0.187 N 
HETATM   28  H   UNL     1       7.157  23.668  56.647  1.00  0.00     0.184 HD
BRANCH  27  29
HETATM   29  C   UNL     1       7.474  22.568  54.961  1.00  0.00     0.049 A 
HETATM   30  C   UNL     1       7.671  22.560  53.576  1.00  0.00     0.030 A 
HETATM   31  C   UNL     1       8.229  21.451  52.931  1.00  0.00     0.002 A 
HETATM   32  C   UNL     1       8.577  20.318  53.659  1.00  0.00     0.000 A 
HETATM   33  C   UNL     1       8.357  20.291  55.032  1.00  0.00     0.002 A 
HETATM   34  C   UNL     1       7.802  21.402  55.673  1.00  0.00     0.030 A 
ENDBRANCH  27  29
ENDBRANCH   3  27
BRANCH   5  35
HETATM   35  N   UNL     1       4.659  26.540  52.769  1.00  0.00    -0.187 N 
HETATM   36  H   UNL     1       3.912  25.858  52.786  1.00  0.00     0.184 HD
BRANCH  35  37
HETATM   37  C   UNL     1       4.892  27.130  51.518  1.00  0.00     0.049 A 
HETATM   38  C   UNL     1       5.210  28.484  51.356  1.00  0.00     0.030 A 
HETATM   39  C   UNL     1       5.418  29.028  50.084  1.00  0.00     0.002 A 
HETATM   40  C   UNL     1       5.281  28.229  48.952  1.00  0.00     0.000 A 
HETATM   41  C   UNL     1       4.937  26.888  49.092  1.00  0.00     0.002 A 
HETATM   42  C   UNL     1       4.745  26.345  50.365  1.00  0.00     0.030 A 
ENDBRANCH  35  37
ENDBRANCH   5  35
TORSDOF 8
ENDMDL
MODEL 4
REMARK VINA RESULT:     -11.0      1.412      1.992
REMARK  8 active torsions:
REMARK  status: ('A' for Active; 'I' for Inactive)
REMARK    1  A    between atoms: C_8  and  N_9 
REMARK       I    between atoms: N_9  and  C_10 
REMARK    2  A    between atoms: C_10  and  C_11 
REMARK    3  A    between atoms: C_11  and  N_12 
REMARK    4  A    between atoms: N_16  and  C_17 
REMARK    5  A    between atoms: C_19  and  N_20 
REMARK    6  A    between atoms: N_20  and  C_21 
REMARK    7  A    between atoms: C_28  and  N_29 
REMARK    8  A    between atoms: N_29  and  C_30 
ROOT
HETATM    1  C   UNL     1       5.286  27.168  54.218  1.00  0.00     0.756 A 
HETATM    2  N   UNL     1       6.184  26.326  54.710  1.00  0.00     0.131 NA
HETATM    3  C   UNL     1       6.586  25.346  53.905  1.00  0.00     0.758 A 
HETATM    4  N   UNL     1       6.066  25.125  52.708  1.00  0.00     0.131 NA
HETATM    5  C   UNL     1       5.170  26.002  52.288  1.00  0.00     0.758 A 
HETATM    6  N   UNL     1       4.770  27.044  53.006  1.00  0.00     0.131 NA
ENDROOT
BRANCH   1   7
HETATM    7  N   UNL     1       4.888  28.255  55.006  1.00  0.00    -0.210 N 
HETATM    8  C   UNL     1       5.569  28.348  56.306  1.00  0.00     0.169 C 
HETATM    9  C   UNL     1       4.907  29.425  57.190  1.00  0.00     0.256 C 
HETATM   10  N   UNL     1       4.842  30.757  56.435  1.00  0.00    -0.060 N 
HETATM   11  H   UNL     1       5.806  30.977  56.162  1.00  0.00     0.280 HD
HETATM   12  C   UNL     1       4.043  30.581  55.145  1.00  0.00     0.256 C 
HETATM   13  C   UNL     1       4.691  29.499  54.256  1.00  0.00     0.169 C 
BRANCH  10  14
HETATM   14  C   UNL     1       4.345  31.922  57.293  1.00  0.00     0.337 C 
BRANCH  14  15
HETATM   15  C   UNL     1       4.750  31.900  58.777  1.00  0.00     0.248 C 
HETATM   16  N   UNL     1       6.074  32.252  58.989  1.00  0.00    -0.325 N 
HETATM   17  H   UNL     1       6.618  32.552  58.191  1.00  0.00     0.169 HD
HETATM   18  O   UNL     1       3.929  31.603  59.638  1.00  0.00    -0.271 OA
BRANCH  16  19
HETATM   19  C   UNL     1       6.775  32.262  60.229  1.00  0.00     0.042 A 
HETATM   20  C   UNL     1       7.797  31.300  60.452  1.00  0.00    -0.014 A 
HETATM   21  C   UNL     1       8.186  30.316  59.375  1.00  0.00     0.052 C 
HETATM   22  C   UNL     1       8.427  31.265  61.716  1.00  0.00     0.042 A 
HETATM   23 CL   UNL     1       9.634  30.094  62.118  1.00  0.00    -0.084 Cl
HETATM   24  C   UNL     1       8.092  32.181  62.714  1.00  0.00     0.024 A 
HETATM   25  C   UNL     1       7.114  33.137  62.477  1.00  0.00     0.004 A 
HETATM   26  C   UNL     1       6.459  33.173  61.247  1.00  0.00     0.030 A 
ENDBRANCH  16  19
ENDBRANCH  14  15
ENDBRANCH  10  14
ENDBRANCH   1   7
BRANCH   3  27
HETATM   27  N   UNL     1       7.597  24.533  54.420  1.00  0.00    -0.187 N 
HETATM   28  H   UNL     1       8.450  25.070  54.489  1.00  0.00     0.184 HD
BRANCH  27  29
HETATM   29  C   UNL     1       7.799  23.144  54.363  1.00  0.00     0.049 A 
HETATM   30  C   UNL     1       8.139  22.450  53.197  1.00  0.00     0.030 A 
HETATM   31  C   UNL     1       8.311  21.061  53.205  1.00  0.00     0.002 A 
HETATM   32  C   UNL     1       8.120  20.338  54.378  1.00  0.00     0.000 A 
HETATM   33  C   UNL     1       7.748  21.004  55.541  1.00  0.00     0.002 A 
HETATM   34  C   UNL     1       7.580  22.391  55.529  1.00  0.00     0.030 A 
ENDBRANCH  27  29
ENDBRANCH   3  27
BRANCH   5  35
HETATM   35  N   UNL     1       4.599  25.746  51.043  1.00  0.00    -0.187 N 
HETATM   36  H   UNL     1       4.480  24.749  50.914  1.00  0.00     0.184 HD
BRANCH  35  37
HETATM   37  C   UNL     1       4.594  26.499  49.861  1.00  0.00     0.049 A 
HETATM   38  C   UNL     1       3.937  26.092  48.694  1.00  0.00     0.030 A 
HETATM   39  C   UNL     1       3.974  26.874  47.534  1.00  0.00     0.002 A 
HETATM   40  C   UNL     1       4.698  28.063  47.518  1.00  0.00     0.000 A 
HETATM   41  C   UNL     1       5.382  28.470  48.659  1.00  0.00     0.002 A 
HETATM   42  C   UNL     1       5.330  27.693  49.820  1.00  0.00     0.030 A 
ENDBRANCH  35  37
ENDBRANCH   5  35
TORSDOF 8
ENDMDL
MODEL 5
REMARK VINA RESULT:     -10.9      1.460      5.559
REMARK  8 active torsions:
REMARK  status: ('A' for Active; 'I' for Inactive)
REMARK    1  A    between atoms: C_8  and  N_9 
REMARK       I    between atoms: N_9  and  C_10 
REMARK    2  A    between atoms: C_10  and  C_11 
REMARK    3  A    between atoms: C_11  and  N_12 
REMARK    4  A    between atoms: N_16  and  C_17 
REMARK    5  A    between atoms: C_19  and  N_20 
REMARK    6  A    between atoms: N_20  and  C_21 
REMARK    7  A    between atoms: C_28  and  N_29 
REMARK    8  A    between atoms: N_29  and  C_30 
ROOT
HETATM    1  C   UNL     1       7.227  26.867  54.339  1.00  0.00     0.756 A 
HETATM    2  N   UNL     1       6.453  27.506  53.474  1.00  0.00     0.131 NA
HETATM    3  C   UNL     1       6.030  26.807  52.423  1.00  0.00     0.758 A 
HETATM    4  N   UNL     1       6.422  25.570  52.163  1.00  0.00     0.131 NA
HETATM    5  C   UNL     1       7.200  25.001  53.068  1.00  0.00     0.758 A 
HETATM    6  N   UNL     1       7.608  25.611  54.175  1.00  0.00     0.131 NA
ENDROOT
BRANCH   1   7
HETATM    7  N   UNL     1       7.638  27.544  55.494  1.00  0.00    -0.210 N 
HETATM    8  C   UNL     1       8.291  28.837  55.243  1.00  0.00     0.169 C 
HETATM    9  C   UNL     1       8.909  29.394  56.543  1.00  0.00     0.256 C 
HETATM   10  N   UNL     1       7.851  29.445  57.649  1.00  0.00    -0.060 N 
HETATM   11  H   UNL     1       7.080  30.012  57.279  1.00  0.00     0.280 HD
HETATM   12  C   UNL     1       7.294  28.044  57.897  1.00  0.00     0.256 C 
HETATM   13  C   UNL     1       6.679  27.474  56.602  1.00  0.00     0.169 C 
BRANCH  10  14
HETATM   14  C   UNL     1       8.335  30.132  58.928  1.00  0.00     0.337 C 
BRANCH  14  15
HETATM   15  C   UNL     1       7.510  31.337  59.410  1.00  0.00     0.248 C 
HETATM   16  N   UNL     1       7.203  31.287  60.761  1.00  0.00    -0.325 N 
HETATM   17  H   UNL     1       7.593  30.530  61.308  1.00  0.00     0.169 HD
HETATM   18  O   UNL     1       7.200  32.228  58.626  1.00  0.00    -0.271 OA
BRANCH  16  19
HETATM   19  C   UNL     1       6.400  32.205  61.497  1.00  0.00     0.042 A 
HETATM   20  C   UNL     1       6.894  32.723  62.724  1.00  0.00    -0.014 A 
HETATM   21  C   UNL     1       8.273  32.364  63.221  1.00  0.00     0.052 C 
HETATM   22  C   UNL     1       6.055  33.566  63.487  1.00  0.00     0.042 A 
HETATM   23 CL   UNL     1       6.528  34.199  65.026  1.00  0.00    -0.084 Cl
HETATM   24  C   UNL     1       4.785  33.924  63.031  1.00  0.00     0.024 A 
HETATM   25  C   UNL     1       4.323  33.437  61.817  1.00  0.00     0.004 A 
HETATM   26  C   UNL     1       5.123  32.582  61.059  1.00  0.00     0.030 A 
ENDBRANCH  16  19
ENDBRANCH  14  15
ENDBRANCH  10  14
ENDBRANCH   1   7
BRANCH   3  27
HETATM   27  N   UNL     1       5.144  27.481  51.582  1.00  0.00    -0.187 N 
HETATM   28  H   UNL     1       4.280  27.649  52.078  1.00  0.00     0.184 HD
BRANCH  27  29
HETATM   29  C   UNL     1       5.012  27.496  50.183  1.00  0.00     0.049 A 
HETATM   30  C   UNL     1       4.522  26.423  49.431  1.00  0.00     0.030 A 
HETATM   31  C   UNL     1       4.432  26.497  48.037  1.00  0.00     0.002 A 
HETATM   32  C   UNL     1       4.854  27.641  47.367  1.00  0.00     0.000 A 
HETATM   33  C   UNL     1       5.377  28.707  48.092  1.00  0.00     0.002 A 
HETATM   34  C   UNL     1       5.463  28.629  49.484  1.00  0.00     0.030 A 
ENDBRANCH  27  29
ENDBRANCH   3  27
BRANCH   5  35
HETATM   35  N   UNL     1       7.640  23.712  52.773  1.00  0.00    -0.187 N 
HETATM   36  H   UNL     1       7.468  23.501  51.799  1.00  0.00     0.184 HD
BRANCH  35  37
HETATM   37  C   UNL     1       7.824  22.592  53.596  1.00  0.00     0.049 A 
HETATM   38  C   UNL     1       7.531  22.589  54.965  1.00  0.00     0.030 A 
HETATM   39  C   UNL     1       7.747  21.449  55.746  1.00  0.00     0.002 A 
HETATM   40  C   UNL     1       8.290  20.303  55.172  1.00  0.00     0.000 A 
HETATM   41  C   UNL     1       8.616  20.296  53.820  1.00  0.00     0.002 A 
HETATM   42  C   UNL     1       8.384  21.432  53.039  1.00  0.00     0.030 A 
ENDBRANCH  35  37
ENDBRANCH   5  35
TORSDOF 8
ENDMDL
MODEL 6
REMARK VINA RESULT:     -10.5      1.802      5.670
REMARK  8 active torsions:
REMARK  status: ('A' for Active; 'I' for Inactive)
REMARK    1  A    between atoms: C_8  and  N_9 
REMARK       I    between atoms: N_9  and  C_10 
REMARK    2  A    between atoms: C_10  and  C_11 
REMARK    3  A    between atoms: C_11  and  N_12 
REMARK    4  A    between atoms: N_16  and  C_17 
REMARK    5  A    between atoms: C_19  and  N_20 
REMARK    6  A    between atoms: N_20  and  C_21 
REMARK    7  A    between atoms: C_28  and  N_29 
REMARK    8  A    between atoms: N_29  and  C_30 
ROOT
HETATM    1  C   UNL     1       6.350  27.943  54.945  1.00  0.00     0.756 A 
HETATM    2  N   UNL     1       5.652  28.488  53.958  1.00  0.00     0.131 NA
HETATM    3  C   UNL     1       4.969  27.651  53.179  1.00  0.00     0.758 A 
HETATM    4  N   UNL     1       5.039  26.334  53.285  1.00  0.00     0.131 NA
HETATM    5  C   UNL     1       5.761  25.865  54.289  1.00  0.00     0.758 A 
HETATM    6  N   UNL     1       6.414  26.638  55.148  1.00  0.00     0.131 NA
ENDROOT
BRANCH   1   7
HETATM    7  N   UNL     1       7.027  28.792  55.830  1.00  0.00    -0.210 N 
HETATM    8  C   UNL     1       6.321  29.042  57.095  1.00  0.00     0.169 C 
HETATM    9  C   UNL     1       7.024  30.158  57.897  1.00  0.00     0.256 C 
HETATM   10  N   UNL     1       8.508  29.821  58.077  1.00  0.00    -0.060 N 
HETATM   11  H   UNL     1       8.537  28.901  58.530  1.00  0.00     0.280 HD
HETATM   12  C   UNL     1       9.173  29.666  56.711  1.00  0.00     0.256 C 
HETATM   13  C   UNL     1       8.473  28.557  55.896  1.00  0.00     0.169 C 
BRANCH  10  14
HETATM   14  C   UNL     1       9.248  30.794  58.997  1.00  0.00     0.337 C 
BRANCH  14  15
HETATM   15  C   UNL     1       8.735  30.892  60.443  1.00  0.00     0.248 C 
HETATM   16  N   UNL     1       7.988  32.035  60.685  1.00  0.00    -0.325 N 
HETATM   17  H   UNL     1       7.791  32.646  59.902  1.00  0.00     0.169 HD
HETATM   18  O   UNL     1       8.985  30.004  61.251  1.00  0.00    -0.271 OA
BRANCH  16  19
HETATM   19  C   UNL     1       7.433  32.456  61.927  1.00  0.00     0.042 A 
HETATM   20  C   UNL     1       6.060  32.817  61.982  1.00  0.00    -0.014 A 
HETATM   21  C   UNL     1       5.176  32.701  60.764  1.00  0.00     0.052 C 
HETATM   22  C   UNL     1       5.541  33.313  63.199  1.00  0.00     0.042 A 
HETATM   23 CL   UNL     1       3.903  33.844  63.361  1.00  0.00    -0.084 Cl
HETATM   24  C   UNL     1       6.341  33.407  64.339  1.00  0.00     0.024 A 
HETATM   25  C   UNL     1       7.674  33.024  64.284  1.00  0.00     0.004 A 
HETATM   26  C   UNL     1       8.215  32.556  63.087  1.00  0.00     0.030 A 
ENDBRANCH  16  19
ENDBRANCH  14  15
ENDBRANCH  10  14
ENDBRANCH   1   7
BRANCH   3  27
HETATM   27  N   UNL     1       4.174  28.262  52.209  1.00  0.00    -0.187 N 
HETATM   28  H   UNL     1       3.227  27.920  52.294  1.00  0.00     0.184 HD
BRANCH  27  29
HETATM   29  C   UNL     1       4.483  28.781  50.940  1.00  0.00     0.049 A 
HETATM   30  C   UNL     1       5.447  29.769  50.711  1.00  0.00     0.030 A 
HETATM   31  C   UNL     1       5.694  30.255  49.423  1.00  0.00     0.002 A 
HETATM   32  C   UNL     1       4.962  29.776  48.341  1.00  0.00     0.000 A 
HETATM   33  C   UNL     1       3.975  28.819  48.550  1.00  0.00     0.002 A 
HETATM   34  C   UNL     1       3.733  28.335  49.839  1.00  0.00     0.030 A 
ENDBRANCH  27  29
ENDBRANCH   3  27
BRANCH   5  35
HETATM   35  N   UNL     1       5.860  24.478  54.376  1.00  0.00    -0.187 N 
HETATM   36  H   UNL     1       5.017  24.095  54.784  1.00  0.00     0.184 HD
BRANCH  35  37
HETATM   37  C   UNL     1       6.981  23.638  54.435  1.00  0.00     0.049 A 
HETATM   38  C   UNL     1       7.554  23.042  53.305  1.00  0.00     0.030 A 
HETATM   39  C   UNL     1       8.664  22.199  53.420  1.00  0.00     0.002 A 
HETATM   40  C   UNL     1       9.199  21.916  54.673  1.00  0.00     0.000 A 
HETATM   41  C   UNL     1       8.625  22.475  55.810  1.00  0.00     0.002 A 
HETATM   42  C   UNL     1       7.525  23.329  55.690  1.00  0.00     0.030 A 
ENDBRANCH  35  37
ENDBRANCH   5  35
TORSDOF 8
ENDMDL
MODEL 7
REMARK VINA RESULT:     -10.5      1.842      5.540
REMARK  8 active torsions:
REMARK  status: ('A' for Active; 'I' for Inactive)
REMARK    1  A    between atoms: C_8  and  N_9 
REMARK       I    between atoms: N_9  and  C_10 
REMARK    2  A    between atoms: C_10  and  C_11 
REMARK    3  A    between atoms: C_11  and  N_12 
REMARK    4  A    between atoms: N_16  and  C_17 
REMARK    5  A    between atoms: C_19  and  N_20 
REMARK    6  A    between atoms: N_20  and  C_21 
REMARK    7  A    between atoms: C_28  and  N_29 
REMARK    8  A    between atoms: N_29  and  C_30 
ROOT
HETATM    1  C   UNL     1       5.140  28.352  53.754  1.00  0.00     0.756 A 
HETATM    2  N   UNL     1       5.072  28.592  52.452  1.00  0.00     0.131 NA
HETATM    3  C   UNL     1       5.040  27.530  51.651  1.00  0.00     0.758 A 
HETATM    4  N   UNL     1       5.173  26.286  52.083  1.00  0.00     0.131 NA
HETATM    5  C   UNL     1       5.243  26.125  53.394  1.00  0.00     0.758 A 
HETATM    6  N   UNL     1       5.212  27.132  54.259  1.00  0.00     0.131 NA
ENDROOT
BRANCH   1   7
HETATM    7  N   UNL     1       5.106  29.440  54.635  1.00  0.00    -0.210 N 
HETATM    8  C   UNL     1       4.169  30.507  54.252  1.00  0.00     0.169 C 
HETATM    9  C   UNL     1       4.368  31.750  55.144  1.00  0.00     0.256 C 
HETATM   10  N   UNL     1       4.279  31.357  56.622  1.00  0.00    -0.060 N 
HETATM   11  H   UNL     1       3.368  30.901  56.740  1.00  0.00     0.280 HD
HETATM   12  C   UNL     1       5.345  30.311  56.943  1.00  0.00     0.256 C 
HETATM   13  C   UNL     1       5.161  29.065  56.052  1.00  0.00     0.169 C 
BRANCH  10  14
HETATM   14  C   UNL     1       4.306  32.553  57.575  1.00  0.00     0.337 C 
BRANCH  14  15
HETATM   15  C   UNL     1       4.727  32.262  59.026  1.00  0.00     0.248 C 
HETATM   16  N   UNL     1       6.000  32.717  59.330  1.00  0.00    -0.325 N 
HETATM   17  H   UNL     1       6.496  33.245  58.623  1.00  0.00     0.169 HD
HETATM   18  O   UNL     1       3.957  31.690  59.791  1.00  0.00    -0.271 OA
BRANCH  16  19
HETATM   19  C   UNL     1       6.708  32.544  60.554  1.00  0.00     0.042 A 
HETATM   20  C   UNL     1       7.692  31.524  60.645  1.00  0.00    -0.014 A 
HETATM   21  C   UNL     1       8.038  30.669  59.450  1.00  0.00     0.052 C 
HETATM   22  C   UNL     1       8.327  31.307  61.888  1.00  0.00     0.042 A 
HETATM   23 CL   UNL     1       9.491  30.050  62.129  1.00  0.00    -0.084 Cl
HETATM   24  C   UNL     1       8.033  32.103  62.997  1.00  0.00     0.024 A 
HETATM   25  C   UNL     1       7.092  33.117  62.891  1.00  0.00     0.004 A 
HETATM   26  C   UNL     1       6.433  33.332  61.682  1.00  0.00     0.030 A 
ENDBRANCH  16  19
ENDBRANCH  14  15
ENDBRANCH  10  14
ENDBRANCH   1   7
BRANCH   3  27
HETATM   27  N   UNL     1       4.876  27.815  50.295  1.00  0.00    -0.187 N 
HETATM   28  H   UNL     1       5.320  28.699  50.088  1.00  0.00     0.184 HD
BRANCH  27  29
HETATM   29  C   UNL     1       3.879  27.446  49.376  1.00  0.00     0.049 A 
HETATM   30  C   UNL     1       2.663  28.122  49.228  1.00  0.00     0.030 A 
HETATM   31  C   UNL     1       1.705  27.692  48.303  1.00  0.00     0.002 A 
HETATM   32  C   UNL     1       1.937  26.561  47.527  1.00  0.00     0.000 A 
HETATM   33  C   UNL     1       3.125  25.854  47.683  1.00  0.00     0.002 A 
HETATM   34  C   UNL     1       4.081  26.289  48.605  1.00  0.00     0.030 A 
ENDBRANCH  27  29
ENDBRANCH   3  27
BRANCH   5  35
HETATM   35  N   UNL     1       5.418  24.818  53.842  1.00  0.00    -0.187 N 
HETATM   36  H   UNL     1       4.601  24.517  54.358  1.00  0.00     0.184 HD
BRANCH  35  37
HETATM   37  C   UNL     1       6.583  24.080  54.095  1.00  0.00     0.049 A 
HETATM   38  C   UNL     1       7.241  23.326  53.116  1.00  0.00     0.030 A 
HETATM   39  C   UNL     1       8.393  22.595  53.424  1.00  0.00     0.002 A 
HETATM   40  C   UNL     1       8.886  22.584  54.725  1.00  0.00     0.000 A 
HETATM   41  C   UNL     1       8.229  23.304  55.718  1.00  0.00     0.002 A 
HETATM   42  C   UNL     1       7.087  24.046  55.404  1.00  0.00     0.030 A 
ENDBRANCH  35  37
ENDBRANCH   5  35
TORSDOF 8
ENDMDL
MODEL 8
REMARK VINA RESULT:     -10.3      4.563     10.084
REMARK  8 active torsions:
REMARK  status: ('A' for Active; 'I' for Inactive)
REMARK    1  A    between atoms: C_8  and  N_9 
REMARK       I    between atoms: N_9  and  C_10 
REMARK    2  A    between atoms: C_10  and  C_11 
REMARK    3  A    between atoms: C_11  and  N_12 
REMARK    4  A    between atoms: N_16  and  C_17 
REMARK    5  A    between atoms: C_19  and  N_20 
REMARK    6  A    between atoms: N_20  and  C_21 
REMARK    7  A    between atoms: C_28  and  N_29 
REMARK    8  A    between atoms: N_29  and  C_30 
ROOT
HETATM    1  C   UNL     1       5.953  27.638  54.980  1.00  0.00     0.756 A 
HETATM    2  N   UNL     1       6.398  28.305  56.035  1.00  0.00     0.131 NA
HETATM    3  C   UNL     1       6.975  27.586  56.995  1.00  0.00     0.758 A 
HETATM    4  N   UNL     1       7.029  26.264  56.983  1.00  0.00     0.131 NA
HETATM    5  C   UNL     1       6.558  25.668  55.901  1.00  0.00     0.758 A 
HETATM    6  N   UNL     1       6.030  26.322  54.873  1.00  0.00     0.131 NA
ENDROOT
BRANCH   1   7
HETATM    7  N   UNL     1       5.401  28.364  53.916  1.00  0.00    -0.210 N 
HETATM    8  C   UNL     1       4.656  29.566  54.319  1.00  0.00     0.169 C 
HETATM    9  C   UNL     1       3.898  30.163  53.115  1.00  0.00     0.256 C 
HETATM   10  N   UNL     1       4.866  30.402  51.951  1.00  0.00    -0.060 N 
HETATM   11  H   UNL     1       5.608  31.007  52.318  1.00  0.00     0.280 HD
HETATM   12  C   UNL     1       5.525  29.084  51.548  1.00  0.00     0.256 C 
HETATM   13  C   UNL     1       6.280  28.473  52.747  1.00  0.00     0.169 C 
BRANCH  10  14
HETATM   14  C   UNL     1       4.231  31.140  50.770  1.00  0.00     0.337 C 
BRANCH  14  15
HETATM   15  C   UNL     1       3.933  30.298  49.518  1.00  0.00     0.248 C 
HETATM   16  N   UNL     1       2.757  29.569  49.614  1.00  0.00    -0.325 N 
HETATM   17  H   UNL     1       2.182  29.703  50.436  1.00  0.00     0.169 HD
HETATM   18  O   UNL     1       4.695  30.325  48.558  1.00  0.00    -0.271 OA
BRANCH  16  19
HETATM   19  C   UNL     1       2.237  28.644  48.665  1.00  0.00     0.042 A 
HETATM   20  C   UNL     1       2.817  27.350  48.571  1.00  0.00    -0.014 A 
HETATM   21  C   UNL     1       3.929  26.928  49.501  1.00  0.00     0.052 C 
HETATM   22  C   UNL     1       2.349  26.471  47.569  1.00  0.00     0.042 A 
HETATM   23 CL   UNL     1       3.030  24.900  47.322  1.00  0.00    -0.084 Cl
HETATM   24  C   UNL     1       1.309  26.839  46.715  1.00  0.00     0.024 A 
HETATM   25  C   UNL     1       0.726  28.094  46.834  1.00  0.00     0.004 A 
HETATM   26  C   UNL     1       1.190  28.988  47.797  1.00  0.00     0.030 A 
ENDBRANCH  16  19
ENDBRANCH  14  15
ENDBRANCH  10  14
ENDBRANCH   1   7
BRANCH   3  27
HETATM   27  N   UNL     1       7.513  28.327  58.047  1.00  0.00    -0.187 N 
HETATM   28  H   UNL     1       6.835  28.382  58.794  1.00  0.00     0.184 HD
BRANCH  27  29
HETATM   29  C   UNL     1       8.475  29.351  58.073  1.00  0.00     0.049 A 
HETATM   30  C   UNL     1       9.585  29.404  57.223  1.00  0.00     0.030 A 
HETATM   31  C   UNL     1      10.515  30.446  57.312  1.00  0.00     0.002 A 
HETATM   32  C   UNL     1      10.365  31.441  58.273  1.00  0.00     0.000 A 
HETATM   33  C   UNL     1       9.288  31.388  59.151  1.00  0.00     0.002 A 
HETATM   34  C   UNL     1       8.359  30.348  59.056  1.00  0.00     0.030 A 
ENDBRANCH  27  29
ENDBRANCH   3  27
BRANCH   5  35
HETATM   35  N   UNL     1       6.585  24.275  55.908  1.00  0.00    -0.187 N 
HETATM   36  H   UNL     1       6.476  23.931  56.854  1.00  0.00     0.184 HD
BRANCH  35  37
HETATM   37  C   UNL     1       7.148  23.360  55.008  1.00  0.00     0.049 A 
HETATM   38  C   UNL     1       7.333  23.637  53.648  1.00  0.00     0.030 A 
HETATM   39  C   UNL     1       7.888  22.684  52.787  1.00  0.00     0.002 A 
HETATM   40  C   UNL     1       8.238  21.427  53.271  1.00  0.00     0.000 A 
HETATM   41  C   UNL     1       8.034  21.123  54.613  1.00  0.00     0.002 A 
HETATM   42  C   UNL     1       7.494  22.083  55.474  1.00  0.00     0.030 A 
ENDBRANCH  35  37
ENDBRANCH   5  35
TORSDOF 8
ENDMDL
MODEL 9
REMARK VINA RESULT:     -10.2      4.833     10.520
REMARK  8 active torsions:
REMARK  status: ('A' for Active; 'I' for Inactive)
REMARK    1  A    between atoms: C_8  and  N_9 
REMARK       I    between atoms: N_9  and  C_10 
REMARK    2  A    between atoms: C_10  and  C_11 
REMARK    3  A    between atoms: C_11  and  N_12 
REMARK    4  A    between atoms: N_16  and  C_17 
REMARK    5  A    between atoms: C_19  and  N_20 
REMARK    6  A    between atoms: N_20  and  C_21 
REMARK    7  A    between atoms: C_28  and  N_29 
REMARK    8  A    between atoms: N_29  and  C_30 
ROOT
HETATM    1  C   UNL     1       6.672  26.671  54.136  1.00  0.00     0.756 A 
HETATM    2  N   UNL     1       6.827  25.376  54.375  1.00  0.00     0.131 NA
HETATM    3  C   UNL     1       7.119  25.032  55.627  1.00  0.00     0.758 A 
HETATM    4  N   UNL     1       7.354  25.910  56.589  1.00  0.00     0.131 NA
HETATM    5  C   UNL     1       7.188  27.183  56.274  1.00  0.00     0.758 A 
HETATM    6  N   UNL     1       6.830  27.600  55.064  1.00  0.00     0.131 NA
ENDROOT
BRANCH   1   7
HETATM    7  N   UNL     1       6.296  27.071  52.847  1.00  0.00    -0.210 N 
HETATM    8  C   UNL     1       5.526  26.068  52.098  1.00  0.00     0.169 C 
HETATM    9  C   UNL     1       5.359  26.500  50.626  1.00  0.00     0.256 C 
HETATM   10  N   UNL     1       4.763  27.910  50.556  1.00  0.00    -0.060 N 
HETATM   11  H   UNL     1       3.882  27.872  51.081  1.00  0.00     0.280 HD
HETATM   12  C   UNL     1       5.675  28.894  51.287  1.00  0.00     0.256 C 
HETATM   13  C   UNL     1       5.855  28.467  52.759  1.00  0.00     0.169 C 
BRANCH  10  14
HETATM   14  C   UNL     1       4.416  28.357  49.135  1.00  0.00     0.337 C 
BRANCH  14  15
HETATM   15  C   UNL     1       2.924  28.344  48.760  1.00  0.00     0.248 C 
HETATM   16  N   UNL     1       2.698  28.479  47.399  1.00  0.00    -0.325 N 
HETATM   17  H   UNL     1       3.503  28.500  46.785  1.00  0.00     0.169 HD
HETATM   18  O   UNL     1       2.069  28.211  49.629  1.00  0.00    -0.271 OA
BRANCH  16  19
HETATM   19  C   UNL     1       1.440  28.575  46.739  1.00  0.00     0.042 A 
HETATM   20  C   UNL     1       0.999  29.843  46.275  1.00  0.00    -0.014 A 
HETATM   21  C   UNL     1       1.869  31.069  46.417  1.00  0.00     0.052 C 
HETATM   22  C   UNL     1      -0.287  29.941  45.697  1.00  0.00     0.042 A 
HETATM   23 CL   UNL     1      -0.951  31.445  45.160  1.00  0.00    -0.084 Cl
HETATM   24  C   UNL     1      -1.094  28.813  45.540  1.00  0.00     0.024 A 
HETATM   25  C   UNL     1      -0.642  27.573  45.968  1.00  0.00     0.004 A 
HETATM   26  C   UNL     1       0.612  27.456  46.566  1.00  0.00     0.030 A 
ENDBRANCH  16  19
ENDBRANCH  14  15
ENDBRANCH  10  14
ENDBRANCH   1   7
BRANCH   3  27
HETATM   27  N   UNL     1       7.185  23.659  55.863  1.00  0.00    -0.187 N 
HETATM   28  H   UNL     1       7.323  23.500  56.852  1.00  0.00     0.184 HD
BRANCH  27  29
HETATM   29  C   UNL     1       7.596  22.590  55.049  1.00  0.00     0.049 A 
HETATM   30  C   UNL     1       7.673  22.653  53.654  1.00  0.00     0.030 A 
HETATM   31  C   UNL     1       8.075  21.544  52.900  1.00  0.00     0.002 A 
HETATM   32  C   UNL     1       8.385  20.343  53.530  1.00  0.00     0.000 A 
HETATM   33  C   UNL     1       8.282  20.248  54.914  1.00  0.00     0.002 A 
HETATM   34  C   UNL     1       7.883  21.358  55.663  1.00  0.00     0.030 A 
ENDBRANCH  27  29
ENDBRANCH   3  27
BRANCH   5  35
HETATM   35  N   UNL     1       7.470  28.105  57.279  1.00  0.00    -0.187 N 
HETATM   36  H   UNL     1       6.619  28.365  57.760  1.00  0.00     0.184 HD
BRANCH  35  37
HETATM   37  C   UNL     1       8.532  29.008  57.428  1.00  0.00     0.049 A 
HETATM   38  C   UNL     1       9.732  28.905  56.714  1.00  0.00     0.030 A 
HETATM   39  C   UNL     1      10.769  29.825  56.910  1.00  0.00     0.002 A 
HETATM   40  C   UNL     1      10.629  30.844  57.847  1.00  0.00     0.000 A 
HETATM   41  C   UNL     1       9.455  30.945  58.587  1.00  0.00     0.002 A 
HETATM   42  C   UNL     1       8.416  30.034  58.378  1.00  0.00     0.030 A 
ENDBRANCH  35  37
ENDBRANCH   5  35
TORSDOF 8
ENDMDL
MODEL 10
REMARK VINA RESULT:     -10.0      4.590     10.060
REMARK  8 active torsions:
REMARK  status: ('A' for Active; 'I' for Inactive)
REMARK    1  A    between atoms: C_8  and  N_9 
REMARK       I    between atoms: N_9  and  C_10 
REMARK    2  A    between atoms: C_10  and  C_11 
REMARK    3  A    between atoms: C_11  and  N_12 
REMARK    4  A    between atoms: N_16  and  C_17 
REMARK    5  A    between atoms: C_19  and  N_20 
REMARK    6  A    between atoms: N_20  and  C_21 
REMARK    7  A    between atoms: C_28  and  N_29 
REMARK    8  A    between atoms: N_29  and  C_30 
ROOT
HETATM    1  C   UNL     1       6.805  26.733  54.671  1.00  0.00     0.756 A 
HETATM    2  N   UNL     1       6.823  27.608  55.666  1.00  0.00     0.131 NA
HETATM    3  C   UNL     1       7.422  27.221  56.790  1.00  0.00     0.758 A 
HETATM    4  N   UNL     1       7.894  26.000  56.981  1.00  0.00     0.131 NA
HETATM    5  C   UNL     1       7.835  25.180  55.946  1.00  0.00     0.758 A 
HETATM    6  N   UNL     1       7.314  25.516  54.771  1.00  0.00     0.131 NA
ENDROOT
BRANCH   1   7
HETATM    7  N   UNL     1       6.246  27.125  53.448  1.00  0.00    -0.210 N 
HETATM    8  C   UNL     1       5.613  26.036  52.689  1.00  0.00     0.169 C 
HETATM    9  C   UNL     1       5.237  26.511  51.270  1.00  0.00     0.256 C 
HETATM   10  N   UNL     1       4.384  27.781  51.349  1.00  0.00    -0.060 N 
HETATM   11  H   UNL     1       3.577  27.545  51.937  1.00  0.00     0.280 HD
HETATM   12  C   UNL     1       5.158  28.879  52.076  1.00  0.00     0.256 C 
HETATM   13  C   UNL     1       5.546  28.413  53.495  1.00  0.00     0.169 C 
BRANCH  10  14
HETATM   14  C   UNL     1       3.833  28.233  49.995  1.00  0.00     0.337 C 
BRANCH  14  15
HETATM   15  C   UNL     1       4.770  29.090  49.128  1.00  0.00     0.248 C 
HETATM   16  N   UNL     1       4.392  30.423  49.064  1.00  0.00    -0.325 N 
HETATM   17  H   UNL     1       3.606  30.720  49.629  1.00  0.00     0.169 HD
HETATM   18  O   UNL     1       5.746  28.585  48.584  1.00  0.00    -0.271 OA
BRANCH  16  19
HETATM   19  C   UNL     1       5.001  31.455  48.296  1.00  0.00     0.042 A 
HETATM   20  C   UNL     1       4.636  31.607  46.931  1.00  0.00    -0.014 A 
HETATM   21  C   UNL     1       3.575  30.733  46.308  1.00  0.00     0.052 C 
HETATM   22  C   UNL     1       5.308  32.580  46.157  1.00  0.00     0.042 A 
HETATM   23 CL   UNL     1       4.992  32.804  44.471  1.00  0.00    -0.084 Cl
HETATM   24  C   UNL     1       6.278  33.409  46.723  1.00  0.00     0.024 A 
HETATM   25  C   UNL     1       6.606  33.274  48.065  1.00  0.00     0.004 A 
HETATM   26  C   UNL     1       5.976  32.303  48.842  1.00  0.00     0.030 A 
ENDBRANCH  16  19
ENDBRANCH  14  15
ENDBRANCH  10  14
ENDBRANCH   1   7
BRANCH   3  27
HETATM   27  N   UNL     1       7.503  28.197  57.784  1.00  0.00    -0.187 N 
HETATM   28  H   UNL     1       6.577  28.376  58.147  1.00  0.00     0.184 HD
BRANCH  27  29
HETATM   29  C   UNL     1       8.411  29.249  57.988  1.00  0.00     0.049 A 
HETATM   30  C   UNL     1       8.201  30.301  58.886  1.00  0.00     0.030 A 
HETATM   31  C   UNL     1       9.141  31.328  59.030  1.00  0.00     0.002 A 
HETATM   32  C   UNL     1      10.298  31.333  58.258  1.00  0.00     0.000 A 
HETATM   33  C   UNL     1      10.511  30.315  57.334  1.00  0.00     0.002 A 
HETATM   34  C   UNL     1       9.571  29.290  57.196  1.00  0.00     0.030 A 
ENDBRANCH  27  29
ENDBRANCH   3  27
BRANCH   5  35
HETATM   35  N   UNL     1       8.301  23.885  56.163  1.00  0.00    -0.187 N 
HETATM   36  H   UNL     1       9.055  23.896  56.837  1.00  0.00     0.184 HD
BRANCH  35  37
HETATM   37  C   UNL     1       8.248  22.741  55.355  1.00  0.00     0.049 A 
HETATM   38  C   UNL     1       8.409  22.774  53.964  1.00  0.00     0.030 A 
HETATM   39  C   UNL     1       8.333  21.605  53.201  1.00  0.00     0.002 A 
HETATM   40  C   UNL     1       8.064  20.386  53.817  1.00  0.00     0.000 A 
HETATM   41  C   UNL     1       7.871  20.336  55.194  1.00  0.00     0.002 A 
HETATM   42  C   UNL     1       7.964  21.505  55.955  1.00  0.00     0.030 A 
ENDBRANCH  35  37
ENDBRANCH   5  35
TORSDOF 8
ENDMDL
