MODEL 1
REMARK VINA RESULT:      -9.6      0.000      0.000
REMARK  5 active torsions:
REMARK  status: ('A' for Active; 'I' for Inactive)
REMARK    1  A    between atoms: C_2  and  O_3 
REMARK    2  A    between atoms: C_2  and  C_4 
REMARK    3  A    between atoms: C_7  and  N_8 
REMARK    4  A    between atoms: N_12  and  C_13 
REMARK    5  A    between atoms: C_13  and  C_14 
ROOT
HETATM    1  N   UNL     1       5.708  26.360  52.098  1.00  0.00    -0.367 N 
HETATM    2  C   UNL     1       4.895  25.880  53.241  1.00  0.00     0.127 C 
HETATM    3  C   UNL     1       5.618  24.804  54.058  1.00  0.00     0.068 C 
HETATM    4  C   UNL     1       7.134  25.065  54.241  1.00  0.00     0.206 C 
HETATM    5  N   UNL     1       7.848  23.932  54.974  1.00  0.00     0.105 N 
HETATM    6  C   UNL     1       7.697  23.997  56.471  1.00  0.00     0.280 C 
HETATM    7  C   UNL     1       8.283  25.268  57.115  1.00  0.00     0.089 C 
HETATM    8  C   UNL     1       7.828  26.417  56.331  1.00  0.00     0.037 A 
HETATM    9  C   UNL     1       7.315  26.346  55.058  1.00  0.00     0.072 A 
HETATM   10  N   UNL     1       7.077  27.661  54.679  1.00  0.00    -0.352 N 
HETATM   11  H   UNL     1       6.745  27.951  53.761  1.00  0.00     0.166 HD
HETATM   12  C   UNL     1       7.423  28.503  55.660  1.00  0.00     0.181 A 
HETATM   13  N   UNL     1       7.859  27.752  56.674  1.00  0.00    -0.354 N 
HETATM   14  H   UNL     1       8.207  28.123  57.558  1.00  0.00     0.166 HD
HETATM   15  C   UNL     1       7.814  25.341  52.864  1.00  0.00     0.068 C 
HETATM   16  C   UNL     1       6.821  25.483  51.709  1.00  0.00     0.127 C 
ENDROOT
BRANCH   5  17
HETATM   17  C   UNL     1       7.488  22.539  54.580  1.00  0.00     0.277 C 
BRANCH  17  18
HETATM   18  C   UNL     1       8.632  21.584  54.184  1.00  0.00     0.006 C 
HETATM   19  C   UNL     1       9.029  20.668  55.345  1.00  0.00     0.011 C 
HETATM   20  C   UNL     1       8.202  20.727  52.988  1.00  0.00     0.011 C 
ENDBRANCH  17  18
ENDBRANCH   5  17
BRANCH   1  21
HETATM   21  C   UNL     1       4.912  26.895  51.064  1.00  0.00     0.103 A 
HETATM   22  N   UNL     1       4.691  26.238  49.917  1.00  0.00    -0.344 N 
HETATM   23  C   UNL     1       3.934  26.696  48.900  1.00  0.00     0.039 A 
HETATM   24  H   UNL     1       5.060  25.299  49.751  1.00  0.00     0.167 HD
HETATM   25  C   UNL     1       3.332  27.945  49.003  1.00  0.00     0.028 A 
HETATM   26  C   UNL     1       3.534  28.688  50.158  1.00  0.00     0.006 A 
HETATM   27  C   UNL     1       4.320  28.167  51.186  1.00  0.00     0.048 A 
BRANCH  23  28
HETATM   28  C   UNL     1       3.793  25.762  47.734  1.00  0.00     0.163 C 
HETATM   29  C   UNL     1       2.940  24.543  48.048  1.00  0.00     0.046 C 
BRANCH  28  30
HETATM   30  O   UNL     1       3.141  26.542  46.712  1.00  0.00    -0.390 OA
HETATM   31  H   UNL     1       2.857  25.905  46.021  1.00  0.00     0.210 HD
ENDBRANCH  28  30
ENDBRANCH  23  28
ENDBRANCH   1  21
TORSDOF 5
ENDMDL
MODEL 2
REMARK VINA RESULT:      -9.3      3.725      7.370
REMARK  5 active torsions:
REMARK  status: ('A' for Active; 'I' for Inactive)
REMARK    1  A    between atoms: C_2  and  O_3 
REMARK    2  A    between atoms: C_2  and  C_4 
REMARK    3  A    between atoms: C_7  and  N_8 
REMARK    4  A    between atoms: N_12  and  C_13 
REMARK    5  A    between atoms: C_13  and  C_14 
ROOT
HETATM    1  N   UNL     1       7.973  28.248  56.116  1.00  0.00    -0.367 N 
HETATM    2  C   UNL     1       8.243  28.334  54.661  1.00  0.00     0.127 C 
HETATM    3  C   UNL     1       8.029  26.993  53.950  1.00  0.00     0.068 C 
HETATM    4  C   UNL     1       6.804  26.195  54.466  1.00  0.00     0.206 C 
HETATM    5  N   UNL     1       6.669  24.824  53.809  1.00  0.00     0.105 N 
HETATM    6  C   UNL     1       6.018  24.869  52.453  1.00  0.00     0.280 C 
HETATM    7  C   UNL     1       4.575  25.409  52.457  1.00  0.00     0.089 C 
HETATM    8  C   UNL     1       4.557  26.628  53.266  1.00  0.00     0.037 A 
HETATM    9  C   UNL     1       5.536  26.994  54.159  1.00  0.00     0.072 A 
HETATM   10  N   UNL     1       5.086  28.171  54.742  1.00  0.00    -0.352 N 
HETATM   11  H   UNL     1       5.563  28.669  55.491  1.00  0.00     0.166 HD
HETATM   12  C   UNL     1       3.894  28.519  54.242  1.00  0.00     0.181 A 
HETATM   13  N   UNL     1       3.578  27.597  53.328  1.00  0.00    -0.354 N 
HETATM   14  H   UNL     1       2.712  27.593  52.790  1.00  0.00     0.166 HD
HETATM   15  C   UNL     1       6.853  26.058  56.018  1.00  0.00     0.068 C 
HETATM   16  C   UNL     1       7.960  26.888  56.672  1.00  0.00     0.127 C 
ENDROOT
BRANCH   5  17
HETATM   17  C   UNL     1       7.920  24.027  53.644  1.00  0.00     0.277 C 
BRANCH  17  18
HETATM   18  C   UNL     1       7.941  22.594  54.211  1.00  0.00     0.006 C 
HETATM   19  C   UNL     1       8.004  21.546  53.096  1.00  0.00     0.011 C 
HETATM   20  C   UNL     1       9.151  22.420  55.136  1.00  0.00     0.011 C 
ENDBRANCH  17  18
ENDBRANCH   5  17
BRANCH   1  21
HETATM   21  C   UNL     1       8.660  29.240  56.845  1.00  0.00     0.103 A 
HETATM   22  N   UNL     1       8.061  29.977  57.792  1.00  0.00    -0.344 N 
HETATM   23  C   UNL     1       8.668  30.931  58.525  1.00  0.00     0.039 A 
HETATM   24  H   UNL     1       7.084  29.828  58.056  1.00  0.00     0.167 HD
HETATM   25  C   UNL     1      10.011  31.213  58.304  1.00  0.00     0.028 A 
HETATM   26  C   UNL     1      10.689  30.500  57.325  1.00  0.00     0.006 A 
HETATM   27  C   UNL     1      10.018  29.517  56.597  1.00  0.00     0.048 A 
BRANCH  23  28
HETATM   28  C   UNL     1       7.805  31.591  59.560  1.00  0.00     0.163 C 
HETATM   29  C   UNL     1       8.592  32.469  60.520  1.00  0.00     0.046 C 
BRANCH  28  30
HETATM   30  O   UNL     1       6.892  32.416  58.809  1.00  0.00    -0.390 OA
HETATM   31  H   UNL     1       6.817  33.262  59.302  1.00  0.00     0.210 HD
ENDBRANCH  28  30
ENDBRANCH  23  28
ENDBRANCH   1  21
TORSDOF 5
ENDMDL
MODEL 3
REMARK VINA RESULT:      -9.2      1.355      2.049
REMARK  5 active torsions:
REMARK  status: ('A' for Active; 'I' for Inactive)
REMARK    1  A    between atoms: C_2  and  O_3 
REMARK    2  A    between atoms: C_2  and  C_4 
REMARK    3  A    between atoms: C_7  and  N_8 
REMARK    4  A    between atoms: N_12  and  C_13 
REMARK    5  A    between atoms: C_13  and  C_14 
ROOT
HETATM    1  N   UNL     1       5.771  26.425  52.202  1.00  0.00    -0.367 N 
HETATM    2  C   UNL     1       4.935  26.068  53.373  1.00  0.00     0.127 C 
HETATM    3  C   UNL     1       5.609  25.025  54.272  1.00  0.00     0.068 C 
HETATM    4  C   UNL     1       7.135  25.232  54.442  1.00  0.00     0.206 C 
HETATM    5  N   UNL     1       7.796  24.127  55.262  1.00  0.00     0.105 N 
HETATM    6  C   UNL     1       7.646  24.310  56.748  1.00  0.00     0.280 C 
HETATM    7  C   UNL     1       8.286  25.598  57.299  1.00  0.00     0.089 C 
HETATM    8  C   UNL     1       7.884  26.704  56.430  1.00  0.00     0.037 A 
HETATM    9  C   UNL     1       7.370  26.561  55.163  1.00  0.00     0.072 A 
HETATM   10  N   UNL     1       7.192  27.853  54.686  1.00  0.00    -0.352 N 
HETATM   11  H   UNL     1       6.875  28.089  53.748  1.00  0.00     0.166 HD
HETATM   12  C   UNL     1       7.573  28.751  55.604  1.00  0.00     0.181 A 
HETATM   13  N   UNL     1       7.974  28.058  56.674  1.00  0.00    -0.354 N 
HETATM   14  H   UNL     1       8.336  28.478  57.529  1.00  0.00     0.166 HD
HETATM   15  C   UNL     1       7.828  25.375  53.053  1.00  0.00     0.068 C 
HETATM   16  C   UNL     1       6.845  25.474  51.885  1.00  0.00     0.127 C 
ENDROOT
BRANCH   5  17
HETATM   17  C   UNL     1       7.376  22.726  54.970  1.00  0.00     0.277 C 
BRANCH  17  18
HETATM   18  C   UNL     1       8.457  21.733  54.497  1.00  0.00     0.006 C 
HETATM   19  C   UNL     1       8.661  20.598  55.505  1.00  0.00     0.011 C 
HETATM   20  C   UNL     1       8.059  21.139  53.141  1.00  0.00     0.011 C 
ENDBRANCH  17  18
ENDBRANCH   5  17
BRANCH   1  21
HETATM   21  C   UNL     1       5.002  26.917  51.128  1.00  0.00     0.103 A 
HETATM   22  N   UNL     1       4.042  27.838  51.297  1.00  0.00    -0.344 N 
HETATM   23  C   UNL     1       3.283  28.349  50.307  1.00  0.00     0.039 A 
HETATM   24  H   UNL     1       3.847  28.255  52.209  1.00  0.00     0.167 HD
HETATM   25  C   UNL     1       3.467  27.905  49.003  1.00  0.00     0.028 A 
HETATM   26  C   UNL     1       4.433  26.938  48.759  1.00  0.00     0.006 A 
HETATM   27  C   UNL     1       5.199  26.445  49.816  1.00  0.00     0.048 A 
BRANCH  23  28
HETATM   28  C   UNL     1       2.303  29.404  50.731  1.00  0.00     0.163 C 
HETATM   29  C   UNL     1       1.834  30.278  49.578  1.00  0.00     0.046 C 
BRANCH  28  30
HETATM   30  O   UNL     1       1.176  28.673  51.255  1.00  0.00    -0.390 OA
HETATM   31  H   UNL     1       0.374  29.154  50.957  1.00  0.00     0.210 HD
ENDBRANCH  28  30
ENDBRANCH  23  28
ENDBRANCH   1  21
TORSDOF 5
ENDMDL
MODEL 4
REMARK VINA RESULT:      -9.2      2.931      6.971
REMARK  5 active torsions:
REMARK  status: ('A' for Active; 'I' for Inactive)
REMARK    1  A    between atoms: C_2  and  O_3 
REMARK    2  A    between atoms: C_2  and  C_4 
REMARK    3  A    between atoms: C_7  and  N_8 
REMARK    4  A    between atoms: N_12  and  C_13 
REMARK    5  A    between atoms: C_13  and  C_14 
ROOT
HETATM    1  N   UNL     1       6.451  24.887  54.303  1.00  0.00    -0.367 N 
HETATM    2  C   UNL     1       7.306  26.064  54.018  1.00  0.00     0.127 C 
HETATM    3  C   UNL     1       6.778  26.893  52.842  1.00  0.00     0.068 C 
HETATM    4  C   UNL     1       5.235  27.029  52.809  1.00  0.00     0.206 C 
HETATM    5  N   UNL     1       4.731  27.777  51.578  1.00  0.00     0.105 N 
HETATM    6  C   UNL     1       4.819  29.274  51.707  1.00  0.00     0.280 C 
HETATM    7  C   UNL     1       3.980  29.865  52.855  1.00  0.00     0.089 C 
HETATM    8  C   UNL     1       4.228  29.059  54.051  1.00  0.00     0.037 A 
HETATM    9  C   UNL     1       4.786  27.802  54.050  1.00  0.00     0.072 A 
HETATM   10  N   UNL     1       4.777  27.391  55.376  1.00  0.00    -0.352 N 
HETATM   11  H   UNL     1       5.075  26.474  55.703  1.00  0.00     0.166 HD
HETATM   12  C   UNL     1       4.245  28.338  56.160  1.00  0.00     0.181 A 
HETATM   13  N   UNL     1       3.930  29.362  55.363  1.00  0.00    -0.354 N 
HETATM   14  H   UNL     1       3.490  30.225  55.680  1.00  0.00     0.166 HD
HETATM   15  C   UNL     1       4.559  25.628  52.915  1.00  0.00     0.068 C 
HETATM   16  C   UNL     1       5.541  24.495  53.218  1.00  0.00     0.127 C 
ENDROOT
BRANCH   5  17
HETATM   17  C   UNL     1       5.364  27.434  50.271  1.00  0.00     0.277 C 
BRANCH  17  18
HETATM   18  C   UNL     1       4.477  27.462  49.011  1.00  0.00     0.006 C 
HETATM   19  C   UNL     1       5.262  27.922  47.779  1.00  0.00     0.011 C 
HETATM   20  C   UNL     1       3.901  26.066  48.750  1.00  0.00     0.011 C 
ENDBRANCH  17  18
ENDBRANCH   5  17
BRANCH   1  21
HETATM   21  C   UNL     1       7.161  23.859  54.957  1.00  0.00     0.103 A 
HETATM   22  N   UNL     1       7.284  22.630  54.436  1.00  0.00    -0.344 N 
HETATM   23  C   UNL     1       7.956  21.612  55.012  1.00  0.00     0.039 A 
HETATM   24  H   UNL     1       6.899  22.389  53.520  1.00  0.00     0.167 HD
HETATM   25  C   UNL     1       8.569  21.807  56.244  1.00  0.00     0.028 A 
HETATM   26  C   UNL     1       8.466  23.052  56.850  1.00  0.00     0.006 A 
HETATM   27  C   UNL     1       7.766  24.075  56.210  1.00  0.00     0.048 A 
BRANCH  23  28
HETATM   28  C   UNL     1       7.997  20.340  54.217  1.00  0.00     0.163 C 
HETATM   29  C   UNL     1       8.376  20.560  52.761  1.00  0.00     0.046 C 
BRANCH  28  30
HETATM   30  O   UNL     1       9.014  19.540  54.852  1.00  0.00    -0.390 OA
HETATM   31  H   UNL     1       8.583  18.692  55.096  1.00  0.00     0.210 HD
ENDBRANCH  28  30
ENDBRANCH  23  28
ENDBRANCH   1  21
TORSDOF 5
ENDMDL
MODEL 5
REMARK VINA RESULT:      -9.1      4.164      7.693
REMARK  5 active torsions:
REMARK  status: ('A' for Active; 'I' for Inactive)
REMARK    1  A    between atoms: C_2  and  O_3 
REMARK    2  A    between atoms: C_2  and  C_4 
REMARK    3  A    between atoms: C_7  and  N_8 
REMARK    4  A    between atoms: N_12  and  C_13 
REMARK    5  A    between atoms: C_13  and  C_14 
ROOT
HETATM    1  N   UNL     1       6.464  28.658  56.821  1.00  0.00    -0.367 N 
HETATM    2  C   UNL     1       7.312  28.734  55.607  1.00  0.00     0.127 C 
HETATM    3  C   UNL     1       7.575  27.354  54.996  1.00  0.00     0.068 C 
HETATM    4  C   UNL     1       6.350  26.406  55.027  1.00  0.00     0.206 C 
HETATM    5  N   UNL     1       6.665  25.009  54.500  1.00  0.00     0.105 N 
HETATM    6  C   UNL     1       6.648  24.915  52.998  1.00  0.00     0.280 C 
HETATM    7  C   UNL     1       5.287  25.243  52.355  1.00  0.00     0.089 C 
HETATM    8  C   UNL     1       4.787  26.474  52.969  1.00  0.00     0.037 A 
HETATM    9  C   UNL     1       5.247  27.005  54.151  1.00  0.00     0.072 A 
HETATM   10  N   UNL     1       4.459  28.124  54.386  1.00  0.00    -0.352 N 
HETATM   11  H   UNL     1       4.514  28.710  55.217  1.00  0.00     0.166 HD
HETATM   12  C   UNL     1       3.559  28.281  53.407  1.00  0.00     0.181 A 
HETATM   13  N   UNL     1       3.769  27.294  52.533  1.00  0.00    -0.354 N 
HETATM   14  H   UNL     1       3.219  27.148  51.686  1.00  0.00     0.166 HD
HETATM   15  C   UNL     1       5.752  26.329  56.465  1.00  0.00     0.068 C 
HETATM   16  C   UNL     1       6.374  27.330  57.441  1.00  0.00     0.127 C 
ENDROOT
BRANCH   5  17
HETATM   17  C   UNL     1       7.951  24.395  54.941  1.00  0.00     0.277 C 
BRANCH  17  18
HETATM   18  C   UNL     1       7.942  23.553  56.233  1.00  0.00     0.006 C 
HETATM   19  C   UNL     1       8.499  22.147  55.994  1.00  0.00     0.011 C 
HETATM   20  C   UNL     1       8.777  24.251  57.313  1.00  0.00     0.011 C 
ENDBRANCH  17  18
ENDBRANCH   5  17
BRANCH   1  21
HETATM   21  C   UNL     1       6.657  29.762  57.676  1.00  0.00     0.103 A 
HETATM   22  N   UNL     1       7.666  29.818  58.557  1.00  0.00    -0.344 N 
HETATM   23  C   UNL     1       7.904  30.849  59.393  1.00  0.00     0.039 A 
HETATM   24  H   UNL     1       8.366  29.076  58.626  1.00  0.00     0.167 HD
HETATM   25  C   UNL     1       7.055  31.950  59.380  1.00  0.00     0.028 A 
HETATM   26  C   UNL     1       5.979  31.951  58.504  1.00  0.00     0.006 A 
HETATM   27  C   UNL     1       5.779  30.863  57.654  1.00  0.00     0.048 A 
BRANCH  23  28
HETATM   28  C   UNL     1       9.121  30.705  60.258  1.00  0.00     0.163 C 
HETATM   29  C   UNL     1       9.613  32.031  60.818  1.00  0.00     0.046 C 
BRANCH  28  30
HETATM   30  O   UNL     1       8.703  29.860  61.348  1.00  0.00    -0.390 OA
HETATM   31  H   UNL     1       9.526  29.531  61.771  1.00  0.00     0.210 HD
ENDBRANCH  28  30
ENDBRANCH  23  28
ENDBRANCH   1  21
TORSDOF 5
ENDMDL
MODEL 6
REMARK VINA RESULT:      -8.9      4.257      8.152
REMARK  5 active torsions:
REMARK  status: ('A' for Active; 'I' for Inactive)
REMARK    1  A    between atoms: C_2  and  O_3 
REMARK    2  A    between atoms: C_2  and  C_4 
REMARK    3  A    between atoms: C_7  and  N_8 
REMARK    4  A    between atoms: N_12  and  C_13 
REMARK    5  A    between atoms: C_13  and  C_14 
ROOT
HETATM    1  N   UNL     1       7.103  28.695  57.002  1.00  0.00    -0.367 N 
HETATM    2  C   UNL     1       5.914  27.824  57.161  1.00  0.00     0.127 C 
HETATM    3  C   UNL     1       5.549  27.097  55.862  1.00  0.00     0.068 C 
HETATM    4  C   UNL     1       6.773  26.597  55.054  1.00  0.00     0.206 C 
HETATM    5  N   UNL     1       6.387  25.963  53.721  1.00  0.00     0.105 N 
HETATM    6  C   UNL     1       5.936  24.532  53.845  1.00  0.00     0.280 C 
HETATM    7  C   UNL     1       7.006  23.574  54.402  1.00  0.00     0.089 C 
HETATM    8  C   UNL     1       7.604  24.207  55.578  1.00  0.00     0.037 A 
HETATM    9  C   UNL     1       7.510  25.544  55.883  1.00  0.00     0.072 A 
HETATM   10  N   UNL     1       8.269  25.717  57.034  1.00  0.00    -0.352 N 
HETATM   11  H   UNL     1       8.445  26.611  57.486  1.00  0.00     0.166 HD
HETATM   12  C   UNL     1       8.806  24.553  57.422  1.00  0.00     0.181 A 
HETATM   13  N   UNL     1       8.387  23.629  56.554  1.00  0.00    -0.354 N 
HETATM   14  H   UNL     1       8.651  22.645  56.589  1.00  0.00     0.166 HD
HETATM   15  C   UNL     1       7.795  27.755  54.834  1.00  0.00     0.068 C 
HETATM   16  C   UNL     1       7.457  29.026  55.615  1.00  0.00     0.127 C 
ENDROOT
BRANCH   5  17
HETATM   17  C   UNL     1       5.340  26.660  52.918  1.00  0.00     0.277 C 
BRANCH  17  18
HETATM   18  C   UNL     1       5.727  27.168  51.515  1.00  0.00     0.006 C 
HETATM   19  C   UNL     1       4.992  26.400  50.413  1.00  0.00     0.011 C 
HETATM   20  C   UNL     1       5.399  28.661  51.395  1.00  0.00     0.011 C 
ENDBRANCH  17  18
ENDBRANCH   5  17
BRANCH   1  21
HETATM   21  C   UNL     1       7.127  29.742  57.946  1.00  0.00     0.103 A 
HETATM   22  N   UNL     1       8.054  29.814  58.912  1.00  0.00    -0.344 N 
HETATM   23  C   UNL     1       8.131  30.794  59.834  1.00  0.00     0.039 A 
HETATM   24  H   UNL     1       8.811  29.130  58.988  1.00  0.00     0.167 HD
HETATM   25  C   UNL     1       7.190  31.817  59.826  1.00  0.00     0.028 A 
HETATM   26  C   UNL     1       6.190  31.795  58.863  1.00  0.00     0.006 A 
HETATM   27  C   UNL     1       6.158  30.763  57.925  1.00  0.00     0.048 A 
BRANCH  23  28
HETATM   28  C   UNL     1       9.284  30.687  60.788  1.00  0.00     0.163 C 
HETATM   29  C   UNL     1       9.618  32.006  61.468  1.00  0.00     0.046 C 
BRANCH  28  30
HETATM   30  O   UNL     1       8.853  29.740  61.786  1.00  0.00    -0.390 OA
HETATM   31  H   UNL     1       7.885  29.629  61.659  1.00  0.00     0.210 HD
ENDBRANCH  28  30
ENDBRANCH  23  28
ENDBRANCH   1  21
TORSDOF 5
ENDMDL
MODEL 7
REMARK VINA RESULT:      -8.6      3.264      7.373
REMARK  5 active torsions:
REMARK  status: ('A' for Active; 'I' for Inactive)
REMARK    1  A    between atoms: C_2  and  O_3 
REMARK    2  A    between atoms: C_2  and  C_4 
REMARK    3  A    between atoms: C_7  and  N_8 
REMARK    4  A    between atoms: N_12  and  C_13 
REMARK    5  A    between atoms: C_13  and  C_14 
ROOT
HETATM    1  N   UNL     1       7.017  24.836  55.761  1.00  0.00    -0.367 N 
HETATM    2  C   UNL     1       5.614  24.992  56.213  1.00  0.00     0.127 C 
HETATM    3  C   UNL     1       5.252  26.456  56.488  1.00  0.00     0.068 C 
HETATM    4  C   UNL     1       5.855  27.456  55.469  1.00  0.00     0.206 C 
HETATM    5  N   UNL     1       5.559  28.912  55.820  1.00  0.00     0.105 N 
HETATM    6  C   UNL     1       4.189  29.366  55.394  1.00  0.00     0.280 C 
HETATM    7  C   UNL     1       3.942  29.305  53.874  1.00  0.00     0.089 C 
HETATM    8  C   UNL     1       4.410  28.004  53.397  1.00  0.00     0.037 A 
HETATM    9  C   UNL     1       5.256  27.170  54.091  1.00  0.00     0.072 A 
HETATM   10  N   UNL     1       5.484  26.089  53.249  1.00  0.00    -0.352 N 
HETATM   11  H   UNL     1       6.117  25.318  53.452  1.00  0.00     0.166 HD
HETATM   12  C   UNL     1       4.819  26.240  52.097  1.00  0.00     0.181 A 
HETATM   13  N   UNL     1       4.148  27.391  52.190  1.00  0.00    -0.354 N 
HETATM   14  H   UNL     1       3.561  27.777  51.451  1.00  0.00     0.166 HD
HETATM   15  C   UNL     1       7.390  27.229  55.320  1.00  0.00     0.068 C 
HETATM   16  C   UNL     1       7.897  25.978  56.041  1.00  0.00     0.127 C 
ENDROOT
BRANCH   5  17
HETATM   17  C   UNL     1       5.701  29.304  57.252  1.00  0.00     0.277 C 
BRANCH  17  18
HETATM   18  C   UNL     1       6.901  30.190  57.641  1.00  0.00     0.006 C 
HETATM   19  C   UNL     1       6.474  31.360  58.533  1.00  0.00     0.011 C 
HETATM   20  C   UNL     1       7.949  29.350  58.379  1.00  0.00     0.011 C 
ENDBRANCH  17  18
ENDBRANCH   5  17
BRANCH   1  21
HETATM   21  C   UNL     1       7.523  23.547  56.028  1.00  0.00     0.103 A 
HETATM   22  N   UNL     1       7.507  22.568  55.111  1.00  0.00    -0.344 N 
HETATM   23  C   UNL     1       7.984  21.322  55.308  1.00  0.00     0.039 A 
HETATM   24  H   UNL     1       7.160  22.721  54.162  1.00  0.00     0.167 HD
HETATM   25  C   UNL     1       8.526  20.982  56.542  1.00  0.00     0.028 A 
HETATM   26  C   UNL     1       8.557  21.943  57.543  1.00  0.00     0.006 A 
HETATM   27  C   UNL     1       8.058  23.222  57.289  1.00  0.00     0.048 A 
BRANCH  23  28
HETATM   28  C   UNL     1       7.900  20.410  54.119  1.00  0.00     0.163 C 
HETATM   29  C   UNL     1       8.133  21.130  52.800  1.00  0.00     0.046 C 
BRANCH  28  30
HETATM   30  O   UNL     1       8.952  19.444  54.319  1.00  0.00    -0.390 OA
HETATM   31  H   UNL     1       8.791  19.042  55.200  1.00  0.00     0.210 HD
ENDBRANCH  28  30
ENDBRANCH  23  28
ENDBRANCH   1  21
TORSDOF 5
ENDMDL
MODEL 8
REMARK VINA RESULT:      -8.5      3.241      7.108
REMARK  5 active torsions:
REMARK  status: ('A' for Active; 'I' for Inactive)
REMARK    1  A    between atoms: C_2  and  O_3 
REMARK    2  A    between atoms: C_2  and  C_4 
REMARK    3  A    between atoms: C_7  and  N_8 
REMARK    4  A    between atoms: N_12  and  C_13 
REMARK    5  A    between atoms: C_13  and  C_14 
ROOT
HETATM    1  N   UNL     1       6.710  24.135  53.673  1.00  0.00    -0.367 N 
HETATM    2  C   UNL     1       7.595  25.317  53.797  1.00  0.00     0.127 C 
HETATM    3  C   UNL     1       6.989  26.567  53.147  1.00  0.00     0.068 C 
HETATM    4  C   UNL     1       5.463  26.714  53.367  1.00  0.00     0.206 C 
HETATM    5  N   UNL     1       4.869  27.912  52.631  1.00  0.00     0.105 N 
HETATM    6  C   UNL     1       5.059  29.217  53.357  1.00  0.00     0.280 C 
HETATM    7  C   UNL     1       4.389  29.278  54.743  1.00  0.00     0.089 C 
HETATM    8  C   UNL     1       4.722  28.044  55.455  1.00  0.00     0.037 A 
HETATM    9  C   UNL     1       5.200  26.900  54.863  1.00  0.00     0.072 A 
HETATM   10  N   UNL     1       5.316  25.971  55.889  1.00  0.00    -0.352 N 
HETATM   11  H   UNL     1       5.594  25.000  55.766  1.00  0.00     0.166 HD
HETATM   12  C   UNL     1       4.930  26.506  57.054  1.00  0.00     0.181 A 
HETATM   13  N   UNL     1       4.589  27.772  56.800  1.00  0.00    -0.354 N 
HETATM   14  H   UNL     1       4.239  28.426  57.500  1.00  0.00     0.166 HD
HETATM   15  C   UNL     1       4.721  25.402  52.967  1.00  0.00     0.068 C 
HETATM   16  C   UNL     1       5.664  24.239  52.647  1.00  0.00     0.127 C 
ENDROOT
BRANCH   5  17
HETATM   17  C   UNL     1       5.332  28.143  51.232  1.00  0.00     0.277 C 
BRANCH  17  18
HETATM   18  C   UNL     1       4.339  27.858  50.088  1.00  0.00     0.006 C 
HETATM   19  C   UNL     1       4.392  28.945  49.010  1.00  0.00     0.011 C 
HETATM   20  C   UNL     1       4.656  26.500  49.452  1.00  0.00     0.011 C 
ENDBRANCH  17  18
ENDBRANCH   5  17
BRANCH   1  21
HETATM   21  C   UNL     1       7.427  22.922  53.747  1.00  0.00     0.103 A 
HETATM   22  N   UNL     1       8.021  22.510  54.876  1.00  0.00    -0.344 N 
HETATM   23  C   UNL     1       8.711  21.359  55.007  1.00  0.00     0.039 A 
HETATM   24  H   UNL     1       7.953  23.039  55.748  1.00  0.00     0.167 HD
HETATM   25  C   UNL     1       8.851  20.516  53.911  1.00  0.00     0.028 A 
HETATM   26  C   UNL     1       8.275  20.890  52.705  1.00  0.00     0.006 A 
HETATM   27  C   UNL     1       7.564  22.088  52.621  1.00  0.00     0.048 A 
BRANCH  23  28
HETATM   28  C   UNL     1       9.249  21.088  56.381  1.00  0.00     0.163 C 
HETATM   29  C   UNL     1       8.187  21.184  57.466  1.00  0.00     0.046 C 
BRANCH  28  30
HETATM   30  O   UNL     1       9.742  19.734  56.325  1.00  0.00    -0.390 OA
HETATM   31  H   UNL     1       9.709  19.469  55.381  1.00  0.00     0.210 HD
ENDBRANCH  28  30
ENDBRANCH  23  28
ENDBRANCH   1  21
TORSDOF 5
ENDMDL
MODEL 9
REMARK VINA RESULT:      -8.4      3.475      7.334
REMARK  5 active torsions:
REMARK  status: ('A' for Active; 'I' for Inactive)
REMARK    1  A    between atoms: C_2  and  O_3 
REMARK    2  A    between atoms: C_2  and  C_4 
REMARK    3  A    between atoms: C_7  and  N_8 
REMARK    4  A    between atoms: N_12  and  C_13 
REMARK    5  A    between atoms: C_13  and  C_14 
ROOT
HETATM    1  N   UNL     1       6.627  25.885  54.654  1.00  0.00    -0.367 N 
HETATM    2  C   UNL     1       5.398  25.885  55.482  1.00  0.00     0.127 C 
HETATM    3  C   UNL     1       5.225  27.192  56.265  1.00  0.00     0.068 C 
HETATM    4  C   UNL     1       5.624  28.460  55.470  1.00  0.00     0.206 C 
HETATM    5  N   UNL     1       5.534  29.736  56.303  1.00  0.00     0.105 N 
HETATM    6  C   UNL     1       4.138  30.289  56.406  1.00  0.00     0.280 C 
HETATM    7  C   UNL     1       3.514  30.695  55.057  1.00  0.00     0.089 C 
HETATM    8  C   UNL     1       3.751  29.606  54.109  1.00  0.00     0.037 A 
HETATM    9  C   UNL     1       4.679  28.607  54.276  1.00  0.00     0.072 A 
HETATM   10  N   UNL     1       4.609  27.837  53.122  1.00  0.00    -0.352 N 
HETATM   11  H   UNL     1       5.214  27.046  52.913  1.00  0.00     0.166 HD
HETATM   12  C   UNL     1       3.689  28.330  52.283  1.00  0.00     0.181 A 
HETATM   13  N   UNL     1       3.149  29.391  52.887  1.00  0.00    -0.354 N 
HETATM   14  H   UNL     1       2.426  29.981  52.477  1.00  0.00     0.166 HD
HETATM   15  C   UNL     1       7.052  28.301  54.864  1.00  0.00     0.068 C 
HETATM   16  C   UNL     1       7.630  26.893  55.021  1.00  0.00     0.127 C 
ENDROOT
BRANCH   5  17
HETATM   17  C   UNL     1       6.059  29.671  57.698  1.00  0.00     0.277 C 
BRANCH  17  18
HETATM   18  C   UNL     1       7.150  30.682  58.105  1.00  0.00     0.006 C 
HETATM   19  C   UNL     1       6.570  31.842  58.919  1.00  0.00     0.011 C 
HETATM   20  C   UNL     1       8.230  29.975  58.932  1.00  0.00     0.011 C 
ENDBRANCH  17  18
ENDBRANCH   5  17
BRANCH   1  21
HETATM   21  C   UNL     1       7.087  24.580  54.383  1.00  0.00     0.103 A 
HETATM   22  N   UNL     1       7.333  23.691  55.355  1.00  0.00    -0.344 N 
HETATM   23  C   UNL     1       7.765  22.430  55.155  1.00  0.00     0.039 A 
HETATM   24  H   UNL     1       7.163  23.905  56.340  1.00  0.00     0.167 HD
HETATM   25  C   UNL     1       7.999  21.984  53.859  1.00  0.00     0.028 A 
HETATM   26  C   UNL     1       7.782  22.859  52.804  1.00  0.00     0.006 A 
HETATM   27  C   UNL     1       7.327  24.153  53.063  1.00  0.00     0.048 A 
BRANCH  23  28
HETATM   28  C   UNL     1       7.925  21.602  56.396  1.00  0.00     0.163 C 
HETATM   29  C   UNL     1       9.034  20.568  56.283  1.00  0.00     0.046 C 
BRANCH  28  30
HETATM   30  O   UNL     1       8.268  22.547  57.429  1.00  0.00    -0.390 OA
HETATM   31  H   UNL     1       9.097  22.984  57.137  1.00  0.00     0.210 HD
ENDBRANCH  28  30
ENDBRANCH  23  28
ENDBRANCH   1  21
TORSDOF 5
ENDMDL
MODEL 10
REMARK VINA RESULT:      -8.3      3.877      7.303
REMARK  5 active torsions:
REMARK  status: ('A' for Active; 'I' for Inactive)
REMARK    1  A    between atoms: C_2  and  O_3 
REMARK    2  A    between atoms: C_2  and  C_4 
REMARK    3  A    between atoms: C_7  and  N_8 
REMARK    4  A    between atoms: N_12  and  C_13 
REMARK    5  A    between atoms: C_13  and  C_14 
ROOT
HETATM    1  N   UNL     1       7.045  27.102  55.369  1.00  0.00    -0.367 N 
HETATM    2  C   UNL     1       6.063  27.149  56.479  1.00  0.00     0.127 C 
HETATM    3  C   UNL     1       6.390  28.244  57.499  1.00  0.00     0.068 C 
HETATM    4  C   UNL     1       6.907  29.561  56.866  1.00  0.00     0.206 C 
HETATM    5  N   UNL     1       7.316  30.600  57.907  1.00  0.00     0.105 N 
HETATM    6  C   UNL     1       6.155  31.375  58.470  1.00  0.00     0.280 C 
HETATM    7  C   UNL     1       5.373  32.197  57.429  1.00  0.00     0.089 C 
HETATM    8  C   UNL     1       5.124  31.334  56.273  1.00  0.00     0.037 A 
HETATM    9  C   UNL     1       5.792  30.162  56.009  1.00  0.00     0.072 A 
HETATM   10  N   UNL     1       5.287  29.712  54.797  1.00  0.00    -0.352 N 
HETATM   11  H   UNL     1       5.618  28.889  54.298  1.00  0.00     0.166 HD
HETATM   12  C   UNL     1       4.357  30.556  54.331  1.00  0.00     0.181 A 
HETATM   13  N   UNL     1       4.238  31.531  55.235  1.00  0.00    -0.354 N 
HETATM   14  H   UNL     1       3.611  32.330  55.142  1.00  0.00     0.166 HD
HETATM   15  C   UNL     1       8.086  29.272  55.887  1.00  0.00     0.068 C 
HETATM   16  C   UNL     1       8.320  27.782  55.633  1.00  0.00     0.127 C 
ENDROOT
BRANCH   5  17
HETATM   17  C   UNL     1       8.098  30.111  59.079  1.00  0.00     0.277 C 
BRANCH  17  18
HETATM   18  C   UNL     1       9.429  30.818  59.403  1.00  0.00     0.006 C 
HETATM   19  C   UNL     1      10.157  31.261  58.131  1.00  0.00     0.011 C 
HETATM   20  C   UNL     1       9.164  32.043  60.286  1.00  0.00     0.011 C 
ENDBRANCH  17  18
ENDBRANCH   5  17
BRANCH   1  21
HETATM   21  C   UNL     1       7.100  25.833  54.759  1.00  0.00     0.103 A 
HETATM   22  N   UNL     1       7.735  24.794  55.321  1.00  0.00    -0.344 N 
HETATM   23  C   UNL     1       7.813  23.559  54.788  1.00  0.00     0.039 A 
HETATM   24  H   UNL     1       8.180  24.865  56.239  1.00  0.00     0.167 HD
HETATM   25  C   UNL     1       7.216  23.304  53.559  1.00  0.00     0.028 A 
HETATM   26  C   UNL     1       6.556  24.340  52.912  1.00  0.00     0.006 A 
HETATM   27  C   UNL     1       6.496  25.600  53.508  1.00  0.00     0.048 A 
BRANCH  23  28
HETATM   28  C   UNL     1       8.538  22.545  55.623  1.00  0.00     0.163 C 
HETATM   29  C   UNL     1       7.718  21.291  55.882  1.00  0.00     0.046 C 
BRANCH  28  30
HETATM   30  O   UNL     1       9.703  22.193  54.850  1.00  0.00    -0.390 OA
HETATM   31  H   UNL     1      10.375  21.879  55.493  1.00  0.00     0.210 HD
ENDBRANCH  28  30
ENDBRANCH  23  28
ENDBRANCH   1  21
TORSDOF 5
ENDMDL
