MODEL 1
REMARK VINA RESULT:      -9.9      0.000      0.000
REMARK  3 active torsions:
REMARK  status: ('A' for Active; 'I' for Inactive)
REMARK    1  A    between atoms: C_9  and  C_10 
REMARK       I    between atoms: C_10  and  N_11 
REMARK    2  A    between atoms: N_11  and  C_12 
REMARK    3  A    between atoms: C_14  and  C_15 
ROOT
HETATM    1  C   UNL     1       6.603  27.770  55.139  1.00  0.00     0.277 C 
HETATM    2  N   UNL     1       7.186  28.966  55.464  1.00  0.00    -0.322 N 
HETATM    3  O   UNL     1       5.643  27.763  54.368  1.00  0.00    -0.266 OA
HETATM    4  H   UNL     1       6.692  29.708  54.978  1.00  0.00     0.169 HD
ENDROOT
BRANCH   1   5
HETATM    5  C   UNL     1       7.087  26.426  55.628  1.00  0.00     0.156 A 
HETATM    6  C   UNL     1       7.496  25.412  54.627  1.00  0.00     0.016 A 
HETATM    7  C   UNL     1       7.525  25.658  53.248  1.00  0.00     0.015 A 
HETATM    8  C   UNL     1       7.793  24.135  55.100  1.00  0.00     0.046 A 
HETATM    9  C   UNL     1       7.823  24.621  52.358  1.00  0.00     0.001 A 
HETATM   10  C   UNL     1       8.104  23.342  52.837  1.00  0.00     0.001 A 
HETATM   11  C   UNL     1       8.098  23.098  54.209  1.00  0.00     0.018 A 
HETATM   12  C   UNL     1       7.760  23.884  56.550  1.00  0.00     0.272 A 
HETATM   13  O   UNL     1       8.065  22.792  57.018  1.00  0.00    -0.266 OA
HETATM   14  N   UNL     1       7.376  24.941  57.342  1.00  0.00    -0.242 N 
HETATM   15  N   UNL     1       7.006  26.179  56.904  1.00  0.00    -0.166 NA
HETATM   16  H   UNL     1       7.300  24.771  58.339  1.00  0.00     0.192 HD
ENDBRANCH   1   5
BRANCH   2  17
HETATM   17  C   UNL     1       8.186  29.407  56.348  1.00  0.00     0.035 A 
HETATM   18  C   UNL     1       7.995  29.893  57.643  1.00  0.00     0.042 A 
HETATM   19  C   UNL     1       9.072  30.413  58.395  1.00  0.00    -0.021 A 
HETATM   20  C   UNL     1      10.360  30.381  57.841  1.00  0.00     0.012 A 
HETATM   21  C   UNL     1      10.571  29.859  56.568  1.00  0.00     0.003 A 
HETATM   22  C   UNL     1       9.490  29.384  55.830  1.00  0.00     0.029 A 
BRANCH  19  23
HETATM   23  C   UNL     1       8.876  31.016  59.713  1.00  0.00     0.010 A 
HETATM   24  C   UNL     1       9.188  30.527  61.009  1.00  0.00     0.152 A 
HETATM   25  N   UNL     1       8.887  31.389  61.983  1.00  0.00    -0.187 NA
HETATM   26  N   UNL     1       8.388  32.442  61.321  1.00  0.00    -0.289 N 
HETATM   27  H   UNL     1       8.092  33.251  61.858  1.00  0.00     0.188 HD
HETATM   28  C   UNL     1       8.356  32.269  59.967  1.00  0.00     0.123 A 
ENDBRANCH  19  23
ENDBRANCH   2  17
TORSDOF 3
ENDMDL
MODEL 2
REMARK VINA RESULT:      -9.3      2.069      3.702
REMARK  3 active torsions:
REMARK  status: ('A' for Active; 'I' for Inactive)
REMARK    1  A    between atoms: C_9  and  C_10 
REMARK       I    between atoms: C_10  and  N_11 
REMARK    2  A    between atoms: N_11  and  C_12 
REMARK    3  A    between atoms: C_14  and  C_15 
ROOT
HETATM    1  C   UNL     1       7.962  24.216  56.991  1.00  0.00     0.277 C 
HETATM    2  N   UNL     1       7.655  25.270  57.810  1.00  0.00    -0.322 N 
HETATM    3  O   UNL     1       8.337  23.157  57.495  1.00  0.00    -0.266 OA
HETATM    4  H   UNL     1       7.798  24.982  58.773  1.00  0.00     0.169 HD
ENDROOT
BRANCH   1   5
HETATM    5  C   UNL     1       7.827  24.239  55.487  1.00  0.00     0.156 A 
HETATM    6  C   UNL     1       7.811  22.950  54.756  1.00  0.00     0.016 A 
HETATM    7  C   UNL     1       7.842  21.702  55.393  1.00  0.00     0.015 A 
HETATM    8  C   UNL     1       7.838  23.008  53.364  1.00  0.00     0.046 A 
HETATM    9  C   UNL     1       7.928  20.531  54.634  1.00  0.00     0.001 A 
HETATM   10  C   UNL     1       7.971  20.597  53.242  1.00  0.00     0.001 A 
HETATM   11  C   UNL     1       7.918  21.834  52.603  1.00  0.00     0.018 A 
HETATM   12  C   UNL     1       7.806  24.322  52.702  1.00  0.00     0.272 A 
HETATM   13  O   UNL     1       7.775  24.423  51.480  1.00  0.00    -0.266 OA
HETATM   14  N   UNL     1       7.805  25.420  53.530  1.00  0.00    -0.242 N 
HETATM   15  N   UNL     1       7.855  25.397  54.893  1.00  0.00    -0.166 NA
HETATM   16  H   UNL     1       7.833  26.334  53.090  1.00  0.00     0.192 HD
ENDBRANCH   1   5
BRANCH   2  17
HETATM   17  C   UNL     1       7.308  26.623  57.647  1.00  0.00     0.035 A 
HETATM   18  C   UNL     1       8.126  27.726  57.896  1.00  0.00     0.042 A 
HETATM   19  C   UNL     1       7.626  29.044  57.801  1.00  0.00    -0.021 A 
HETATM   20  C   UNL     1       6.298  29.234  57.392  1.00  0.00     0.012 A 
HETATM   21  C   UNL     1       5.485  28.144  57.098  1.00  0.00     0.003 A 
HETATM   22  C   UNL     1       5.987  26.852  57.232  1.00  0.00     0.029 A 
BRANCH  19  23
HETATM   23  C   UNL     1       8.440  30.207  58.152  1.00  0.00     0.010 A 
HETATM   24  C   UNL     1       8.118  31.367  58.906  1.00  0.00     0.152 A 
HETATM   25  N   UNL     1       9.147  32.206  59.045  1.00  0.00    -0.187 NA
HETATM   26  N   UNL     1      10.141  31.589  58.390  1.00  0.00    -0.289 N 
HETATM   27  H   UNL     1      11.051  32.037  58.364  1.00  0.00     0.188 HD
HETATM   28  C   UNL     1       9.770  30.396  57.837  1.00  0.00     0.123 A 
ENDBRANCH  19  23
ENDBRANCH   2  17
TORSDOF 3
ENDMDL
MODEL 3
REMARK VINA RESULT:      -9.2      1.946      2.964
REMARK  3 active torsions:
REMARK  status: ('A' for Active; 'I' for Inactive)
REMARK    1  A    between atoms: C_9  and  C_10 
REMARK       I    between atoms: C_10  and  N_11 
REMARK    2  A    between atoms: N_11  and  C_12 
REMARK    3  A    between atoms: C_14  and  C_15 
ROOT
HETATM    1  C   UNL     1       5.497  25.715  56.584  1.00  0.00     0.277 C 
HETATM    2  N   UNL     1       6.156  26.633  57.359  1.00  0.00    -0.322 N 
HETATM    3  O   UNL     1       4.715  24.931  57.122  1.00  0.00    -0.266 OA
HETATM    4  H   UNL     1       5.868  26.505  58.325  1.00  0.00     0.169 HD
ENDROOT
BRANCH   1   5
HETATM    5  C   UNL     1       5.624  25.621  55.083  1.00  0.00     0.156 A 
HETATM    6  C   UNL     1       6.523  24.592  54.509  1.00  0.00     0.016 A 
HETATM    7  C   UNL     1       7.209  23.650  55.286  1.00  0.00     0.015 A 
HETATM    8  C   UNL     1       6.735  24.628  53.132  1.00  0.00     0.046 A 
HETATM    9  C   UNL     1       8.119  22.775  54.684  1.00  0.00     0.001 A 
HETATM   10  C   UNL     1       8.339  22.827  53.308  1.00  0.00     0.001 A 
HETATM   11  C   UNL     1       7.642  23.748  52.528  1.00  0.00     0.018 A 
HETATM   12  C   UNL     1       6.010  25.621  52.323  1.00  0.00     0.272 A 
HETATM   13  O   UNL     1       6.123  25.658  51.102  1.00  0.00    -0.266 OA
HETATM   14  N   UNL     1       5.200  26.493  53.012  1.00  0.00    -0.242 N 
HETATM   15  N   UNL     1       5.030  26.532  54.365  1.00  0.00    -0.166 NA
HETATM   16  H   UNL     1       4.732  27.215  52.475  1.00  0.00     0.192 HD
ENDBRANCH   1   5
BRANCH   2  17
HETATM   17  C   UNL     1       7.165  27.593  57.169  1.00  0.00     0.035 A 
HETATM   18  C   UNL     1       7.658  28.481  58.127  1.00  0.00     0.042 A 
HETATM   19  C   UNL     1       8.598  29.479  57.784  1.00  0.00    -0.021 A 
HETATM   20  C   UNL     1       9.079  29.528  56.468  1.00  0.00     0.012 A 
HETATM   21  C   UNL     1       8.628  28.622  55.514  1.00  0.00     0.003 A 
HETATM   22  C   UNL     1       7.675  27.668  55.864  1.00  0.00     0.029 A 
BRANCH  19  23
HETATM   23  C   UNL     1       9.052  30.478  58.750  1.00  0.00     0.010 A 
HETATM   24  C   UNL     1       9.894  31.609  58.584  1.00  0.00     0.152 A 
HETATM   25  N   UNL     1      10.055  32.315  59.706  1.00  0.00    -0.187 NA
HETATM   26  N   UNL     1       9.309  31.650  60.600  1.00  0.00    -0.289 N 
HETATM   27  H   UNL     1       9.261  32.008  61.548  1.00  0.00     0.188 HD
HETATM   28  C   UNL     1       8.694  30.546  60.081  1.00  0.00     0.123 A 
ENDBRANCH  19  23
ENDBRANCH   2  17
TORSDOF 3
ENDMDL
MODEL 4
REMARK VINA RESULT:      -9.2      2.240      3.562
REMARK  3 active torsions:
REMARK  status: ('A' for Active; 'I' for Inactive)
REMARK    1  A    between atoms: C_9  and  C_10 
REMARK       I    between atoms: C_10  and  N_11 
REMARK    2  A    between atoms: N_11  and  C_12 
REMARK    3  A    between atoms: C_14  and  C_15 
ROOT
HETATM    1  C   UNL     1       6.233  24.922  53.661  1.00  0.00     0.277 C 
HETATM    2  N   UNL     1       6.055  26.281  53.677  1.00  0.00    -0.322 N 
HETATM    3  O   UNL     1       5.837  24.279  52.689  1.00  0.00    -0.266 OA
HETATM    4  H   UNL     1       5.590  26.554  52.817  1.00  0.00     0.169 HD
ENDROOT
BRANCH   1   5
HETATM    5  C   UNL     1       6.934  24.143  54.748  1.00  0.00     0.156 A 
HETATM    6  C   UNL     1       7.582  22.857  54.395  1.00  0.00     0.016 A 
HETATM    7  C   UNL     1       7.640  22.357  53.088  1.00  0.00     0.015 A 
HETATM    8  C   UNL     1       8.088  22.091  55.443  1.00  0.00     0.046 A 
HETATM    9  C   UNL     1       8.176  21.088  52.846  1.00  0.00     0.001 A 
HETATM   10  C   UNL     1       8.667  20.321  53.901  1.00  0.00     0.001 A 
HETATM   11  C   UNL     1       8.631  20.823  55.201  1.00  0.00     0.018 A 
HETATM   12  C   UNL     1       8.023  22.623  56.814  1.00  0.00     0.272 A 
HETATM   13  O   UNL     1       8.502  22.010  57.762  1.00  0.00    -0.266 OA
HETATM   14  N   UNL     1       7.404  23.842  56.965  1.00  0.00    -0.242 N 
HETATM   15  N   UNL     1       6.832  24.579  55.971  1.00  0.00    -0.166 NA
HETATM   16  H   UNL     1       7.306  24.199  57.909  1.00  0.00     0.192 HD
ENDBRANCH   1   5
BRANCH   2  17
HETATM   17  C   UNL     1       6.254  27.326  54.595  1.00  0.00     0.035 A 
HETATM   18  C   UNL     1       7.480  27.858  54.996  1.00  0.00     0.042 A 
HETATM   19  C   UNL     1       7.557  28.836  56.014  1.00  0.00    -0.021 A 
HETATM   20  C   UNL     1       6.367  29.311  56.582  1.00  0.00     0.012 A 
HETATM   21  C   UNL     1       5.134  28.820  56.162  1.00  0.00     0.003 A 
HETATM   22  C   UNL     1       5.083  27.832  55.182  1.00  0.00     0.029 A 
BRANCH  19  23
HETATM   23  C   UNL     1       8.838  29.333  56.513  1.00  0.00     0.010 A 
HETATM   24  C   UNL     1      10.058  29.591  55.835  1.00  0.00     0.152 A 
HETATM   25  N   UNL     1      11.011  30.079  56.633  1.00  0.00    -0.187 NA
HETATM   26  N   UNL     1      10.408  30.149  57.828  1.00  0.00    -0.289 N 
HETATM   27  H   UNL     1      10.939  30.509  58.614  1.00  0.00     0.188 HD
HETATM   28  C   UNL     1       9.114  29.713  57.811  1.00  0.00     0.123 A 
ENDBRANCH  19  23
ENDBRANCH   2  17
TORSDOF 3
ENDMDL
MODEL 5
REMARK VINA RESULT:      -9.0      3.297      7.705
REMARK  3 active torsions:
REMARK  status: ('A' for Active; 'I' for Inactive)
REMARK    1  A    between atoms: C_9  and  C_10 
REMARK       I    between atoms: C_10  and  N_11 
REMARK    2  A    between atoms: N_11  and  C_12 
REMARK    3  A    between atoms: C_14  and  C_15 
ROOT
HETATM    1  C   UNL     1       6.508  27.796  53.334  1.00  0.00     0.277 C 
HETATM    2  N   UNL     1       6.888  26.482  53.253  1.00  0.00    -0.322 N 
HETATM    3  O   UNL     1       6.540  28.490  52.318  1.00  0.00    -0.266 OA
HETATM    4  H   UNL     1       7.153  26.281  52.294  1.00  0.00     0.169 HD
ENDROOT
BRANCH   1   5
HETATM    5  C   UNL     1       5.999  28.459  54.591  1.00  0.00     0.156 A 
HETATM    6  C   UNL     1       6.983  28.935  55.591  1.00  0.00     0.016 A 
HETATM    7  C   UNL     1       8.369  28.867  55.401  1.00  0.00     0.015 A 
HETATM    8  C   UNL     1       6.481  29.404  56.804  1.00  0.00     0.046 A 
HETATM    9  C   UNL     1       9.237  29.241  56.432  1.00  0.00     0.001 A 
HETATM   10  C   UNL     1       8.728  29.695  57.649  1.00  0.00     0.001 A 
HETATM   11  C   UNL     1       7.350  29.785  57.835  1.00  0.00     0.018 A 
HETATM   12  C   UNL     1       5.023  29.472  56.996  1.00  0.00     0.272 A 
HETATM   13  O   UNL     1       4.534  29.927  58.025  1.00  0.00    -0.266 OA
HETATM   14  N   UNL     1       4.251  29.006  55.959  1.00  0.00    -0.242 N 
HETATM   15  N   UNL     1       4.712  28.471  54.792  1.00  0.00    -0.166 NA
HETATM   16  H   UNL     1       3.245  28.999  56.095  1.00  0.00     0.192 HD
ENDBRANCH   1   5
BRANCH   2  17
HETATM   17  C   UNL     1       7.092  25.421  54.153  1.00  0.00     0.035 A 
HETATM   18  C   UNL     1       7.617  24.164  53.850  1.00  0.00     0.042 A 
HETATM   19  C   UNL     1       7.670  23.139  54.821  1.00  0.00    -0.021 A 
HETATM   20  C   UNL     1       7.236  23.423  56.124  1.00  0.00     0.012 A 
HETATM   21  C   UNL     1       6.750  24.685  56.451  1.00  0.00     0.003 A 
HETATM   22  C   UNL     1       6.674  25.670  55.469  1.00  0.00     0.029 A 
BRANCH  19  23
HETATM   23  C   UNL     1       8.126  21.788  54.497  1.00  0.00     0.010 A 
HETATM   24  C   UNL     1       8.273  21.139  53.243  1.00  0.00     0.152 A 
HETATM   25  N   UNL     1       8.756  19.898  53.347  1.00  0.00    -0.187 NA
HETATM   26  N   UNL     1       8.933  19.744  54.667  1.00  0.00    -0.289 N 
HETATM   27  H   UNL     1       9.312  18.864  55.002  1.00  0.00     0.188 HD
HETATM   28  C   UNL     1       8.570  20.840  55.396  1.00  0.00     0.123 A 
ENDBRANCH  19  23
ENDBRANCH   2  17
TORSDOF 3
ENDMDL
MODEL 6
REMARK VINA RESULT:      -8.9      6.696     11.464
REMARK  3 active torsions:
REMARK  status: ('A' for Active; 'I' for Inactive)
REMARK    1  A    between atoms: C_9  and  C_10 
REMARK       I    between atoms: C_10  and  N_11 
REMARK    2  A    between atoms: N_11  and  C_12 
REMARK    3  A    between atoms: C_14  and  C_15 
ROOT
HETATM    1  C   UNL     1       3.629  34.215  64.017  1.00  0.00     0.277 C 
HETATM    2  N   UNL     1       4.362  33.102  63.698  1.00  0.00    -0.322 N 
HETATM    3  O   UNL     1       2.441  34.083  64.312  1.00  0.00    -0.266 OA
HETATM    4  H   UNL     1       3.758  32.289  63.764  1.00  0.00     0.169 HD
ENDROOT
BRANCH   1   5
HETATM    5  C   UNL     1       4.190  35.615  64.080  1.00  0.00     0.156 A 
HETATM    6  C   UNL     1       4.326  36.383  62.820  1.00  0.00     0.016 A 
HETATM    7  C   UNL     1       3.894  35.905  61.576  1.00  0.00     0.015 A 
HETATM    8  C   UNL     1       4.985  37.609  62.890  1.00  0.00     0.046 A 
HETATM    9  C   UNL     1       4.148  36.643  60.415  1.00  0.00     0.001 A 
HETATM   10  C   UNL     1       4.821  37.861  60.491  1.00  0.00     0.001 A 
HETATM   11  C   UNL     1       5.234  38.352  61.729  1.00  0.00     0.018 A 
HETATM   12  C   UNL     1       5.436  38.105  64.201  1.00  0.00     0.272 A 
HETATM   13  O   UNL     1       5.973  39.201  64.321  1.00  0.00    -0.266 OA
HETATM   14  N   UNL     1       5.215  37.273  65.274  1.00  0.00    -0.242 N 
HETATM   15  N   UNL     1       4.643  36.037  65.226  1.00  0.00    -0.166 NA
HETATM   16  H   UNL     1       5.565  37.578  66.177  1.00  0.00     0.192 HD
ENDBRANCH   1   5
BRANCH   2  17
HETATM   17  C   UNL     1       5.657  32.835  63.223  1.00  0.00     0.035 A 
HETATM   18  C   UNL     1       5.994  32.337  61.963  1.00  0.00     0.042 A 
HETATM   19  C   UNL     1       7.329  32.003  61.640  1.00  0.00    -0.021 A 
HETATM   20  C   UNL     1       8.331  32.237  62.593  1.00  0.00     0.012 A 
HETATM   21  C   UNL     1       8.015  32.773  63.837  1.00  0.00     0.003 A 
HETATM   22  C   UNL     1       6.689  33.062  64.148  1.00  0.00     0.029 A 
BRANCH  19  23
HETATM   23  C   UNL     1       7.685  31.390  60.362  1.00  0.00     0.010 A 
HETATM   24  C   UNL     1       8.719  30.475  60.032  1.00  0.00     0.152 A 
HETATM   25  N   UNL     1       8.708  30.109  58.748  1.00  0.00    -0.187 NA
HETATM   26  N   UNL     1       7.661  30.778  58.244  1.00  0.00    -0.289 N 
HETATM   27  H   UNL     1       7.436  30.651  57.263  1.00  0.00     0.188 HD
HETATM   28  C   UNL     1       7.020  31.558  59.164  1.00  0.00     0.123 A 
ENDBRANCH  19  23
ENDBRANCH   2  17
TORSDOF 3
ENDMDL
MODEL 7
REMARK VINA RESULT:      -8.8      3.630      8.314
REMARK  3 active torsions:
REMARK  status: ('A' for Active; 'I' for Inactive)
REMARK    1  A    between atoms: C_9  and  C_10 
REMARK       I    between atoms: C_10  and  N_11 
REMARK    2  A    between atoms: N_11  and  C_12 
REMARK    3  A    between atoms: C_14  and  C_15 
ROOT
HETATM    1  C   UNL     1       8.149  31.633  59.243  1.00  0.00     0.277 C 
HETATM    2  N   UNL     1       8.028  30.796  58.165  1.00  0.00    -0.322 N 
HETATM    3  O   UNL     1       9.061  32.460  59.257  1.00  0.00    -0.266 OA
HETATM    4  H   UNL     1       8.768  31.012  57.504  1.00  0.00     0.169 HD
ENDROOT
BRANCH   1   5
HETATM    5  C   UNL     1       7.201  31.651  60.418  1.00  0.00     0.156 A 
HETATM    6  C   UNL     1       5.923  32.391  60.288  1.00  0.00     0.016 A 
HETATM    7  C   UNL     1       5.513  33.019  59.105  1.00  0.00     0.015 A 
HETATM    8  C   UNL     1       5.141  32.516  61.435  1.00  0.00     0.046 A 
HETATM    9  C   UNL     1       4.343  33.785  59.088  1.00  0.00     0.001 A 
HETATM   10  C   UNL     1       3.574  33.919  60.242  1.00  0.00     0.001 A 
HETATM   11  C   UNL     1       3.966  33.278  61.417  1.00  0.00     0.018 A 
HETATM   12  C   UNL     1       5.579  31.854  62.675  1.00  0.00     0.272 A 
HETATM   13  O   UNL     1       4.899  31.890  63.695  1.00  0.00    -0.266 OA
HETATM   14  N   UNL     1       6.783  31.192  62.618  1.00  0.00    -0.242 N 
HETATM   15  N   UNL     1       7.607  31.116  61.534  1.00  0.00    -0.166 NA
HETATM   16  H   UNL     1       7.124  30.772  63.477  1.00  0.00     0.192 HD
ENDBRANCH   1   5
BRANCH   2  17
HETATM   17  C   UNL     1       7.232  29.691  57.815  1.00  0.00     0.035 A 
HETATM   18  C   UNL     1       7.636  28.356  57.774  1.00  0.00     0.042 A 
HETATM   19  C   UNL     1       6.772  27.344  57.297  1.00  0.00    -0.021 A 
HETATM   20  C   UNL     1       5.470  27.695  56.916  1.00  0.00     0.012 A 
HETATM   21  C   UNL     1       5.040  29.016  56.992  1.00  0.00     0.003 A 
HETATM   22  C   UNL     1       5.918  30.003  57.432  1.00  0.00     0.029 A 
BRANCH  19  23
HETATM   23  C   UNL     1       7.211  25.956  57.156  1.00  0.00     0.010 A 
HETATM   24  C   UNL     1       6.653  24.882  56.414  1.00  0.00     0.152 A 
HETATM   25  N   UNL     1       7.365  23.755  56.505  1.00  0.00    -0.187 NA
HETATM   26  N   UNL     1       8.389  24.099  57.297  1.00  0.00    -0.289 N 
HETATM   27  H   UNL     1       9.090  23.396  57.509  1.00  0.00     0.188 HD
HETATM   28  C   UNL     1       8.343  25.399  57.715  1.00  0.00     0.123 A 
ENDBRANCH  19  23
ENDBRANCH   2  17
TORSDOF 3
ENDMDL
MODEL 8
REMARK VINA RESULT:      -8.8      5.866     11.102
REMARK  3 active torsions:
REMARK  status: ('A' for Active; 'I' for Inactive)
REMARK    1  A    between atoms: C_9  and  C_10 
REMARK       I    between atoms: C_10  and  N_11 
REMARK    2  A    between atoms: N_11  and  C_12 
REMARK    3  A    between atoms: C_14  and  C_15 
ROOT
HETATM    1  C   UNL     1       4.227  33.031  62.488  1.00  0.00     0.277 C 
HETATM    2  N   UNL     1       5.122  32.066  62.106  1.00  0.00    -0.322 N 
HETATM    3  O   UNL     1       3.032  32.743  62.559  1.00  0.00    -0.266 OA
HETATM    4  H   UNL     1       4.612  31.205  61.932  1.00  0.00     0.169 HD
ENDROOT
BRANCH   1   5
HETATM    5  C   UNL     1       4.608  34.437  62.882  1.00  0.00     0.156 A 
HETATM    6  C   UNL     1       4.635  34.789  64.321  1.00  0.00     0.016 A 
HETATM    7  C   UNL     1       4.393  33.864  65.345  1.00  0.00     0.015 A 
HETATM    8  C   UNL     1       4.842  36.129  64.645  1.00  0.00     0.046 A 
HETATM    9  C   UNL     1       4.334  34.292  66.676  1.00  0.00     0.001 A 
HETATM   10  C   UNL     1       4.527  35.636  66.991  1.00  0.00     0.001 A 
HETATM   11  C   UNL     1       4.789  36.557  65.978  1.00  0.00     0.018 A 
HETATM   12  C   UNL     1       5.096  37.095  63.564  1.00  0.00     0.272 A 
HETATM   13  O   UNL     1       5.336  38.274  63.802  1.00  0.00    -0.266 OA
HETATM   14  N   UNL     1       5.053  36.598  62.282  1.00  0.00    -0.242 N 
HETATM   15  N   UNL     1       4.778  35.310  61.930  1.00  0.00    -0.166 NA
HETATM   16  H   UNL     1       5.176  37.260  61.523  1.00  0.00     0.192 HD
ENDBRANCH   1   5
BRANCH   2  17
HETATM   17  C   UNL     1       6.494  32.007  61.809  1.00  0.00     0.035 A 
HETATM   18  C   UNL     1       7.065  31.647  60.587  1.00  0.00     0.042 A 
HETATM   19  C   UNL     1       8.465  31.517  60.443  1.00  0.00    -0.021 A 
HETATM   20  C   UNL     1       9.286  31.813  61.541  1.00  0.00     0.012 A 
HETATM   21  C   UNL     1       8.732  32.214  62.752  1.00  0.00     0.003 A 
HETATM   22  C   UNL     1       7.349  32.303  62.883  1.00  0.00     0.029 A 
BRANCH  19  23
HETATM   23  C   UNL     1       9.074  31.047  59.200  1.00  0.00     0.010 A 
HETATM   24  C   UNL     1      10.195  31.535  58.478  1.00  0.00     0.152 A 
HETATM   25  N   UNL     1      10.474  30.814  57.389  1.00  0.00    -0.187 NA
HETATM   26  N   UNL     1       9.542  29.851  57.408  1.00  0.00    -0.289 N 
HETATM   27  H   UNL     1       9.555  29.154  56.670  1.00  0.00     0.188 HD
HETATM   28  C   UNL     1       8.682  29.947  58.465  1.00  0.00     0.123 A 
ENDBRANCH  19  23
ENDBRANCH   2  17
TORSDOF 3
ENDMDL
MODEL 9
REMARK VINA RESULT:      -8.8      8.042     11.151
REMARK  3 active torsions:
REMARK  status: ('A' for Active; 'I' for Inactive)
REMARK    1  A    between atoms: C_9  and  C_10 
REMARK       I    between atoms: C_10  and  N_11 
REMARK    2  A    between atoms: N_11  and  C_12 
REMARK    3  A    between atoms: C_14  and  C_15 
ROOT
HETATM    1  C   UNL     1       2.813  34.255  63.129  1.00  0.00     0.277 C 
HETATM    2  N   UNL     1       2.671  35.595  62.876  1.00  0.00    -0.322 N 
HETATM    3  O   UNL     1       1.908  33.659  63.713  1.00  0.00    -0.266 OA
HETATM    4  H   UNL     1       1.772  35.897  63.240  1.00  0.00     0.169 HD
ENDROOT
BRANCH   1   5
HETATM    5  C   UNL     1       3.999  33.429  62.696  1.00  0.00     0.156 A 
HETATM    6  C   UNL     1       5.204  33.410  63.559  1.00  0.00     0.016 A 
HETATM    7  C   UNL     1       5.277  34.063  64.796  1.00  0.00     0.015 A 
HETATM    8  C   UNL     1       6.333  32.762  63.060  1.00  0.00     0.046 A 
HETATM    9  C   UNL     1       6.481  34.086  65.506  1.00  0.00     0.001 A 
HETATM   10  C   UNL     1       7.611  33.449  64.995  1.00  0.00     0.001 A 
HETATM   11  C   UNL     1       7.538  32.779  63.774  1.00  0.00     0.018 A 
HETATM   12  C   UNL     1       6.250  32.078  61.759  1.00  0.00     0.272 A 
HETATM   13  O   UNL     1       7.200  31.450  61.304  1.00  0.00    -0.266 OA
HETATM   14  N   UNL     1       5.050  32.179  61.095  1.00  0.00    -0.242 N 
HETATM   15  N   UNL     1       3.953  32.868  61.521  1.00  0.00    -0.166 NA
HETATM   16  H   UNL     1       4.991  31.755  60.175  1.00  0.00     0.192 HD
ENDBRANCH   1   5
BRANCH   2  17
HETATM   17  C   UNL     1       3.471  36.626  62.356  1.00  0.00     0.035 A 
HETATM   18  C   UNL     1       4.479  37.317  63.030  1.00  0.00     0.042 A 
HETATM   19  C   UNL     1       5.141  38.413  62.434  1.00  0.00    -0.021 A 
HETATM   20  C   UNL     1       4.809  38.766  61.118  1.00  0.00     0.012 A 
HETATM   21  C   UNL     1       3.837  38.058  60.418  1.00  0.00     0.003 A 
HETATM   22  C   UNL     1       3.172  37.003  61.037  1.00  0.00     0.029 A 
BRANCH  19  23
HETATM   23  C   UNL     1       6.129  39.209  63.161  1.00  0.00     0.010 A 
HETATM   24  C   UNL     1       7.249  39.945  62.692  1.00  0.00     0.152 A 
HETATM   25  N   UNL     1       7.906  40.581  63.666  1.00  0.00    -0.187 NA
HETATM   26  N   UNL     1       7.207  40.267  64.766  1.00  0.00    -0.289 N 
HETATM   27  H   UNL     1       7.512  40.652  65.654  1.00  0.00     0.188 HD
HETATM   28  C   UNL     1       6.141  39.450  64.519  1.00  0.00     0.123 A 
ENDBRANCH  19  23
ENDBRANCH   2  17
TORSDOF 3
ENDMDL
MODEL 10
REMARK VINA RESULT:      -8.8      7.666     10.228
REMARK  3 active torsions:
REMARK  status: ('A' for Active; 'I' for Inactive)
REMARK    1  A    between atoms: C_9  and  C_10 
REMARK       I    between atoms: C_10  and  N_11 
REMARK    2  A    between atoms: N_11  and  C_12 
REMARK    3  A    between atoms: C_14  and  C_15 
ROOT
HETATM    1  C   UNL     1       2.725  34.021  63.336  1.00  0.00     0.277 C 
HETATM    2  N   UNL     1       3.716  33.426  64.072  1.00  0.00    -0.322 N 
HETATM    3  O   UNL     1       1.550  33.795  63.624  1.00  0.00    -0.266 OA
HETATM    4  H   UNL     1       3.283  32.853  64.790  1.00  0.00     0.169 HD
ENDROOT
BRANCH   1   5
HETATM    5  C   UNL     1       2.971  34.989  62.204  1.00  0.00     0.156 A 
HETATM    6  C   UNL     1       3.265  34.446  60.856  1.00  0.00     0.016 A 
HETATM    7  C   UNL     1       3.257  33.077  60.559  1.00  0.00     0.015 A 
HETATM    8  C   UNL     1       3.635  35.359  59.870  1.00  0.00     0.046 A 
HETATM    9  C   UNL     1       3.645  32.634  59.290  1.00  0.00     0.001 A 
HETATM   10  C   UNL     1       4.028  33.551  58.312  1.00  0.00     0.001 A 
HETATM   11  C   UNL     1       4.017  34.916  58.597  1.00  0.00     0.018 A 
HETATM   12  C   UNL     1       3.641  36.795  60.190  1.00  0.00     0.272 A 
HETATM   13  O   UNL     1       3.908  37.639  59.341  1.00  0.00    -0.266 OA
HETATM   14  N   UNL     1       3.326  37.130  61.486  1.00  0.00    -0.242 N 
HETATM   15  N   UNL     1       3.034  36.258  62.492  1.00  0.00    -0.166 NA
HETATM   16  H   UNL     1       3.374  38.113  61.737  1.00  0.00     0.192 HD
ENDBRANCH   1   5
BRANCH   2  17
HETATM   17  C   UNL     1       5.117  33.335  64.013  1.00  0.00     0.035 A 
HETATM   18  C   UNL     1       5.873  32.827  62.955  1.00  0.00     0.042 A 
HETATM   19  C   UNL     1       7.275  32.684  63.060  1.00  0.00    -0.021 A 
HETATM   20  C   UNL     1       7.911  33.119  64.231  1.00  0.00     0.012 A 
HETATM   21  C   UNL     1       7.175  33.667  65.276  1.00  0.00     0.003 A 
HETATM   22  C   UNL     1       5.790  33.767  65.167  1.00  0.00     0.029 A 
BRANCH  19  23
HETATM   23  C   UNL     1       8.071  32.064  62.001  1.00  0.00     0.010 A 
HETATM   24  C   UNL     1       8.434  32.546  60.716  1.00  0.00     0.152 A 
HETATM   25  N   UNL     1       9.208  31.696  60.036  1.00  0.00    -0.187 NA
HETATM   26  N   UNL     1       9.357  30.667  60.881  1.00  0.00    -0.289 N 
HETATM   27  H   UNL     1       9.929  29.882  60.588  1.00  0.00     0.188 HD
HETATM   28  C   UNL     1       8.696  30.836  62.065  1.00  0.00     0.123 A 
ENDBRANCH  19  23
ENDBRANCH   2  17
TORSDOF 3
ENDMDL
