MODEL 1
REMARK VINA RESULT:      -8.7      0.000      0.000
REMARK  5 active torsions:
REMARK  status: ('A' for Active; 'I' for Inactive)
REMARK    1  A    between atoms: C_2  and  N_3 
REMARK    2  A    between atoms: C_2  and  C_21 
REMARK       I    between atoms: N_3  and  C_5 
REMARK       I    between atoms: C_5  and  N_6 
REMARK    3  A    between atoms: N_6  and  C_7 
REMARK    4  A    between atoms: C_7  and  C_8 
REMARK    5  A    between atoms: C_10  and  C_11 
ROOT
HETATM    1  N   UNL     1       6.429  30.501  57.767  1.00  0.00    -0.218 N 
HETATM    2  H   UNL     1       6.234  31.476  57.595  1.00  0.00     0.178 HD
HETATM    3  C   UNL     1       5.651  29.620  57.095  1.00  0.00     0.670 C 
HETATM    4  N   UNL     1       5.685  28.299  57.397  1.00  0.00    -0.221 N 
HETATM    5  N   UNL     1       4.838  30.077  56.116  1.00  0.00    -0.231 N 
HETATM    6  C   UNL     1       4.826  31.425  55.561  1.00  0.00     0.165 C 
HETATM    7  H   UNL     1       6.092  28.047  58.286  1.00  0.00     0.178 HD
HETATM    8  H   UNL     1       4.057  29.460  55.888  1.00  0.00     0.177 HD
ENDROOT
BRANCH   4   9
HETATM    9  C   UNL     1       5.131  27.217  56.568  1.00  0.00     0.199 C 
BRANCH   9  10
HETATM   10  C   UNL     1       6.055  26.058  56.528  1.00  0.00     0.077 A 
HETATM   11  N   UNL     1       6.073  25.200  55.444  1.00  0.00    -0.225 NA
HETATM   12  C   UNL     1       6.984  24.294  55.768  1.00  0.00     0.179 A 
HETATM   13  O   UNL     1       7.607  24.540  56.962  1.00  0.00    -0.301 OA
HETATM   14  C   UNL     1       7.005  25.664  57.439  1.00  0.00     0.173 A 
BRANCH  12  15
HETATM   15  C   UNL     1       7.374  23.083  55.055  1.00  0.00     0.017 A 
HETATM   16  C   UNL     1       7.499  23.111  53.657  1.00  0.00     0.016 A 
HETATM   17  C   UNL     1       7.855  21.961  52.949  1.00  0.00     0.001 A 
HETATM   18  C   UNL     1       8.101  20.772  53.632  1.00  0.00     0.000 A 
HETATM   19  C   UNL     1       7.988  20.730  55.020  1.00  0.00     0.001 A 
HETATM   20  C   UNL     1       7.623  21.878  55.728  1.00  0.00     0.016 A 
ENDBRANCH  12  15
ENDBRANCH   9  10
ENDBRANCH   4   9
BRANCH   1  21
HETATM   21  C   UNL     1       7.515  30.239  58.733  1.00  0.00     0.135 C 
HETATM   22  C   UNL     1       7.531  31.229  59.895  1.00  0.00     0.038 C 
BRANCH  21  23
HETATM   23  C   UNL     1       8.858  30.113  58.053  1.00  0.00     0.005 A 
HETATM   24  S   UNL     1       9.239  28.836  56.966  1.00  0.00    -0.104 SA
HETATM   25  C   UNL     1      10.827  29.408  56.723  1.00  0.00     0.050 A 
HETATM   26  C   UNL     1      11.083  30.543  57.455  1.00  0.00     0.008 A 
HETATM   27  C   UNL     1       9.952  30.945  58.225  1.00  0.00     0.017 A 
ENDBRANCH  21  23
ENDBRANCH   1  21
TORSDOF 5
ENDMDL
MODEL 2
REMARK VINA RESULT:      -8.6      2.339      3.309
REMARK  5 active torsions:
REMARK  status: ('A' for Active; 'I' for Inactive)
REMARK    1  A    between atoms: C_2  and  N_3 
REMARK    2  A    between atoms: C_2  and  C_21 
REMARK       I    between atoms: N_3  and  C_5 
REMARK       I    between atoms: C_5  and  N_6 
REMARK    3  A    between atoms: N_6  and  C_7 
REMARK    4  A    between atoms: C_7  and  C_8 
REMARK    5  A    between atoms: C_10  and  C_11 
ROOT
HETATM    1  N   UNL     1       8.804  28.440  57.307  1.00  0.00    -0.218 N 
HETATM    2  H   UNL     1       9.050  28.014  58.188  1.00  0.00     0.178 HD
HETATM    3  C   UNL     1       8.083  27.667  56.461  1.00  0.00     0.670 C 
HETATM    4  N   UNL     1       7.871  28.055  55.181  1.00  0.00    -0.221 N 
HETATM    5  N   UNL     1       7.577  26.496  56.914  1.00  0.00    -0.231 N 
HETATM    6  C   UNL     1       7.567  26.037  58.297  1.00  0.00     0.165 C 
HETATM    7  H   UNL     1       8.475  28.780  54.821  1.00  0.00     0.178 HD
HETATM    8  H   UNL     1       7.351  25.820  56.183  1.00  0.00     0.177 HD
ENDROOT
BRANCH   4   9
HETATM    9  C   UNL     1       6.881  27.473  54.262  1.00  0.00     0.199 C 
BRANCH   9  10
HETATM   10  C   UNL     1       7.377  26.198  53.691  1.00  0.00     0.077 A 
HETATM   11  N   UNL     1       7.334  25.025  54.423  1.00  0.00    -0.225 NA
HETATM   12  C   UNL     1       7.871  24.123  53.616  1.00  0.00     0.179 A 
HETATM   13  O   UNL     1       8.203  24.615  52.382  1.00  0.00    -0.301 OA
HETATM   14  C   UNL     1       7.887  25.937  52.442  1.00  0.00     0.173 A 
BRANCH  12  15
HETATM   15  C   UNL     1       8.180  22.722  53.875  1.00  0.00     0.017 A 
HETATM   16  C   UNL     1       7.902  21.757  52.893  1.00  0.00     0.016 A 
HETATM   17  C   UNL     1       8.173  20.407  53.121  1.00  0.00     0.001 A 
HETATM   18  C   UNL     1       8.734  20.005  54.331  1.00  0.00     0.000 A 
HETATM   19  C   UNL     1       9.022  20.951  55.314  1.00  0.00     0.001 A 
HETATM   20  C   UNL     1       8.743  22.301  55.089  1.00  0.00     0.016 A 
ENDBRANCH  12  15
ENDBRANCH   9  10
ENDBRANCH   4   9
BRANCH   1  21
HETATM   21  C   UNL     1       9.299  29.819  57.117  1.00  0.00     0.135 C 
HETATM   22  C   UNL     1      10.799  29.882  56.840  1.00  0.00     0.038 C 
BRANCH  21  23
HETATM   23  C   UNL     1       8.872  30.732  58.241  1.00  0.00     0.005 A 
HETATM   24  S   UNL     1       7.224  31.068  58.600  1.00  0.00    -0.104 SA
HETATM   25  C   UNL     1       7.631  32.120  59.878  1.00  0.00     0.050 A 
HETATM   26  C   UNL     1       8.993  32.233  60.037  1.00  0.00     0.008 A 
HETATM   27  C   UNL     1       9.706  31.440  59.092  1.00  0.00     0.017 A 
ENDBRANCH  21  23
ENDBRANCH   1  21
TORSDOF 5
ENDMDL
MODEL 3
REMARK VINA RESULT:      -8.4      1.248      1.724
REMARK  5 active torsions:
REMARK  status: ('A' for Active; 'I' for Inactive)
REMARK    1  A    between atoms: C_2  and  N_3 
REMARK    2  A    between atoms: C_2  and  C_21 
REMARK       I    between atoms: N_3  and  C_5 
REMARK       I    between atoms: C_5  and  N_6 
REMARK    3  A    between atoms: N_6  and  C_7 
REMARK    4  A    between atoms: C_7  and  C_8 
REMARK    5  A    between atoms: C_10  and  C_11 
ROOT
HETATM    1  N   UNL     1       6.598  30.910  58.350  1.00  0.00    -0.218 N 
HETATM    2  H   UNL     1       6.536  31.915  58.420  1.00  0.00     0.178 HD
HETATM    3  C   UNL     1       5.642  30.314  57.599  1.00  0.00     0.670 C 
HETATM    4  N   UNL     1       5.504  28.966  57.599  1.00  0.00    -0.221 N 
HETATM    5  N   UNL     1       4.824  31.085  56.846  1.00  0.00    -0.231 N 
HETATM    6  C   UNL     1       4.966  32.516  56.605  1.00  0.00     0.165 C 
HETATM    7  H   UNL     1       5.944  28.465  58.357  1.00  0.00     0.178 HD
HETATM    8  H   UNL     1       3.943  30.641  56.583  1.00  0.00     0.177 HD
ENDROOT
BRANCH   4   9
HETATM    9  C   UNL     1       4.726  28.185  56.626  1.00  0.00     0.199 C 
BRANCH   9  10
HETATM   10  C   UNL     1       5.622  27.414  55.731  1.00  0.00     0.077 A 
HETATM   11  N   UNL     1       5.628  26.031  55.748  1.00  0.00    -0.225 NA
HETATM   12  C   UNL     1       6.549  25.704  54.855  1.00  0.00     0.179 A 
HETATM   13  O   UNL     1       7.099  26.778  54.209  1.00  0.00    -0.301 OA
HETATM   14  C   UNL     1       6.503  27.862  54.777  1.00  0.00     0.173 A 
BRANCH  12  15
HETATM   15  C   UNL     1       7.065  24.385  54.504  1.00  0.00     0.017 A 
HETATM   16  C   UNL     1       7.228  23.415  55.505  1.00  0.00     0.016 A 
HETATM   17  C   UNL     1       7.735  22.151  55.198  1.00  0.00     0.001 A 
HETATM   18  C   UNL     1       8.076  21.838  53.885  1.00  0.00     0.000 A 
HETATM   19  C   UNL     1       7.914  22.788  52.878  1.00  0.00     0.001 A 
HETATM   20  C   UNL     1       7.415  24.056  53.186  1.00  0.00     0.016 A 
ENDBRANCH  12  15
ENDBRANCH   9  10
ENDBRANCH   4   9
BRANCH   1  21
HETATM   21  C   UNL     1       7.712  30.296  59.101  1.00  0.00     0.135 C 
HETATM   22  C   UNL     1       7.992  30.994  60.430  1.00  0.00     0.038 C 
BRANCH  21  23
HETATM   23  C   UNL     1       8.949  30.141  58.249  1.00  0.00     0.005 A 
HETATM   24  S   UNL     1       9.174  28.834  57.156  1.00  0.00    -0.104 SA
HETATM   25  C   UNL     1      10.717  29.386  56.684  1.00  0.00     0.050 A 
HETATM   26  C   UNL     1      11.074  30.538  57.344  1.00  0.00     0.008 A 
HETATM   27  C   UNL     1      10.061  30.969  58.248  1.00  0.00     0.017 A 
ENDBRANCH  21  23
ENDBRANCH   1  21
TORSDOF 5
ENDMDL
MODEL 4
REMARK VINA RESULT:      -8.3      2.048      3.225
REMARK  5 active torsions:
REMARK  status: ('A' for Active; 'I' for Inactive)
REMARK    1  A    between atoms: C_2  and  N_3 
REMARK    2  A    between atoms: C_2  and  C_21 
REMARK       I    between atoms: N_3  and  C_5 
REMARK       I    between atoms: C_5  and  N_6 
REMARK    3  A    between atoms: N_6  and  C_7 
REMARK    4  A    between atoms: C_7  and  C_8 
REMARK    5  A    between atoms: C_10  and  C_11 
ROOT
HETATM    1  N   UNL     1       8.451  30.320  57.757  1.00  0.00    -0.218 N 
HETATM    2  H   UNL     1       9.339  30.678  58.076  1.00  0.00     0.178 HD
HETATM    3  C   UNL     1       8.466  29.699  56.555  1.00  0.00     0.670 C 
HETATM    4  N   UNL     1       7.309  29.362  55.937  1.00  0.00    -0.221 N 
HETATM    5  N   UNL     1       9.657  29.419  55.976  1.00  0.00    -0.231 N 
HETATM    6  C   UNL     1      10.971  29.555  56.593  1.00  0.00     0.165 C 
HETATM    7  H   UNL     1       6.469  29.816  56.267  1.00  0.00     0.178 HD
HETATM    8  H   UNL     1       9.616  29.274  54.966  1.00  0.00     0.177 HD
ENDROOT
BRANCH   4   9
HETATM    9  C   UNL     1       7.183  28.439  54.798  1.00  0.00     0.199 C 
BRANCH   9  10
HETATM   10  C   UNL     1       7.203  27.029  55.257  1.00  0.00     0.077 A 
HETATM   11  N   UNL     1       7.570  26.007  54.401  1.00  0.00    -0.225 NA
HETATM   12  C   UNL     1       7.448  24.913  55.136  1.00  0.00     0.179 A 
HETATM   13  O   UNL     1       7.089  25.158  56.435  1.00  0.00    -0.301 OA
HETATM   14  C   UNL     1       6.933  26.508  56.499  1.00  0.00     0.173 A 
BRANCH  12  15
HETATM   15  C   UNL     1       7.607  23.517  54.746  1.00  0.00     0.017 A 
HETATM   16  C   UNL     1       7.649  22.520  55.735  1.00  0.00     0.016 A 
HETATM   17  C   UNL     1       7.817  21.178  55.389  1.00  0.00     0.001 A 
HETATM   18  C   UNL     1       7.935  20.815  54.049  1.00  0.00     0.000 A 
HETATM   19  C   UNL     1       7.888  21.791  53.056  1.00  0.00     0.001 A 
HETATM   20  C   UNL     1       7.729  23.135  53.402  1.00  0.00     0.016 A 
ENDBRANCH  12  15
ENDBRANCH   9  10
ENDBRANCH   4   9
BRANCH   1  21
HETATM   21  C   UNL     1       7.312  30.566  58.666  1.00  0.00     0.135 C 
HETATM   22  C   UNL     1       6.252  31.481  58.059  1.00  0.00     0.038 C 
BRANCH  21  23
HETATM   23  C   UNL     1       7.768  31.023  60.031  1.00  0.00     0.005 A 
HETATM   24  S   UNL     1       6.911  32.187  60.962  1.00  0.00    -0.104 SA
HETATM   25  C   UNL     1       8.050  32.131  62.231  1.00  0.00     0.050 A 
HETATM   26  C   UNL     1       9.075  31.255  61.963  1.00  0.00     0.008 A 
HETATM   27  C   UNL     1       8.916  30.622  60.695  1.00  0.00     0.017 A 
ENDBRANCH  21  23
ENDBRANCH   1  21
TORSDOF 5
ENDMDL
MODEL 5
REMARK VINA RESULT:      -8.3      3.734      9.416
REMARK  5 active torsions:
REMARK  status: ('A' for Active; 'I' for Inactive)
REMARK    1  A    between atoms: C_2  and  N_3 
REMARK    2  A    between atoms: C_2  and  C_21 
REMARK       I    between atoms: N_3  and  C_5 
REMARK       I    between atoms: C_5  and  N_6 
REMARK    3  A    between atoms: N_6  and  C_7 
REMARK    4  A    between atoms: C_7  and  C_8 
REMARK    5  A    between atoms: C_10  and  C_11 
ROOT
HETATM    1  N   UNL     1       8.692  27.961  57.175  1.00  0.00    -0.218 N 
HETATM    2  H   UNL     1       9.585  27.602  56.871  1.00  0.00     0.178 HD
HETATM    3  C   UNL     1       8.713  29.202  57.717  1.00  0.00     0.670 C 
HETATM    4  N   UNL     1       7.618  29.701  58.340  1.00  0.00    -0.221 N 
HETATM    5  N   UNL     1       9.844  29.938  57.628  1.00  0.00    -0.231 N 
HETATM    6  C   UNL     1      11.027  29.612  56.841  1.00  0.00     0.165 C 
HETATM    7  H   UNL     1       6.908  29.036  58.612  1.00  0.00     0.178 HD
HETATM    8  H   UNL     1       9.920  30.686  58.319  1.00  0.00     0.177 HD
ENDROOT
BRANCH   4   9
HETATM    9  C   UNL     1       7.407  31.110  58.702  1.00  0.00     0.199 C 
BRANCH   9  10
HETATM   10  C   UNL     1       7.612  31.319  60.156  1.00  0.00     0.077 A 
HETATM   11  N   UNL     1       6.676  31.993  60.918  1.00  0.00    -0.225 NA
HETATM   12  C   UNL     1       7.200  32.005  62.134  1.00  0.00     0.179 A 
HETATM   13  O   UNL     1       8.385  31.327  62.230  1.00  0.00    -0.301 OA
HETATM   14  C   UNL     1       8.640  30.897  60.964  1.00  0.00     0.173 A 
BRANCH  12  15
HETATM   15  C   UNL     1       6.710  32.658  63.342  1.00  0.00     0.017 A 
HETATM   16  C   UNL     1       7.627  33.123  64.299  1.00  0.00     0.016 A 
HETATM   17  C   UNL     1       7.184  33.737  65.473  1.00  0.00     0.001 A 
HETATM   18  C   UNL     1       5.819  33.902  65.699  1.00  0.00     0.000 A 
HETATM   19  C   UNL     1       4.897  33.452  64.756  1.00  0.00     0.001 A 
HETATM   20  C   UNL     1       5.340  32.830  63.586  1.00  0.00     0.016 A 
ENDBRANCH  12  15
ENDBRANCH   9  10
ENDBRANCH   4   9
BRANCH   1  21
HETATM   21  C   UNL     1       7.549  27.047  56.980  1.00  0.00     0.135 C 
HETATM   22  C   UNL     1       7.620  25.805  57.865  1.00  0.00     0.038 C 
BRANCH  21  23
HETATM   23  C   UNL     1       7.332  26.716  55.522  1.00  0.00     0.005 A 
HETATM   24  S   UNL     1       7.448  27.889  54.270  1.00  0.00    -0.104 SA
HETATM   25  C   UNL     1       7.057  26.754  53.059  1.00  0.00     0.050 A 
HETATM   26  C   UNL     1       6.830  25.503  53.581  1.00  0.00     0.008 A 
HETATM   27  C   UNL     1       6.982  25.483  54.998  1.00  0.00     0.017 A 
ENDBRANCH  21  23
ENDBRANCH   1  21
TORSDOF 5
ENDMDL
MODEL 6
REMARK VINA RESULT:      -8.2      2.089      2.807
REMARK  5 active torsions:
REMARK  status: ('A' for Active; 'I' for Inactive)
REMARK    1  A    between atoms: C_2  and  N_3 
REMARK    2  A    between atoms: C_2  and  C_21 
REMARK       I    between atoms: N_3  and  C_5 
REMARK       I    between atoms: C_5  and  N_6 
REMARK    3  A    between atoms: N_6  and  C_7 
REMARK    4  A    between atoms: C_7  and  C_8 
REMARK    5  A    between atoms: C_10  and  C_11 
ROOT
HETATM    1  N   UNL     1       6.713  29.893  56.735  1.00  0.00    -0.218 N 
HETATM    2  H   UNL     1       6.051  30.548  57.124  1.00  0.00     0.178 HD
HETATM    3  C   UNL     1       6.375  29.359  55.538  1.00  0.00     0.670 C 
HETATM    4  N   UNL     1       7.080  28.325  55.019  1.00  0.00    -0.221 N 
HETATM    5  N   UNL     1       5.320  29.873  54.865  1.00  0.00    -0.231 N 
HETATM    6  C   UNL     1       4.586  31.086  55.204  1.00  0.00     0.165 C 
HETATM    7  H   UNL     1       7.672  27.813  55.658  1.00  0.00     0.178 HD
HETATM    8  H   UNL     1       4.911  29.245  54.171  1.00  0.00     0.177 HD
ENDROOT
BRANCH   4   9
HETATM    9  C   UNL     1       7.012  27.854  53.627  1.00  0.00     0.199 C 
BRANCH   9  10
HETATM   10  C   UNL     1       6.670  26.413  53.574  1.00  0.00     0.077 A 
HETATM   11  N   UNL     1       7.552  25.453  54.037  1.00  0.00    -0.225 NA
HETATM   12  C   UNL     1       6.929  24.308  53.809  1.00  0.00     0.179 A 
HETATM   13  O   UNL     1       5.671  24.457  53.288  1.00  0.00    -0.301 OA
HETATM   14  C   UNL     1       5.519  25.802  53.139  1.00  0.00     0.173 A 
BRANCH  12  15
HETATM   15  C   UNL     1       7.407  22.943  54.003  1.00  0.00     0.017 A 
HETATM   16  C   UNL     1       7.483  22.413  55.300  1.00  0.00     0.016 A 
HETATM   17  C   UNL     1       7.952  21.115  55.515  1.00  0.00     0.001 A 
HETATM   18  C   UNL     1       8.341  20.329  54.433  1.00  0.00     0.000 A 
HETATM   19  C   UNL     1       8.265  20.838  53.138  1.00  0.00     0.001 A 
HETATM   20  C   UNL     1       7.804  22.140  52.924  1.00  0.00     0.016 A 
ENDBRANCH  12  15
ENDBRANCH   9  10
ENDBRANCH   4   9
BRANCH   1  21
HETATM   21  C   UNL     1       7.908  29.640  57.566  1.00  0.00     0.135 C 
HETATM   22  C   UNL     1       7.977  28.208  58.091  1.00  0.00     0.038 C 
BRANCH  21  23
HETATM   23  C   UNL     1       8.067  30.673  58.656  1.00  0.00     0.005 A 
HETATM   24  S   UNL     1       6.807  31.749  59.115  1.00  0.00    -0.104 SA
HETATM   25  C   UNL     1       7.780  32.518  60.286  1.00  0.00     0.050 A 
HETATM   26  C   UNL     1       9.047  31.985  60.332  1.00  0.00     0.008 A 
HETATM   27  C   UNL     1       9.214  30.928  59.391  1.00  0.00     0.017 A 
ENDBRANCH  21  23
ENDBRANCH   1  21
TORSDOF 5
ENDMDL
MODEL 7
REMARK VINA RESULT:      -8.2      4.398      6.207
REMARK  5 active torsions:
REMARK  status: ('A' for Active; 'I' for Inactive)
REMARK    1  A    between atoms: C_2  and  N_3 
REMARK    2  A    between atoms: C_2  and  C_21 
REMARK       I    between atoms: N_3  and  C_5 
REMARK       I    between atoms: C_5  and  N_6 
REMARK    3  A    between atoms: N_6  and  C_7 
REMARK    4  A    between atoms: C_7  and  C_8 
REMARK    5  A    between atoms: C_10  and  C_11 
ROOT
HETATM    1  N   UNL     1       5.155  29.897  51.686  1.00  0.00    -0.218 N 
HETATM    2  H   UNL     1       4.505  30.668  51.734  1.00  0.00     0.178 HD
HETATM    3  C   UNL     1       5.484  29.333  52.872  1.00  0.00     0.670 C 
HETATM    4  N   UNL     1       6.494  28.433  52.951  1.00  0.00    -0.221 N 
HETATM    5  N   UNL     1       4.789  29.682  53.979  1.00  0.00    -0.231 N 
HETATM    6  C   UNL     1       3.575  30.488  54.019  1.00  0.00     0.165 C 
HETATM    7  H   UNL     1       7.140  28.406  52.176  1.00  0.00     0.178 HD
HETATM    8  H   UNL     1       5.275  29.504  54.860  1.00  0.00     0.177 HD
ENDROOT
BRANCH   4   9
HETATM    9  C   UNL     1       6.756  27.540  54.090  1.00  0.00     0.199 C 
BRANCH   9  10
HETATM   10  C   UNL     1       7.121  26.181  53.621  1.00  0.00     0.077 A 
HETATM   11  N   UNL     1       7.122  25.105  54.489  1.00  0.00    -0.225 NA
HETATM   12  C   UNL     1       7.514  24.087  53.738  1.00  0.00     0.179 A 
HETATM   13  O   UNL     1       7.708  24.414  52.423  1.00  0.00    -0.301 OA
HETATM   14  C   UNL     1       7.458  25.751  52.361  1.00  0.00     0.173 A 
BRANCH  12  15
HETATM   15  C   UNL     1       7.793  22.709  54.125  1.00  0.00     0.017 A 
HETATM   16  C   UNL     1       8.137  21.768  53.141  1.00  0.00     0.016 A 
HETATM   17  C   UNL     1       8.394  20.439  53.483  1.00  0.00     0.001 A 
HETATM   18  C   UNL     1       8.318  20.036  54.814  1.00  0.00     0.000 A 
HETATM   19  C   UNL     1       7.984  20.959  55.803  1.00  0.00     0.001 A 
HETATM   20  C   UNL     1       7.719  22.288  55.461  1.00  0.00     0.016 A 
ENDBRANCH  12  15
ENDBRANCH   9  10
ENDBRANCH   4   9
BRANCH   1  21
HETATM   21  C   UNL     1       5.627  29.557  50.328  1.00  0.00     0.135 C 
HETATM   22  C   UNL     1       5.768  30.779  49.422  1.00  0.00     0.038 C 
BRANCH  21  23
HETATM   23  C   UNL     1       4.804  28.457  49.703  1.00  0.00     0.005 A 
HETATM   24  S   UNL     1       3.375  28.757  48.796  1.00  0.00    -0.104 SA
HETATM   25  C   UNL     1       3.101  27.097  48.522  1.00  0.00     0.050 A 
HETATM   26  C   UNL     1       4.064  26.313  49.111  1.00  0.00     0.008 A 
HETATM   27  C   UNL     1       5.040  27.094  49.795  1.00  0.00     0.017 A 
ENDBRANCH  21  23
ENDBRANCH   1  21
TORSDOF 5
ENDMDL
MODEL 8
REMARK VINA RESULT:      -7.9      1.531      2.416
REMARK  5 active torsions:
REMARK  status: ('A' for Active; 'I' for Inactive)
REMARK    1  A    between atoms: C_2  and  N_3 
REMARK    2  A    between atoms: C_2  and  C_21 
REMARK       I    between atoms: N_3  and  C_5 
REMARK       I    between atoms: C_5  and  N_6 
REMARK    3  A    between atoms: N_6  and  C_7 
REMARK    4  A    between atoms: C_7  and  C_8 
REMARK    5  A    between atoms: C_10  and  C_11 
ROOT
HETATM    1  N   UNL     1       6.566  29.960  56.479  1.00  0.00    -0.218 N 
HETATM    2  H   UNL     1       6.269  30.773  55.959  1.00  0.00     0.178 HD
HETATM    3  C   UNL     1       5.739  28.890  56.416  1.00  0.00     0.670 C 
HETATM    4  N   UNL     1       5.929  27.823  57.229  1.00  0.00    -0.221 N 
HETATM    5  N   UNL     1       4.719  28.901  55.528  1.00  0.00    -0.231 N 
HETATM    6  C   UNL     1       4.499  29.885  54.475  1.00  0.00     0.165 C 
HETATM    7  H   UNL     1       6.519  27.966  58.036  1.00  0.00     0.178 HD
HETATM    8  H   UNL     1       3.956  28.258  55.748  1.00  0.00     0.177 HD
ENDROOT
BRANCH   4   9
HETATM    9  C   UNL     1       5.306  26.501  57.065  1.00  0.00     0.199 C 
BRANCH   9  10
HETATM   10  C   UNL     1       6.329  25.467  56.778  1.00  0.00     0.077 A 
HETATM   11  N   UNL     1       6.175  24.586  55.723  1.00  0.00    -0.225 NA
HETATM   12  C   UNL     1       7.248  23.813  55.791  1.00  0.00     0.179 A 
HETATM   13  O   UNL     1       8.125  24.172  56.780  1.00  0.00    -0.301 OA
HETATM   14  C   UNL     1       7.528  25.224  57.403  1.00  0.00     0.173 A 
BRANCH  12  15
HETATM   15  C   UNL     1       7.591  22.640  54.995  1.00  0.00     0.017 A 
HETATM   16  C   UNL     1       7.779  21.402  55.630  1.00  0.00     0.016 A 
HETATM   17  C   UNL     1       8.124  20.267  54.893  1.00  0.00     0.001 A 
HETATM   18  C   UNL     1       8.276  20.355  53.511  1.00  0.00     0.000 A 
HETATM   19  C   UNL     1       8.087  21.575  52.866  1.00  0.00     0.001 A 
HETATM   20  C   UNL     1       7.750  22.713  53.604  1.00  0.00     0.016 A 
ENDBRANCH  12  15
ENDBRANCH   9  10
ENDBRANCH   4   9
BRANCH   1  21
HETATM   21  C   UNL     1       7.836  30.117  57.216  1.00  0.00     0.135 C 
HETATM   22  C   UNL     1       8.666  28.835  57.253  1.00  0.00     0.038 C 
BRANCH  21  23
HETATM   23  C   UNL     1       7.624  30.717  58.585  1.00  0.00     0.005 A 
HETATM   24  S   UNL     1       6.395  31.871  58.920  1.00  0.00    -0.104 SA
HETATM   25  C   UNL     1       6.862  32.015  60.555  1.00  0.00     0.050 A 
HETATM   26  C   UNL     1       7.938  31.213  60.854  1.00  0.00     0.008 A 
HETATM   27  C   UNL     1       8.380  30.472  59.721  1.00  0.00     0.017 A 
ENDBRANCH  21  23
ENDBRANCH   1  21
TORSDOF 5
ENDMDL
MODEL 9
REMARK VINA RESULT:      -7.9      2.600      7.816
REMARK  5 active torsions:
REMARK  status: ('A' for Active; 'I' for Inactive)
REMARK    1  A    between atoms: C_2  and  N_3 
REMARK    2  A    between atoms: C_2  and  C_21 
REMARK       I    between atoms: N_3  and  C_5 
REMARK       I    between atoms: C_5  and  N_6 
REMARK    3  A    between atoms: N_6  and  C_7 
REMARK    4  A    between atoms: C_7  and  C_8 
REMARK    5  A    between atoms: C_10  and  C_11 
ROOT
HETATM    1  N   UNL     1       5.734  26.478  54.269  1.00  0.00    -0.218 N 
HETATM    2  H   UNL     1       5.108  26.404  53.480  1.00  0.00     0.178 HD
HETATM    3  C   UNL     1       6.560  27.551  54.264  1.00  0.00     0.670 C 
HETATM    4  N   UNL     1       7.574  27.646  55.157  1.00  0.00    -0.221 N 
HETATM    5  N   UNL     1       6.359  28.529  53.351  1.00  0.00    -0.231 N 
HETATM    6  C   UNL     1       5.215  28.653  52.455  1.00  0.00     0.165 C 
HETATM    7  H   UNL     1       7.844  26.795  55.629  1.00  0.00     0.178 HD
HETATM    8  H   UNL     1       7.174  29.116  53.169  1.00  0.00     0.177 HD
ENDROOT
BRANCH   4   9
HETATM    9  C   UNL     1       8.343  28.864  55.453  1.00  0.00     0.199 C 
BRANCH   9  10
HETATM   10  C   UNL     1       7.781  29.570  56.629  1.00  0.00     0.077 A 
HETATM   11  N   UNL     1       8.593  29.968  57.676  1.00  0.00    -0.225 NA
HETATM   12  C   UNL     1       7.757  30.531  58.535  1.00  0.00     0.179 A 
HETATM   13  O   UNL     1       6.463  30.585  58.091  1.00  0.00    -0.301 OA
HETATM   14  C   UNL     1       6.490  29.967  56.878  1.00  0.00     0.173 A 
BRANCH  12  15
HETATM   15  C   UNL     1       8.021  31.054  59.870  1.00  0.00     0.017 A 
HETATM   16  C   UNL     1       7.166  32.025  60.416  1.00  0.00     0.016 A 
HETATM   17  C   UNL     1       7.406  32.554  61.686  1.00  0.00     0.001 A 
HETATM   18  C   UNL     1       8.497  32.111  62.430  1.00  0.00     0.000 A 
HETATM   19  C   UNL     1       9.351  31.143  61.905  1.00  0.00     0.001 A 
HETATM   20  C   UNL     1       9.116  30.620  60.631  1.00  0.00     0.016 A 
ENDBRANCH  12  15
ENDBRANCH   9  10
ENDBRANCH   4   9
BRANCH   1  21
HETATM   21  C   UNL     1       5.629  25.386  55.259  1.00  0.00     0.135 C 
HETATM   22  C   UNL     1       5.362  25.889  56.675  1.00  0.00     0.038 C 
BRANCH  21  23
HETATM   23  C   UNL     1       6.803  24.441  55.184  1.00  0.00     0.005 A 
HETATM   24  S   UNL     1       7.850  24.142  56.515  1.00  0.00    -0.104 SA
HETATM   25  C   UNL     1       8.825  23.073  55.613  1.00  0.00     0.050 A 
HETATM   26  C   UNL     1       8.383  22.941  54.318  1.00  0.00     0.008 A 
HETATM   27  C   UNL     1       7.224  23.732  54.070  1.00  0.00     0.017 A 
ENDBRANCH  21  23
ENDBRANCH   1  21
TORSDOF 5
ENDMDL
MODEL 10
REMARK VINA RESULT:      -7.8      2.522      8.006
REMARK  5 active torsions:
REMARK  status: ('A' for Active; 'I' for Inactive)
REMARK    1  A    between atoms: C_2  and  N_3 
REMARK    2  A    between atoms: C_2  and  C_21 
REMARK       I    between atoms: N_3  and  C_5 
REMARK       I    between atoms: C_5  and  N_6 
REMARK    3  A    between atoms: N_6  and  C_7 
REMARK    4  A    between atoms: C_7  and  C_8 
REMARK    5  A    between atoms: C_10  and  C_11 
ROOT
HETATM    1  N   UNL     1       6.997  25.039  54.535  1.00  0.00    -0.218 N 
HETATM    2  H   UNL     1       7.431  24.904  53.634  1.00  0.00     0.178 HD
HETATM    3  C   UNL     1       6.240  26.155  54.660  1.00  0.00     0.670 C 
HETATM    4  N   UNL     1       5.779  26.544  55.873  1.00  0.00    -0.221 N 
HETATM    5  N   UNL     1       5.952  26.879  53.554  1.00  0.00    -0.231 N 
HETATM    6  C   UNL     1       6.221  26.493  52.174  1.00  0.00     0.165 C 
HETATM    7  H   UNL     1       6.228  26.138  56.681  1.00  0.00     0.178 HD
HETATM    8  H   UNL     1       5.687  27.848  53.736  1.00  0.00     0.177 HD
ENDROOT
BRANCH   4   9
HETATM    9  C   UNL     1       4.724  27.542  56.108  1.00  0.00     0.199 C 
BRANCH   9  10
HETATM   10  C   UNL     1       5.309  28.840  56.520  1.00  0.00     0.077 A 
HETATM   11  N   UNL     1       6.321  28.899  57.461  1.00  0.00    -0.225 NA
HETATM   12  C   UNL     1       6.565  30.194  57.589  1.00  0.00     0.179 A 
HETATM   13  O   UNL     1       5.825  30.981  56.748  1.00  0.00    -0.301 OA
HETATM   14  C   UNL     1       5.026  30.109  56.075  1.00  0.00     0.173 A 
BRANCH  12  15
HETATM   15  C   UNL     1       7.469  30.875  58.509  1.00  0.00     0.017 A 
HETATM   16  C   UNL     1       8.846  30.603  58.457  1.00  0.00     0.016 A 
HETATM   17  C   UNL     1       9.730  31.230  59.337  1.00  0.00     0.001 A 
HETATM   18  C   UNL     1       9.251  32.144  60.273  1.00  0.00     0.000 A 
HETATM   19  C   UNL     1       7.888  32.430  60.332  1.00  0.00     0.001 A 
HETATM   20  C   UNL     1       7.001  31.796  59.457  1.00  0.00     0.016 A 
ENDBRANCH  12  15
ENDBRANCH   9  10
ENDBRANCH   4   9
BRANCH   1  21
HETATM   21  C   UNL     1       7.294  23.996  55.538  1.00  0.00     0.135 C 
HETATM   22  C   UNL     1       8.346  24.429  56.555  1.00  0.00     0.038 C 
BRANCH  21  23
HETATM   23  C   UNL     1       7.612  22.668  54.894  1.00  0.00     0.005 A 
HETATM   24  S   UNL     1       7.986  21.255  55.800  1.00  0.00    -0.104 SA
HETATM   25  C   UNL     1       8.223  20.318  54.395  1.00  0.00     0.050 A 
HETATM   26  C   UNL     1       8.035  21.053  53.248  1.00  0.00     0.008 A 
HETATM   27  C   UNL     1       7.689  22.406  53.535  1.00  0.00     0.017 A 
ENDBRANCH  21  23
ENDBRANCH   1  21
TORSDOF 5
ENDMDL
