MODEL 1
REMARK VINA RESULT:      -9.6      0.000      0.000
REMARK  5 active torsions:
REMARK  status: ('A' for Active; 'I' for Inactive)
REMARK    1  A    between atoms: N_3  and  C_4 
REMARK    2  A    between atoms: C_12  and  C_13 
REMARK    3  A    between atoms: C_13  and  N_14 
REMARK       I    between atoms: N_14  and  C_15 
REMARK       I    between atoms: C_15  and  N_16 
REMARK    4  A    between atoms: N_16  and  C_17 
REMARK    5  A    between atoms: C_17  and  C_18 
ROOT
HETATM    1  C   UNL     1       5.216  27.437  56.175  1.00  0.00     0.165 C 
ENDROOT
BRANCH   1   2
HETATM    2  C   UNL     1       6.185  26.295  56.110  1.00  0.00    -0.016 A 
HETATM    3  C   UNL     1       6.191  25.241  55.202  1.00  0.00     0.021 A 
HETATM    4  N   UNL     1       7.249  24.386  55.515  1.00  0.00    -0.319 N 
HETATM    5  C   UNL     1       5.293  25.059  54.018  1.00  0.00     0.069 C 
HETATM    6  C   UNL     1       7.942  24.942  56.587  1.00  0.00     0.014 A 
HETATM    7  C   UNL     1       9.110  24.310  57.267  1.00  0.00     0.068 C 
HETATM    8  C   UNL     1       7.299  26.105  56.959  1.00  0.00     0.035 A 
BRANCH   4   9
HETATM    9  C   UNL     1       7.550  23.152  54.867  1.00  0.00     0.039 A 
HETATM   10  C   UNL     1       7.929  23.143  53.518  1.00  0.00     0.030 A 
HETATM   11  C   UNL     1       8.215  21.936  52.879  1.00  0.00     0.002 A 
HETATM   12  C   UNL     1       8.128  20.735  53.581  1.00  0.00     0.000 A 
HETATM   13  C   UNL     1       7.753  20.739  54.924  1.00  0.00     0.002 A 
HETATM   14  C   UNL     1       7.462  21.944  55.568  1.00  0.00     0.030 A 
ENDBRANCH   4   9
ENDBRANCH   1   2
BRANCH   1  15
HETATM   15  N   UNL     1       5.541  28.235  57.335  1.00  0.00    -0.339 N 
HETATM   16  C   UNL     1       6.212  29.418  57.214  1.00  0.00     0.316 C 
HETATM   17  N   UNL     1       6.223  30.111  58.394  1.00  0.00    -0.339 N 
HETATM   18  O   UNL     1       6.710  29.828  56.175  1.00  0.00    -0.247 OA
HETATM   19  H   UNL     1       6.201  29.557  59.237  1.00  0.00     0.164 HD
HETATM   20  H   UNL     1       4.950  28.120  58.143  1.00  0.00     0.164 HD
BRANCH  17  21
HETATM   21  C   UNL     1       6.878  31.397  58.476  1.00  0.00     0.162 C 
BRANCH  21  22
HETATM   22  C   UNL     1       7.524  31.610  59.822  1.00  0.00    -0.040 A 
HETATM   23  C   UNL     1       6.990  32.539  60.725  1.00  0.00     0.009 A 
HETATM   24  C   UNL     1       7.556  32.703  61.992  1.00  0.00     0.001 A 
HETATM   25  C   UNL     1       8.656  31.937  62.372  1.00  0.00     0.000 A 
HETATM   26  C   UNL     1       9.190  31.001  61.489  1.00  0.00     0.001 A 
HETATM   27  C   UNL     1       8.622  30.832  60.224  1.00  0.00     0.009 A 
ENDBRANCH  21  22
ENDBRANCH  17  21
ENDBRANCH   1  15
TORSDOF 5
ENDMDL
MODEL 2
REMARK VINA RESULT:      -9.5      1.741      3.024
REMARK  5 active torsions:
REMARK  status: ('A' for Active; 'I' for Inactive)
REMARK    1  A    between atoms: N_3  and  C_4 
REMARK    2  A    between atoms: C_12  and  C_13 
REMARK    3  A    between atoms: C_13  and  N_14 
REMARK       I    between atoms: N_14  and  C_15 
REMARK       I    between atoms: C_15  and  N_16 
REMARK    4  A    between atoms: N_16  and  C_17 
REMARK    5  A    between atoms: C_17  and  C_18 
ROOT
HETATM    1  C   UNL     1       6.547  30.089  56.757  1.00  0.00     0.165 C 
ENDROOT
BRANCH   1   2
HETATM    2  C   UNL     1       6.369  28.621  56.516  1.00  0.00    -0.016 A 
HETATM    3  C   UNL     1       6.974  27.846  55.531  1.00  0.00     0.021 A 
HETATM    4  N   UNL     1       6.511  26.534  55.646  1.00  0.00    -0.319 N 
HETATM    5  C   UNL     1       8.019  28.279  54.551  1.00  0.00     0.069 C 
HETATM    6  C   UNL     1       5.658  26.478  56.746  1.00  0.00     0.014 A 
HETATM    7  C   UNL     1       4.905  25.267  57.180  1.00  0.00     0.068 C 
HETATM    8  C   UNL     1       5.563  27.748  57.281  1.00  0.00     0.035 A 
BRANCH   4   9
HETATM    9  C   UNL     1       6.835  25.451  54.777  1.00  0.00     0.039 A 
HETATM   10  C   UNL     1       6.117  25.269  53.587  1.00  0.00     0.030 A 
HETATM   11  C   UNL     1       6.427  24.204  52.739  1.00  0.00     0.002 A 
HETATM   12  C   UNL     1       7.453  23.322  53.070  1.00  0.00     0.000 A 
HETATM   13  C   UNL     1       8.172  23.501  54.252  1.00  0.00     0.002 A 
HETATM   14  C   UNL     1       7.864  24.562  55.106  1.00  0.00     0.030 A 
ENDBRANCH   4   9
ENDBRANCH   1   2
BRANCH   1  15
HETATM   15  N   UNL     1       6.488  30.319  58.183  1.00  0.00    -0.339 N 
HETATM   16  C   UNL     1       7.562  30.821  58.862  1.00  0.00     0.316 C 
HETATM   17  N   UNL     1       7.227  31.165  60.144  1.00  0.00    -0.339 N 
HETATM   18  O   UNL     1       8.674  30.979  58.380  1.00  0.00    -0.247 OA
HETATM   19  H   UNL     1       6.488  30.628  60.572  1.00  0.00     0.164 HD
HETATM   20  H   UNL     1       5.575  30.480  58.578  1.00  0.00     0.164 HD
BRANCH  17  21
HETATM   21  C   UNL     1       8.222  31.724  61.030  1.00  0.00     0.162 C 
BRANCH  21  22
HETATM   22  C   UNL     1       7.596  32.566  62.113  1.00  0.00    -0.040 A 
HETATM   23  C   UNL     1       8.045  32.467  63.437  1.00  0.00     0.009 A 
HETATM   24  C   UNL     1       7.504  33.282  64.433  1.00  0.00     0.001 A 
HETATM   25  C   UNL     1       6.511  34.209  64.117  1.00  0.00     0.000 A 
HETATM   26  C   UNL     1       6.064  34.327  62.803  1.00  0.00     0.001 A 
HETATM   27  C   UNL     1       6.609  33.517  61.805  1.00  0.00     0.009 A 
ENDBRANCH  21  22
ENDBRANCH  17  21
ENDBRANCH   1  15
TORSDOF 5
ENDMDL
MODEL 3
REMARK VINA RESULT:      -9.2      2.003      9.150
REMARK  5 active torsions:
REMARK  status: ('A' for Active; 'I' for Inactive)
REMARK    1  A    between atoms: N_3  and  C_4 
REMARK    2  A    between atoms: C_12  and  C_13 
REMARK    3  A    between atoms: C_13  and  N_14 
REMARK       I    between atoms: N_14  and  C_15 
REMARK       I    between atoms: C_15  and  N_16 
REMARK    4  A    between atoms: N_16  and  C_17 
REMARK    5  A    between atoms: C_17  and  C_18 
ROOT
HETATM    1  C   UNL     1       7.066  28.450  54.902  1.00  0.00     0.165 C 
ENDROOT
BRANCH   1   2
HETATM    2  C   UNL     1       7.901  29.082  55.974  1.00  0.00    -0.016 A 
HETATM    3  C   UNL     1       7.469  29.581  57.199  1.00  0.00     0.021 A 
HETATM    4  N   UNL     1       8.568  30.104  57.882  1.00  0.00    -0.319 N 
HETATM    5  C   UNL     1       6.088  29.508  57.771  1.00  0.00     0.069 C 
HETATM    6  C   UNL     1       9.700  29.877  57.104  1.00  0.00     0.014 A 
HETATM    7  C   UNL     1      11.077  30.335  57.448  1.00  0.00     0.068 C 
HETATM    8  C   UNL     1       9.303  29.256  55.936  1.00  0.00     0.035 A 
BRANCH   4   9
HETATM    9  C   UNL     1       8.532  30.774  59.140  1.00  0.00     0.039 A 
HETATM   10  C   UNL     1       8.017  32.075  59.227  1.00  0.00     0.030 A 
HETATM   11  C   UNL     1       7.990  32.736  60.456  1.00  0.00     0.002 A 
HETATM   12  C   UNL     1       8.469  32.103  61.601  1.00  0.00     0.000 A 
HETATM   13  C   UNL     1       8.979  30.808  61.521  1.00  0.00     0.002 A 
HETATM   14  C   UNL     1       9.013  30.143  60.293  1.00  0.00     0.030 A 
ENDBRANCH   4   9
ENDBRANCH   1   2
BRANCH   1  15
HETATM   15  N   UNL     1       7.724  27.235  54.479  1.00  0.00    -0.339 N 
HETATM   16  C   UNL     1       7.017  26.199  53.939  1.00  0.00     0.316 C 
HETATM   17  N   UNL     1       7.847  25.247  53.411  1.00  0.00    -0.339 N 
HETATM   18  O   UNL     1       5.796  26.141  53.898  1.00  0.00    -0.247 OA
HETATM   19  H   UNL     1       8.749  25.147  53.852  1.00  0.00     0.164 HD
HETATM   20  H   UNL     1       8.697  27.311  54.226  1.00  0.00     0.164 HD
BRANCH  17  21
HETATM   21  C   UNL     1       7.295  24.069  52.783  1.00  0.00     0.162 C 
BRANCH  21  22
HETATM   22  C   UNL     1       7.614  22.818  53.562  1.00  0.00    -0.040 A 
HETATM   23  C   UNL     1       7.486  22.801  54.958  1.00  0.00     0.009 A 
HETATM   24  C   UNL     1       7.731  21.630  55.679  1.00  0.00     0.001 A 
HETATM   25  C   UNL     1       8.103  20.463  55.013  1.00  0.00     0.000 A 
HETATM   26  C   UNL     1       8.223  20.462  53.625  1.00  0.00     0.001 A 
HETATM   27  C   UNL     1       7.971  21.631  52.903  1.00  0.00     0.009 A 
ENDBRANCH  21  22
ENDBRANCH  17  21
ENDBRANCH   1  15
TORSDOF 5
ENDMDL
MODEL 4
REMARK VINA RESULT:      -9.1      1.793      2.446
REMARK  5 active torsions:
REMARK  status: ('A' for Active; 'I' for Inactive)
REMARK    1  A    between atoms: N_3  and  C_4 
REMARK    2  A    between atoms: C_12  and  C_13 
REMARK    3  A    between atoms: C_13  and  N_14 
REMARK       I    between atoms: N_14  and  C_15 
REMARK       I    between atoms: C_15  and  N_16 
REMARK    4  A    between atoms: N_16  and  C_17 
REMARK    5  A    between atoms: C_17  and  C_18 
ROOT
HETATM    1  C   UNL     1       4.406  29.442  56.826  1.00  0.00     0.165 C 
ENDROOT
BRANCH   1   2
HETATM    2  C   UNL     1       5.424  28.394  56.494  1.00  0.00    -0.016 A 
HETATM    3  C   UNL     1       5.512  27.639  55.328  1.00  0.00     0.021 A 
HETATM    4  N   UNL     1       6.592  26.762  55.443  1.00  0.00    -0.319 N 
HETATM    5  C   UNL     1       4.672  27.772  54.096  1.00  0.00     0.069 C 
HETATM    6  C   UNL     1       7.216  27.012  56.662  1.00  0.00     0.014 A 
HETATM    7  C   UNL     1       8.380  26.248  57.197  1.00  0.00     0.068 C 
HETATM    8  C   UNL     1       6.509  28.004  57.312  1.00  0.00     0.035 A 
BRANCH   4   9
HETATM    9  C   UNL     1       6.971  25.770  54.491  1.00  0.00     0.039 A 
HETATM   10  C   UNL     1       7.663  26.140  53.331  1.00  0.00     0.030 A 
HETATM   11  C   UNL     1       8.027  25.172  52.394  1.00  0.00     0.002 A 
HETATM   12  C   UNL     1       7.706  23.833  52.610  1.00  0.00     0.000 A 
HETATM   13  C   UNL     1       7.020  23.459  53.765  1.00  0.00     0.002 A 
HETATM   14  C   UNL     1       6.649  24.424  54.705  1.00  0.00     0.030 A 
ENDBRANCH   4   9
ENDBRANCH   1   2
BRANCH   1  15
HETATM   15  N   UNL     1       4.711  29.962  58.140  1.00  0.00    -0.339 N 
HETATM   16  C   UNL     1       5.157  31.242  58.308  1.00  0.00     0.316 C 
HETATM   17  N   UNL     1       5.174  31.597  59.629  1.00  0.00    -0.339 N 
HETATM   18  O   UNL     1       5.469  31.991  57.393  1.00  0.00    -0.247 OA
HETATM   19  H   UNL     1       5.333  30.852  60.290  1.00  0.00     0.164 HD
HETATM   20  H   UNL     1       4.235  29.533  58.918  1.00  0.00     0.164 HD
BRANCH  17  21
HETATM   21  C   UNL     1       5.608  32.919  60.021  1.00  0.00     0.162 C 
BRANCH  21  22
HETATM   22  C   UNL     1       6.465  32.881  61.261  1.00  0.00    -0.040 A 
HETATM   23  C   UNL     1       6.092  33.604  62.403  1.00  0.00     0.009 A 
HETATM   24  C   UNL     1       6.856  33.531  63.570  1.00  0.00     0.001 A 
HETATM   25  C   UNL     1       7.997  32.731  63.611  1.00  0.00     0.000 A 
HETATM   26  C   UNL     1       8.372  31.998  62.488  1.00  0.00     0.001 A 
HETATM   27  C   UNL     1       7.606  32.065  61.322  1.00  0.00     0.009 A 
ENDBRANCH  21  22
ENDBRANCH  17  21
ENDBRANCH   1  15
TORSDOF 5
ENDMDL
MODEL 5
REMARK VINA RESULT:      -8.9      5.335      9.576
REMARK  5 active torsions:
REMARK  status: ('A' for Active; 'I' for Inactive)
REMARK    1  A    between atoms: N_3  and  C_4 
REMARK    2  A    between atoms: C_12  and  C_13 
REMARK    3  A    between atoms: C_13  and  N_14 
REMARK       I    between atoms: N_14  and  C_15 
REMARK       I    between atoms: C_15  and  N_16 
REMARK    4  A    between atoms: N_16  and  C_17 
REMARK    5  A    between atoms: C_17  and  C_18 
ROOT
HETATM    1  C   UNL     1       4.869  27.792  52.763  1.00  0.00     0.165 C 
ENDROOT
BRANCH   1   2
HETATM    2  C   UNL     1       4.506  27.692  51.313  1.00  0.00    -0.016 A 
HETATM    3  C   UNL     1       3.462  28.336  50.655  1.00  0.00     0.021 A 
HETATM    4  N   UNL     1       3.467  27.944  49.316  1.00  0.00    -0.319 N 
HETATM    5  C   UNL     1       2.525  29.355  51.224  1.00  0.00     0.069 C 
HETATM    6  C   UNL     1       4.556  27.098  49.123  1.00  0.00     0.014 A 
HETATM    7  C   UNL     1       4.886  26.411  47.841  1.00  0.00     0.068 C 
HETATM    8  C   UNL     1       5.194  26.935  50.337  1.00  0.00     0.035 A 
BRANCH   4   9
HETATM    9  C   UNL     1       2.512  28.324  48.328  1.00  0.00     0.039 A 
HETATM   10  C   UNL     1       2.715  29.482  47.565  1.00  0.00     0.030 A 
HETATM   11  C   UNL     1       1.776  29.861  46.604  1.00  0.00     0.002 A 
HETATM   12  C   UNL     1       0.636  29.087  46.397  1.00  0.00     0.000 A 
HETATM   13  C   UNL     1       0.431  27.933  47.151  1.00  0.00     0.002 A 
HETATM   14  C   UNL     1       1.365  27.550  48.117  1.00  0.00     0.030 A 
ENDBRANCH   4   9
ENDBRANCH   1   2
BRANCH   1  15
HETATM   15  N   UNL     1       4.997  26.450  53.286  1.00  0.00    -0.339 N 
HETATM   16  C   UNL     1       6.101  26.069  53.994  1.00  0.00     0.316 C 
HETATM   17  N   UNL     1       5.924  24.844  54.577  1.00  0.00    -0.339 N 
HETATM   18  O   UNL     1       7.109  26.749  54.122  1.00  0.00    -0.247 OA
HETATM   19  H   UNL     1       5.313  24.203  54.093  1.00  0.00     0.164 HD
HETATM   20  H   UNL     1       4.140  25.950  53.463  1.00  0.00     0.164 HD
BRANCH  17  21
HETATM   21  C   UNL     1       6.976  24.262  55.379  1.00  0.00     0.162 C 
BRANCH  21  22
HETATM   22  C   UNL     1       7.439  22.941  54.820  1.00  0.00    -0.040 A 
HETATM   23  C   UNL     1       7.594  21.830  55.661  1.00  0.00     0.009 A 
HETATM   24  C   UNL     1       7.973  20.592  55.139  1.00  0.00     0.001 A 
HETATM   25  C   UNL     1       8.197  20.448  53.771  1.00  0.00     0.000 A 
HETATM   26  C   UNL     1       8.035  21.540  52.921  1.00  0.00     0.001 A 
HETATM   27  C   UNL     1       7.650  22.777  53.441  1.00  0.00     0.009 A 
ENDBRANCH  21  22
ENDBRANCH  17  21
ENDBRANCH   1  15
TORSDOF 5
ENDMDL
MODEL 6
REMARK VINA RESULT:      -8.9      4.385      8.424
REMARK  5 active torsions:
REMARK  status: ('A' for Active; 'I' for Inactive)
REMARK    1  A    between atoms: N_3  and  C_4 
REMARK    2  A    between atoms: C_12  and  C_13 
REMARK    3  A    between atoms: C_13  and  N_14 
REMARK       I    between atoms: N_14  and  C_15 
REMARK       I    between atoms: C_15  and  N_16 
REMARK    4  A    between atoms: N_16  and  C_17 
REMARK    5  A    between atoms: C_17  and  C_18 
ROOT
HETATM    1  C   UNL     1       5.182  27.796  55.011  1.00  0.00     0.165 C 
ENDROOT
BRANCH   1   2
HETATM    2  C   UNL     1       4.651  27.984  53.623  1.00  0.00    -0.016 A 
HETATM    3  C   UNL     1       5.203  27.515  52.434  1.00  0.00     0.021 A 
HETATM    4  N   UNL     1       4.403  27.937  51.371  1.00  0.00    -0.319 N 
HETATM    5  C   UNL     1       6.398  26.627  52.279  1.00  0.00     0.069 C 
HETATM    6  C   UNL     1       3.314  28.622  51.903  1.00  0.00     0.014 A 
HETATM    7  C   UNL     1       2.249  29.287  51.099  1.00  0.00     0.068 C 
HETATM    8  C   UNL     1       3.458  28.659  53.276  1.00  0.00     0.035 A 
BRANCH   4   9
HETATM    9  C   UNL     1       4.668  27.724  49.986  1.00  0.00     0.039 A 
HETATM   10  C   UNL     1       5.347  28.701  49.245  1.00  0.00     0.030 A 
HETATM   11  C   UNL     1       5.599  28.498  47.887  1.00  0.00     0.002 A 
HETATM   12  C   UNL     1       5.182  27.323  47.265  1.00  0.00     0.000 A 
HETATM   13  C   UNL     1       4.509  26.347  48.000  1.00  0.00     0.002 A 
HETATM   14  C   UNL     1       4.250  26.546  49.358  1.00  0.00     0.030 A 
ENDBRANCH   4   9
ENDBRANCH   1   2
BRANCH   1  15
HETATM   15  N   UNL     1       5.263  26.377  55.271  1.00  0.00    -0.339 N 
HETATM   16  C   UNL     1       6.455  25.781  55.569  1.00  0.00     0.316 C 
HETATM   17  N   UNL     1       6.278  24.491  55.992  1.00  0.00    -0.339 N 
HETATM   18  O   UNL     1       7.543  26.336  55.503  1.00  0.00    -0.247 OA
HETATM   19  H   UNL     1       5.481  24.002  55.613  1.00  0.00     0.164 HD
HETATM   20  H   UNL     1       4.426  25.930  55.610  1.00  0.00     0.164 HD
BRANCH  17  21
HETATM   21  C   UNL     1       7.418  23.685  56.364  1.00  0.00     0.162 C 
BRANCH  21  22
HETATM   22  C   UNL     1       7.704  22.615  55.341  1.00  0.00    -0.040 A 
HETATM   23  C   UNL     1       7.892  21.284  55.741  1.00  0.00     0.009 A 
HETATM   24  C   UNL     1       8.107  20.282  54.793  1.00  0.00     0.001 A 
HETATM   25  C   UNL     1       8.131  20.596  53.435  1.00  0.00     0.000 A 
HETATM   26  C   UNL     1       7.934  21.912  53.023  1.00  0.00     0.001 A 
HETATM   27  C   UNL     1       7.713  22.914  53.970  1.00  0.00     0.009 A 
ENDBRANCH  21  22
ENDBRANCH  17  21
ENDBRANCH   1  15
TORSDOF 5
ENDMDL
MODEL 7
REMARK VINA RESULT:      -8.7      4.573      8.133
REMARK  5 active torsions:
REMARK  status: ('A' for Active; 'I' for Inactive)
REMARK    1  A    between atoms: N_3  and  C_4 
REMARK    2  A    between atoms: C_12  and  C_13 
REMARK    3  A    between atoms: C_13  and  N_14 
REMARK       I    between atoms: N_14  and  C_15 
REMARK       I    between atoms: C_15  and  N_16 
REMARK    4  A    between atoms: N_16  and  C_17 
REMARK    5  A    between atoms: C_17  and  C_18 
ROOT
HETATM    1  C   UNL     1       6.961  27.822  53.318  1.00  0.00     0.165 C 
ENDROOT
BRANCH   1   2
HETATM    2  C   UNL     1       7.288  26.588  54.102  1.00  0.00    -0.016 A 
HETATM    3  C   UNL     1       7.515  25.306  53.608  1.00  0.00     0.021 A 
HETATM    4  N   UNL     1       7.760  24.449  54.682  1.00  0.00    -0.319 N 
HETATM    5  C   UNL     1       7.587  24.888  52.173  1.00  0.00     0.069 C 
HETATM    6  C   UNL     1       7.745  25.211  55.847  1.00  0.00     0.014 A 
HETATM    7  C   UNL     1       7.907  24.665  57.226  1.00  0.00     0.068 C 
HETATM    8  C   UNL     1       7.454  26.517  55.504  1.00  0.00     0.035 A 
BRANCH   4   9
HETATM    9  C   UNL     1       7.965  23.041  54.600  1.00  0.00     0.039 A 
HETATM   10  C   UNL     1       8.563  22.484  53.461  1.00  0.00     0.030 A 
HETATM   11  C   UNL     1       8.756  21.105  53.376  1.00  0.00     0.002 A 
HETATM   12  C   UNL     1       8.359  20.276  54.423  1.00  0.00     0.000 A 
HETATM   13  C   UNL     1       7.767  20.825  55.560  1.00  0.00     0.002 A 
HETATM   14  C   UNL     1       7.567  22.205  55.650  1.00  0.00     0.030 A 
ENDBRANCH   4   9
ENDBRANCH   1   2
BRANCH   1  15
HETATM   15  N   UNL     1       5.630  27.668  52.774  1.00  0.00    -0.339 N 
HETATM   16  C   UNL     1       5.211  28.414  51.709  1.00  0.00     0.316 C 
HETATM   17  N   UNL     1       4.015  27.962  51.222  1.00  0.00    -0.339 N 
HETATM   18  O   UNL     1       5.839  29.346  51.228  1.00  0.00    -0.247 OA
HETATM   19  H   UNL     1       3.394  27.531  51.890  1.00  0.00     0.164 HD
HETATM   20  H   UNL     1       5.183  26.776  52.918  1.00  0.00     0.164 HD
BRANCH  17  21
HETATM   21  C   UNL     1       3.401  28.612  50.087  1.00  0.00     0.162 C 
BRANCH  21  22
HETATM   22  C   UNL     1       3.048  27.627  49.002  1.00  0.00    -0.040 A 
HETATM   23  C   UNL     1       1.925  27.839  48.189  1.00  0.00     0.009 A 
HETATM   24  C   UNL     1       1.624  26.956  47.150  1.00  0.00     0.001 A 
HETATM   25  C   UNL     1       2.442  25.854  46.908  1.00  0.00     0.000 A 
HETATM   26  C   UNL     1       3.567  25.637  47.700  1.00  0.00     0.001 A 
HETATM   27  C   UNL     1       3.873  26.522  48.735  1.00  0.00     0.009 A 
ENDBRANCH  21  22
ENDBRANCH  17  21
ENDBRANCH   1  15
TORSDOF 5
ENDMDL
MODEL 8
REMARK VINA RESULT:      -8.6      2.410     10.201
REMARK  5 active torsions:
REMARK  status: ('A' for Active; 'I' for Inactive)
REMARK    1  A    between atoms: N_3  and  C_4 
REMARK    2  A    between atoms: C_12  and  C_13 
REMARK    3  A    between atoms: C_13  and  N_14 
REMARK       I    between atoms: N_14  and  C_15 
REMARK       I    between atoms: C_15  and  N_16 
REMARK    4  A    between atoms: N_16  and  C_17 
REMARK    5  A    between atoms: C_17  and  C_18 
ROOT
HETATM    1  C   UNL     1       8.769  30.995  59.552  1.00  0.00     0.165 C 
ENDROOT
BRANCH   1   2
HETATM    2  C   UNL     1       8.074  31.712  60.668  1.00  0.00    -0.016 A 
HETATM    3  C   UNL     1       6.852  32.377  60.616  1.00  0.00     0.021 A 
HETATM    4  N   UNL     1       6.588  32.926  61.872  1.00  0.00    -0.319 N 
HETATM    5  C   UNL     1       5.904  32.441  59.460  1.00  0.00     0.069 C 
HETATM    6  C   UNL     1       7.620  32.551  62.727  1.00  0.00     0.014 A 
HETATM    7  C   UNL     1       7.748  32.982  64.149  1.00  0.00     0.068 C 
HETATM    8  C   UNL     1       8.534  31.813  62.001  1.00  0.00     0.035 A 
BRANCH   4   9
HETATM    9  C   UNL     1       5.471  33.746  62.209  1.00  0.00     0.039 A 
HETATM   10  C   UNL     1       5.562  35.139  62.088  1.00  0.00     0.030 A 
HETATM   11  C   UNL     1       4.472  35.943  62.427  1.00  0.00     0.002 A 
HETATM   12  C   UNL     1       3.290  35.364  62.883  1.00  0.00     0.000 A 
HETATM   13  C   UNL     1       3.194  33.978  63.003  1.00  0.00     0.002 A 
HETATM   14  C   UNL     1       4.282  33.168  62.669  1.00  0.00     0.030 A 
ENDBRANCH   4   9
ENDBRANCH   1   2
BRANCH   1  15
HETATM   15  N   UNL     1       8.047  29.771  59.286  1.00  0.00    -0.339 N 
HETATM   16  C   UNL     1       7.732  29.399  58.010  1.00  0.00     0.316 C 
HETATM   17  N   UNL     1       7.250  28.119  57.967  1.00  0.00    -0.339 N 
HETATM   18  O   UNL     1       7.890  30.104  57.025  1.00  0.00    -0.247 OA
HETATM   19  H   UNL     1       6.758  27.798  58.788  1.00  0.00     0.164 HD
HETATM   20  H   UNL     1       8.130  29.038  59.974  1.00  0.00     0.164 HD
BRANCH  17  21
HETATM   21  C   UNL     1       6.863  27.530  56.705  1.00  0.00     0.162 C 
BRANCH  21  22
HETATM   22  C   UNL     1       7.403  26.131  56.552  1.00  0.00    -0.040 A 
HETATM   23  C   UNL     1       6.955  25.308  55.509  1.00  0.00     0.009 A 
HETATM   24  C   UNL     1       7.491  24.030  55.334  1.00  0.00     0.001 A 
HETATM   25  C   UNL     1       8.482  23.562  56.194  1.00  0.00     0.000 A 
HETATM   26  C   UNL     1       8.945  24.373  57.227  1.00  0.00     0.001 A 
HETATM   27  C   UNL     1       8.416  25.654  57.400  1.00  0.00     0.009 A 
ENDBRANCH  21  22
ENDBRANCH  17  21
ENDBRANCH   1  15
TORSDOF 5
ENDMDL
MODEL 9
REMARK VINA RESULT:      -8.5      3.211     11.158
REMARK  5 active torsions:
REMARK  status: ('A' for Active; 'I' for Inactive)
REMARK    1  A    between atoms: N_3  and  C_4 
REMARK    2  A    between atoms: C_12  and  C_13 
REMARK    3  A    between atoms: C_13  and  N_14 
REMARK       I    between atoms: N_14  and  C_15 
REMARK       I    between atoms: C_15  and  N_16 
REMARK    4  A    between atoms: N_16  and  C_17 
REMARK    5  A    between atoms: C_17  and  C_18 
ROOT
HETATM    1  C   UNL     1       8.379  31.408  61.393  1.00  0.00     0.165 C 
ENDROOT
BRANCH   1   2
HETATM    2  C   UNL     1       7.238  32.324  61.715  1.00  0.00    -0.016 A 
HETATM    3  C   UNL     1       6.999  32.990  62.914  1.00  0.00     0.021 A 
HETATM    4  N   UNL     1       5.814  33.717  62.794  1.00  0.00    -0.319 N 
HETATM    5  C   UNL     1       7.881  33.025  64.123  1.00  0.00     0.069 C 
HETATM    6  C   UNL     1       5.342  33.552  61.494  1.00  0.00     0.014 A 
HETATM    7  C   UNL     1       4.066  34.119  60.971  1.00  0.00     0.068 C 
HETATM    8  C   UNL     1       6.203  32.701  60.829  1.00  0.00     0.035 A 
BRANCH   4   9
HETATM    9  C   UNL     1       5.186  34.474  63.827  1.00  0.00     0.039 A 
HETATM   10  C   UNL     1       4.361  33.834  64.761  1.00  0.00     0.030 A 
HETATM   11  C   UNL     1       3.738  34.574  65.768  1.00  0.00     0.002 A 
HETATM   12  C   UNL     1       3.938  35.951  65.849  1.00  0.00     0.000 A 
HETATM   13  C   UNL     1       4.761  36.591  64.923  1.00  0.00     0.002 A 
HETATM   14  C   UNL     1       5.384  35.857  63.911  1.00  0.00     0.030 A 
ENDBRANCH   4   9
ENDBRANCH   1   2
BRANCH   1  15
HETATM   15  N   UNL     1       7.944  30.498  60.358  1.00  0.00    -0.339 N 
HETATM   16  C   UNL     1       8.644  30.366  59.193  1.00  0.00     0.316 C 
HETATM   17  N   UNL     1       8.192  29.306  58.454  1.00  0.00    -0.339 N 
HETATM   18  O   UNL     1       9.581  31.080  58.864  1.00  0.00    -0.247 OA
HETATM   19  H   UNL     1       7.215  29.075  58.556  1.00  0.00     0.164 HD
HETATM   20  H   UNL     1       7.385  29.713  60.652  1.00  0.00     0.164 HD
BRANCH  17  21
HETATM   21  C   UNL     1       8.807  28.990  57.185  1.00  0.00     0.162 C 
BRANCH  21  22
HETATM   22  C   UNL     1       8.235  27.730  56.586  1.00  0.00    -0.040 A 
HETATM   23  C   UNL     1       8.261  26.528  57.306  1.00  0.00     0.009 A 
HETATM   24  C   UNL     1       7.687  25.370  56.776  1.00  0.00     0.001 A 
HETATM   25  C   UNL     1       7.077  25.402  55.523  1.00  0.00     0.000 A 
HETATM   26  C   UNL     1       7.034  26.592  54.801  1.00  0.00     0.001 A 
HETATM   27  C   UNL     1       7.602  27.752  55.333  1.00  0.00     0.009 A 
ENDBRANCH  21  22
ENDBRANCH  17  21
ENDBRANCH   1  15
TORSDOF 5
ENDMDL
MODEL 10
REMARK VINA RESULT:      -8.4      1.908      9.928
REMARK  5 active torsions:
REMARK  status: ('A' for Active; 'I' for Inactive)
REMARK    1  A    between atoms: N_3  and  C_4 
REMARK    2  A    between atoms: C_12  and  C_13 
REMARK    3  A    between atoms: C_13  and  N_14 
REMARK       I    between atoms: N_14  and  C_15 
REMARK       I    between atoms: C_15  and  N_16 
REMARK    4  A    between atoms: N_16  and  C_17 
REMARK    5  A    between atoms: C_17  and  C_18 
ROOT
HETATM    1  C   UNL     1       9.071  29.941  57.777  1.00  0.00     0.165 C 
ENDROOT
BRANCH   1   2
HETATM    2  C   UNL     1       8.145  30.731  58.649  1.00  0.00    -0.016 A 
HETATM    3  C   UNL     1       8.439  31.335  59.869  1.00  0.00     0.021 A 
HETATM    4  N   UNL     1       7.283  31.946  60.356  1.00  0.00    -0.319 N 
HETATM    5  C   UNL     1       9.775  31.419  60.539  1.00  0.00     0.069 C 
HETATM    6  C   UNL     1       6.278  31.775  59.408  1.00  0.00     0.014 A 
HETATM    7  C   UNL     1       4.867  32.230  59.569  1.00  0.00     0.068 C 
HETATM    8  C   UNL     1       6.793  31.032  58.364  1.00  0.00     0.035 A 
BRANCH   4   9
HETATM    9  C   UNL     1       7.151  32.607  61.613  1.00  0.00     0.039 A 
HETATM   10  C   UNL     1       7.739  32.056  62.760  1.00  0.00     0.030 A 
HETATM   11  C   UNL     1       7.603  32.696  63.992  1.00  0.00     0.002 A 
HETATM   12  C   UNL     1       6.885  33.887  64.087  1.00  0.00     0.000 A 
HETATM   13  C   UNL     1       6.301  34.440  62.948  1.00  0.00     0.002 A 
HETATM   14  C   UNL     1       6.430  33.802  61.712  1.00  0.00     0.030 A 
ENDBRANCH   4   9
ENDBRANCH   1   2
BRANCH   1  15
HETATM   15  N   UNL     1       8.278  29.279  56.766  1.00  0.00    -0.339 N 
HETATM   16  C   UNL     1       7.888  27.978  56.913  1.00  0.00     0.316 C 
HETATM   17  N   UNL     1       6.973  27.619  55.961  1.00  0.00    -0.339 N 
HETATM   18  O   UNL     1       8.277  27.236  57.803  1.00  0.00    -0.247 OA
HETATM   19  H   UNL     1       7.045  28.090  55.072  1.00  0.00     0.164 HD
HETATM   20  H   UNL     1       7.708  29.868  56.180  1.00  0.00     0.164 HD
BRANCH  17  21
HETATM   21  C   UNL     1       6.427  26.281  55.946  1.00  0.00     0.162 C 
BRANCH  21  22
HETATM   22  C   UNL     1       7.000  25.456  54.822  1.00  0.00    -0.040 A 
HETATM   23  C   UNL     1       7.052  24.058  54.924  1.00  0.00     0.009 A 
HETATM   24  C   UNL     1       7.534  23.287  53.864  1.00  0.00     0.001 A 
HETATM   25  C   UNL     1       7.966  23.902  52.690  1.00  0.00     0.000 A 
HETATM   26  C   UNL     1       7.909  25.289  52.570  1.00  0.00     0.001 A 
HETATM   27  C   UNL     1       7.420  26.061  53.627  1.00  0.00     0.009 A 
ENDBRANCH  21  22
ENDBRANCH  17  21
ENDBRANCH   1  15
TORSDOF 5
ENDMDL
