MODEL 1
REMARK VINA RESULT:     -10.1      0.000      0.000
REMARK  5 active torsions:
REMARK  status: ('A' for Active; 'I' for Inactive)
REMARK    1  A    between atoms: C_11  and  C_12 
REMARK    2  A    between atoms: C_15  and  N_16 
REMARK    3  A    between atoms: N_16  and  C_17 
REMARK    4  A    between atoms: C_18  and  O_19 
REMARK    5  A    between atoms: O_19  and  C_20 
ROOT
HETATM    1  C   UNL     1       5.368  28.185  50.964  1.00  0.00     0.077 C 
HETATM    2  C   UNL     1       5.396  29.700  50.843  1.00  0.00     0.023 C 
HETATM    3  N   UNL     1       5.420  30.957  50.743  1.00  0.00    -0.096 N 
HETATM    4  C   UNL     1       5.098  27.485  49.841  1.00  0.00     0.087 C 
ENDROOT
BRANCH   1   5
HETATM    5  C   UNL     1       5.551  27.567  52.241  1.00  0.00     0.118 A 
HETATM    6  N   UNL     1       6.192  26.430  52.467  1.00  0.00    -0.239 NA
HETATM    7  C   UNL     1       6.223  26.117  53.823  1.00  0.00     0.081 A 
HETATM    8  C   UNL     1       6.865  24.897  54.245  1.00  0.00     0.070 A 
HETATM    9  C   UNL     1       5.570  27.021  54.631  1.00  0.00     0.084 A 
HETATM   10  C   UNL     1       7.352  24.758  55.657  1.00  0.00     0.301 A 
HETATM   11  C   UNL     1       7.043  23.870  53.390  1.00  0.00     0.034 A 
HETATM   12  O   UNL     1       7.904  23.536  56.032  1.00  0.00    -0.274 OA
HETATM   13  O   UNL     1       7.279  25.667  56.480  1.00  0.00    -0.259 OA
HETATM   14  C   UNL     1       8.060  22.480  55.125  1.00  0.00     0.089 A 
HETATM   15  C   UNL     1       7.654  22.620  53.805  1.00  0.00    -0.001 A 
HETATM   16  C   UNL     1       8.633  21.302  55.597  1.00  0.00     0.038 A 
HETATM   17  C   UNL     1       7.829  21.546  52.929  1.00  0.00     0.014 A 
HETATM   18  C   UNL     1       8.403  20.356  53.387  1.00  0.00     0.001 A 
HETATM   19  C   UNL     1       8.805  20.233  54.720  1.00  0.00     0.003 A 
HETATM   20  S   UNL     1       4.952  28.309  53.698  1.00  0.00    -0.078 SA
ENDBRANCH   1   5
BRANCH   4  21
HETATM   21  N   UNL     1       4.860  27.997  48.577  1.00  0.00    -0.266 NA
HETATM   22  H   UNL     1       5.400  28.847  48.382  1.00  0.00     0.133 HD
BRANCH  21  23
HETATM   23  C   UNL     1       3.553  28.227  48.058  1.00  0.00     0.046 A 
HETATM   24  C   UNL     1       2.908  27.179  47.372  1.00  0.00     0.096 A 
HETATM   25  C   UNL     1       1.639  27.337  46.816  1.00  0.00     0.039 A 
HETATM   26  C   UNL     1       0.966  28.542  46.987  1.00  0.00     0.003 A 
HETATM   27  C   UNL     1       1.562  29.577  47.710  1.00  0.00     0.002 A 
HETATM   28  C   UNL     1       2.843  29.417  48.251  1.00  0.00     0.026 A 
BRANCH  24  29
HETATM   29  O   UNL     1       3.557  25.979  47.220  1.00  0.00    -0.288 OA
BRANCH  29  30
HETATM   30  C   UNL     1       2.889  24.990  48.001  1.00  0.00     0.505 C 
HETATM   31  F   UNL     1       3.082  23.781  47.413  1.00  0.00    -0.184 F 
HETATM   32  F   UNL     1       3.522  24.939  49.201  1.00  0.00    -0.184 F 
ENDBRANCH  29  30
ENDBRANCH  24  29
ENDBRANCH  21  23
ENDBRANCH   4  21
TORSDOF 5
ENDMDL
MODEL 2
REMARK VINA RESULT:     -10.0      1.916      2.433
REMARK  5 active torsions:
REMARK  status: ('A' for Active; 'I' for Inactive)
REMARK    1  A    between atoms: C_11  and  C_12 
REMARK    2  A    between atoms: C_15  and  N_16 
REMARK    3  A    between atoms: N_16  and  C_17 
REMARK    4  A    between atoms: C_18  and  O_19 
REMARK    5  A    between atoms: O_19  and  C_20 
ROOT
HETATM    1  C   UNL     1       4.988  28.092  52.081  1.00  0.00     0.077 C 
HETATM    2  C   UNL     1       4.551  29.547  52.068  1.00  0.00     0.023 C 
HETATM    3  N   UNL     1       4.188  30.755  52.058  1.00  0.00    -0.096 N 
HETATM    4  C   UNL     1       5.066  27.464  50.887  1.00  0.00     0.087 C 
ENDROOT
BRANCH   1   5
HETATM    5  C   UNL     1       5.228  27.428  53.325  1.00  0.00     0.118 A 
HETATM    6  N   UNL     1       5.925  26.315  53.488  1.00  0.00    -0.239 NA
HETATM    7  C   UNL     1       6.000  25.946  54.828  1.00  0.00     0.081 A 
HETATM    8  C   UNL     1       6.708  24.739  55.183  1.00  0.00     0.070 A 
HETATM    9  C   UNL     1       5.325  26.782  55.688  1.00  0.00     0.084 A 
HETATM   10  C   UNL     1       7.232  24.563  56.578  1.00  0.00     0.301 A 
HETATM   11  C   UNL     1       6.914  23.760  54.281  1.00  0.00     0.034 A 
HETATM   12  O   UNL     1       7.847  23.353  56.888  1.00  0.00    -0.274 OA
HETATM   13  O   UNL     1       7.135  25.431  57.441  1.00  0.00    -0.259 OA
HETATM   14  C   UNL     1       8.032  22.346  55.932  1.00  0.00     0.089 A 
HETATM   15  C   UNL     1       7.591  22.523  54.628  1.00  0.00    -0.001 A 
HETATM   16  C   UNL     1       8.669  21.177  56.340  1.00  0.00     0.038 A 
HETATM   17  C   UNL     1       7.796  21.498  53.703  1.00  0.00     0.014 A 
HETATM   18  C   UNL     1       8.435  20.317  54.096  1.00  0.00     0.001 A 
HETATM   19  C   UNL     1       8.870  20.156  55.414  1.00  0.00     0.003 A 
HETATM   20  S   UNL     1       4.628  28.078  54.825  1.00  0.00    -0.078 SA
ENDBRANCH   1   5
BRANCH   4  21
HETATM   21  N   UNL     1       4.806  28.009  49.641  1.00  0.00    -0.266 NA
HETATM   22  H   UNL     1       4.704  29.029  49.665  1.00  0.00     0.133 HD
BRANCH  21  23
HETATM   23  C   UNL     1       3.788  27.525  48.770  1.00  0.00     0.046 A 
HETATM   24  C   UNL     1       2.660  28.336  48.539  1.00  0.00     0.096 A 
HETATM   25  C   UNL     1       1.613  27.920  47.717  1.00  0.00     0.039 A 
HETATM   26  C   UNL     1       1.704  26.695  47.065  1.00  0.00     0.003 A 
HETATM   27  C   UNL     1       2.837  25.898  47.236  1.00  0.00     0.002 A 
HETATM   28  C   UNL     1       3.877  26.314  48.075  1.00  0.00     0.026 A 
BRANCH  24  29
HETATM   29  O   UNL     1       2.574  29.557  49.160  1.00  0.00    -0.288 OA
BRANCH  29  30
HETATM   30  C   UNL     1       1.380  29.595  49.941  1.00  0.00     0.505 C 
HETATM   31  F   UNL     1       1.505  28.699  50.953  1.00  0.00    -0.184 F 
HETATM   32  F   UNL     1       1.323  30.822  50.518  1.00  0.00    -0.184 F 
ENDBRANCH  29  30
ENDBRANCH  24  29
ENDBRANCH  21  23
ENDBRANCH   4  21
TORSDOF 5
ENDMDL
MODEL 3
REMARK VINA RESULT:     -10.0      1.989      2.372
REMARK  5 active torsions:
REMARK  status: ('A' for Active; 'I' for Inactive)
REMARK    1  A    between atoms: C_11  and  C_12 
REMARK    2  A    between atoms: C_15  and  N_16 
REMARK    3  A    between atoms: N_16  and  C_17 
REMARK    4  A    between atoms: C_18  and  O_19 
REMARK    5  A    between atoms: O_19  and  C_20 
ROOT
HETATM    1  C   UNL     1       5.234  28.656  53.621  1.00  0.00     0.077 C 
HETATM    2  C   UNL     1       4.404  29.861  54.030  1.00  0.00     0.023 C 
HETATM    3  N   UNL     1       3.715  30.862  54.369  1.00  0.00    -0.096 N 
HETATM    4  C   UNL     1       5.432  28.467  52.299  1.00  0.00     0.087 C 
ENDROOT
BRANCH   1   5
HETATM    5  C   UNL     1       5.706  27.743  54.617  1.00  0.00     0.118 A 
HETATM    6  N   UNL     1       6.303  26.584  54.385  1.00  0.00    -0.239 NA
HETATM    7  C   UNL     1       6.671  25.949  55.568  1.00  0.00     0.081 A 
HETATM    8  C   UNL     1       7.316  24.660  55.499  1.00  0.00     0.070 A 
HETATM    9  C   UNL     1       6.321  26.629  56.712  1.00  0.00     0.084 A 
HETATM   10  C   UNL     1       8.150  24.179  56.649  1.00  0.00     0.301 A 
HETATM   11  C   UNL     1       7.189  23.874  54.412  1.00  0.00     0.034 A 
HETATM   12  O   UNL     1       8.695  22.901  56.561  1.00  0.00    -0.274 OA
HETATM   13  O   UNL     1       8.361  24.859  57.650  1.00  0.00    -0.259 OA
HETATM   14  C   UNL     1       8.531  22.099  55.424  1.00  0.00     0.089 A 
HETATM   15  C   UNL     1       7.800  22.559  54.337  1.00  0.00    -0.001 A 
HETATM   16  C   UNL     1       9.126  20.840  55.431  1.00  0.00     0.038 A 
HETATM   17  C   UNL     1       7.662  21.732  53.221  1.00  0.00     0.014 A 
HETATM   18  C   UNL     1       8.253  20.464  53.211  1.00  0.00     0.001 A 
HETATM   19  C   UNL     1       8.984  20.018  54.315  1.00  0.00     0.003 A 
HETATM   20  S   UNL     1       5.569  28.107  56.314  1.00  0.00    -0.078 SA
ENDBRANCH   1   5
BRANCH   4  21
HETATM   21  N   UNL     1       4.974  29.266  51.266  1.00  0.00    -0.266 NA
HETATM   22  H   UNL     1       4.949  30.261  51.512  1.00  0.00     0.133 HD
BRANCH  21  23
HETATM   23  C   UNL     1       3.775  29.003  50.543  1.00  0.00     0.046 A 
HETATM   24  C   UNL     1       3.858  28.254  49.354  1.00  0.00     0.096 A 
HETATM   25  C   UNL     1       2.731  27.976  48.581  1.00  0.00     0.039 A 
HETATM   26  C   UNL     1       1.481  28.403  49.020  1.00  0.00     0.003 A 
HETATM   27  C   UNL     1       1.368  29.100  50.224  1.00  0.00     0.002 A 
HETATM   28  C   UNL     1       2.506  29.389  50.986  1.00  0.00     0.026 A 
BRANCH  24  29
HETATM   29  O   UNL     1       5.084  27.809  48.925  1.00  0.00    -0.288 OA
BRANCH  29  30
HETATM   30  C   UNL     1       4.976  27.393  47.566  1.00  0.00     0.505 C 
HETATM   31  F   UNL     1       6.001  27.946  46.868  1.00  0.00    -0.184 F 
HETATM   32  F   UNL     1       5.176  26.050  47.545  1.00  0.00    -0.184 F 
ENDBRANCH  29  30
ENDBRANCH  24  29
ENDBRANCH  21  23
ENDBRANCH   4  21
TORSDOF 5
ENDMDL
MODEL 4
REMARK VINA RESULT:     -10.0      1.795      2.457
REMARK  5 active torsions:
REMARK  status: ('A' for Active; 'I' for Inactive)
REMARK    1  A    between atoms: C_11  and  C_12 
REMARK    2  A    between atoms: C_15  and  N_16 
REMARK    3  A    between atoms: N_16  and  C_17 
REMARK    4  A    between atoms: C_18  and  O_19 
REMARK    5  A    between atoms: O_19  and  C_20 
ROOT
HETATM    1  C   UNL     1       4.761  27.060  49.640  1.00  0.00     0.077 C 
HETATM    2  C   UNL     1       3.946  26.017  48.894  1.00  0.00     0.023 C 
HETATM    3  N   UNL     1       3.269  25.151  48.275  1.00  0.00    -0.096 N 
HETATM    4  C   UNL     1       5.153  28.148  48.941  1.00  0.00     0.087 C 
ENDROOT
BRANCH   1   5
HETATM    5  C   UNL     1       5.140  26.833  51.000  1.00  0.00     0.118 A 
HETATM    6  N   UNL     1       5.876  25.825  51.442  1.00  0.00    -0.239 NA
HETATM    7  C   UNL     1       6.094  25.908  52.814  1.00  0.00     0.081 A 
HETATM    8  C   UNL     1       6.861  24.875  53.466  1.00  0.00     0.070 A 
HETATM    9  C   UNL     1       5.488  26.985  53.422  1.00  0.00     0.084 A 
HETATM   10  C   UNL     1       7.526  25.154  54.781  1.00  0.00     0.301 A 
HETATM   11  C   UNL     1       6.999  23.654  52.911  1.00  0.00     0.034 A 
HETATM   12  O   UNL     1       8.198  24.103  55.400  1.00  0.00    -0.274 OA
HETATM   13  O   UNL     1       7.496  26.256  55.322  1.00  0.00    -0.259 OA
HETATM   14  C   UNL     1       8.309  22.838  54.807  1.00  0.00     0.089 A 
HETATM   15  C   UNL     1       7.736  22.589  53.568  1.00  0.00    -0.001 A 
HETATM   16  C   UNL     1       9.012  21.859  55.503  1.00  0.00     0.038 A 
HETATM   17  C   UNL     1       7.871  21.317  53.007  1.00  0.00     0.014 A 
HETATM   18  C   UNL     1       8.573  20.321  53.693  1.00  0.00     0.001 A 
HETATM   19  C   UNL     1       9.143  20.591  54.940  1.00  0.00     0.003 A 
HETATM   20  S   UNL     1       4.678  27.939  52.264  1.00  0.00    -0.078 SA
ENDBRANCH   1   5
BRANCH   4  21
HETATM   21  N   UNL     1       4.877  28.428  47.614  1.00  0.00    -0.266 NA
HETATM   22  H   UNL     1       5.708  28.382  47.014  1.00  0.00     0.133 HD
BRANCH  21  23
HETATM   23  C   UNL     1       4.142  29.573  47.190  1.00  0.00     0.046 A 
HETATM   24  C   UNL     1       2.784  29.412  46.852  1.00  0.00     0.096 A 
HETATM   25  C   UNL     1       2.007  30.481  46.407  1.00  0.00     0.039 A 
HETATM   26  C   UNL     1       2.569  31.752  46.345  1.00  0.00     0.003 A 
HETATM   27  C   UNL     1       3.897  31.946  46.728  1.00  0.00     0.002 A 
HETATM   28  C   UNL     1       4.676  30.865  47.158  1.00  0.00     0.026 A 
BRANCH  24  29
HETATM   29  O   UNL     1       2.216  28.165  46.932  1.00  0.00    -0.288 OA
BRANCH  29  30
HETATM   30  C   UNL     1       1.111  28.217  47.832  1.00  0.00     0.505 C 
HETATM   31  F   UNL     1       0.481  27.014  47.803  1.00  0.00    -0.184 F 
HETATM   32  F   UNL     1       1.624  28.352  49.082  1.00  0.00    -0.184 F 
ENDBRANCH  29  30
ENDBRANCH  24  29
ENDBRANCH  21  23
ENDBRANCH   4  21
TORSDOF 5
ENDMDL
MODEL 5
REMARK VINA RESULT:      -9.8      6.811      9.877
REMARK  5 active torsions:
REMARK  status: ('A' for Active; 'I' for Inactive)
REMARK    1  A    between atoms: C_11  and  C_12 
REMARK    2  A    between atoms: C_15  and  N_16 
REMARK    3  A    between atoms: N_16  and  C_17 
REMARK    4  A    between atoms: C_18  and  O_19 
REMARK    5  A    between atoms: O_19  and  C_20 
ROOT
HETATM    1  C   UNL     1       6.942  29.114  56.269  1.00  0.00     0.077 C 
HETATM    2  C   UNL     1       5.429  29.249  56.289  1.00  0.00     0.023 C 
HETATM    3  N   UNL     1       4.172  29.362  56.306  1.00  0.00    -0.096 N 
HETATM    4  C   UNL     1       7.482  28.412  55.249  1.00  0.00     0.087 C 
ENDROOT
BRANCH   1   5
HETATM    5  C   UNL     1       7.722  29.656  57.339  1.00  0.00     0.118 A 
HETATM    6  N   UNL     1       7.248  30.296  58.396  1.00  0.00    -0.239 NA
HETATM    7  C   UNL     1       8.265  30.668  59.271  1.00  0.00     0.081 A 
HETATM    8  C   UNL     1       7.926  31.396  60.470  1.00  0.00     0.070 A 
HETATM    9  C   UNL     1       9.531  30.327  58.852  1.00  0.00     0.084 A 
HETATM   10  C   UNL     1       8.863  31.385  61.641  1.00  0.00     0.301 A 
HETATM   11  C   UNL     1       6.773  32.089  60.563  1.00  0.00     0.034 A 
HETATM   12  O   UNL     1       8.521  32.159  62.748  1.00  0.00    -0.274 OA
HETATM   13  O   UNL     1       9.903  30.734  61.657  1.00  0.00    -0.259 OA
HETATM   14  C   UNL     1       7.323  32.883  62.808  1.00  0.00     0.089 A 
HETATM   15  C   UNL     1       6.430  32.858  61.745  1.00  0.00    -0.001 A 
HETATM   16  C   UNL     1       7.069  33.615  63.965  1.00  0.00     0.038 A 
HETATM   17  C   UNL     1       5.245  33.590  61.845  1.00  0.00     0.014 A 
HETATM   18  C   UNL     1       4.975  34.331  62.999  1.00  0.00     0.001 A 
HETATM   19  C   UNL     1       5.886  34.345  64.058  1.00  0.00     0.003 A 
HETATM   20  S   UNL     1       9.455  29.482  57.372  1.00  0.00    -0.078 SA
ENDBRANCH   1   5
BRANCH   4  21
HETATM   21  N   UNL     1       6.805  27.812  54.201  1.00  0.00    -0.266 NA
HETATM   22  H   UNL     1       5.792  27.961  54.243  1.00  0.00     0.133 HD
BRANCH  21  23
HETATM   23  C   UNL     1       6.994  26.452  53.822  1.00  0.00     0.046 A 
HETATM   24  C   UNL     1       6.253  25.459  54.492  1.00  0.00     0.096 A 
HETATM   25  C   UNL     1       6.401  24.105  54.192  1.00  0.00     0.039 A 
HETATM   26  C   UNL     1       7.263  23.724  53.168  1.00  0.00     0.003 A 
HETATM   27  C   UNL     1       7.967  24.695  52.454  1.00  0.00     0.002 A 
HETATM   28  C   UNL     1       7.826  26.051  52.772  1.00  0.00     0.026 A 
BRANCH  24  29
HETATM   29  O   UNL     1       5.383  25.828  55.487  1.00  0.00    -0.288 OA
BRANCH  29  30
HETATM   30  C   UNL     1       5.751  25.162  56.693  1.00  0.00     0.505 C 
HETATM   31  F   UNL     1       6.720  25.891  57.304  1.00  0.00    -0.184 F 
HETATM   32  F   UNL     1       4.669  25.198  57.512  1.00  0.00    -0.184 F 
ENDBRANCH  29  30
ENDBRANCH  24  29
ENDBRANCH  21  23
ENDBRANCH   4  21
TORSDOF 5
ENDMDL
MODEL 6
REMARK VINA RESULT:      -9.6      6.729     10.307
REMARK  5 active torsions:
REMARK  status: ('A' for Active; 'I' for Inactive)
REMARK    1  A    between atoms: C_11  and  C_12 
REMARK    2  A    between atoms: C_15  and  N_16 
REMARK    3  A    between atoms: N_16  and  C_17 
REMARK    4  A    between atoms: C_18  and  O_19 
REMARK    5  A    between atoms: O_19  and  C_20 
ROOT
HETATM    1  C   UNL     1       7.058  29.090  56.463  1.00  0.00     0.077 C 
HETATM    2  C   UNL     1       8.542  29.350  56.265  1.00  0.00     0.023 C 
HETATM    3  N   UNL     1       9.775  29.566  56.102  1.00  0.00    -0.096 N 
HETATM    4  C   UNL     1       6.556  27.961  55.918  1.00  0.00     0.087 C 
ENDROOT
BRANCH   1   5
HETATM    5  C   UNL     1       6.247  30.056  57.137  1.00  0.00     0.118 A 
HETATM    6  N   UNL     1       6.573  30.705  58.244  1.00  0.00    -0.239 NA
HETATM    7  C   UNL     1       5.580  31.602  58.626  1.00  0.00     0.081 A 
HETATM    8  C   UNL     1       5.763  32.380  59.828  1.00  0.00     0.070 A 
HETATM    9  C   UNL     1       4.473  31.610  57.807  1.00  0.00     0.084 A 
HETATM   10  C   UNL     1       5.005  33.660  60.013  1.00  0.00     0.301 A 
HETATM   11  C   UNL     1       6.613  31.979  60.795  1.00  0.00     0.034 A 
HETATM   12  O   UNL     1       5.167  34.338  61.219  1.00  0.00    -0.274 OA
HETATM   13  O   UNL     1       4.257  34.122  59.155  1.00  0.00    -0.259 OA
HETATM   14  C   UNL     1       6.044  33.887  62.214  1.00  0.00     0.089 A 
HETATM   15  C   UNL     1       6.784  32.727  62.027  1.00  0.00    -0.001 A 
HETATM   16  C   UNL     1       6.142  34.642  63.379  1.00  0.00     0.038 A 
HETATM   17  C   UNL     1       7.651  32.312  63.040  1.00  0.00     0.014 A 
HETATM   18  C   UNL     1       7.761  33.059  64.217  1.00  0.00     0.001 A 
HETATM   19  C   UNL     1       7.007  34.223  64.387  1.00  0.00     0.003 A 
HETATM   20  S   UNL     1       4.690  30.524  56.510  1.00  0.00    -0.078 SA
ENDBRANCH   1   5
BRANCH   4  21
HETATM   21  N   UNL     1       7.251  26.997  55.210  1.00  0.00    -0.266 NA
HETATM   22  H   UNL     1       6.805  26.755  54.319  1.00  0.00     0.133 HD
BRANCH  21  23
HETATM   23  C   UNL     1       7.692  25.768  55.782  1.00  0.00     0.046 A 
HETATM   24  C   UNL     1       7.598  24.595  55.010  1.00  0.00     0.096 A 
HETATM   25  C   UNL     1       7.988  23.353  55.510  1.00  0.00     0.039 A 
HETATM   26  C   UNL     1       8.534  23.274  56.787  1.00  0.00     0.003 A 
HETATM   27  C   UNL     1       8.688  24.432  57.551  1.00  0.00     0.002 A 
HETATM   28  C   UNL     1       8.279  25.673  57.048  1.00  0.00     0.026 A 
BRANCH  24  29
HETATM   29  O   UNL     1       7.082  24.668  53.740  1.00  0.00    -0.288 OA
BRANCH  29  30
HETATM   30  C   UNL     1       8.091  24.287  52.807  1.00  0.00     0.505 C 
HETATM   31  F   UNL     1       7.710  23.125  52.217  1.00  0.00    -0.184 F 
HETATM   32  F   UNL     1       8.103  25.229  51.830  1.00  0.00    -0.184 F 
ENDBRANCH  29  30
ENDBRANCH  24  29
ENDBRANCH  21  23
ENDBRANCH   4  21
TORSDOF 5
ENDMDL
MODEL 7
REMARK VINA RESULT:      -9.4     16.625     20.138
REMARK  5 active torsions:
REMARK  status: ('A' for Active; 'I' for Inactive)
REMARK    1  A    between atoms: C_11  and  C_12 
REMARK    2  A    between atoms: C_15  and  N_16 
REMARK    3  A    between atoms: N_16  and  C_17 
REMARK    4  A    between atoms: C_18  and  O_19 
REMARK    5  A    between atoms: O_19  and  C_20 
ROOT
HETATM    1  C   UNL     1       6.988  34.547  69.024  1.00  0.00     0.077 C 
HETATM    2  C   UNL     1       6.791  33.440  70.047  1.00  0.00     0.023 C 
HETATM    3  N   UNL     1       6.628  32.521  70.895  1.00  0.00    -0.096 N 
HETATM    4  C   UNL     1       7.757  35.594  69.394  1.00  0.00     0.087 C 
ENDROOT
BRANCH   1   5
HETATM    5  C   UNL     1       6.313  34.483  67.764  1.00  0.00     0.118 A 
HETATM    6  N   UNL     1       6.751  33.860  66.681  1.00  0.00    -0.239 NA
HETATM    7  C   UNL     1       5.845  33.958  65.629  1.00  0.00     0.081 A 
HETATM    8  C   UNL     1       6.175  33.351  64.363  1.00  0.00     0.070 A 
HETATM    9  C   UNL     1       4.716  34.691  65.916  1.00  0.00     0.084 A 
HETATM   10  C   UNL     1       5.084  33.001  63.395  1.00  0.00     0.301 A 
HETATM   11  C   UNL     1       7.453  33.084  64.029  1.00  0.00     0.034 A 
HETATM   12  O   UNL     1       5.459  32.480  62.159  1.00  0.00    -0.274 OA
HETATM   13  O   UNL     1       3.892  33.160  63.647  1.00  0.00    -0.259 OA
HETATM   14  C   UNL     1       6.799  32.230  61.833  1.00  0.00     0.089 A 
HETATM   15  C   UNL     1       7.809  32.508  62.744  1.00  0.00    -0.001 A 
HETATM   16  C   UNL     1       7.069  31.697  60.576  1.00  0.00     0.038 A 
HETATM   17  C   UNL     1       9.132  32.241  62.385  1.00  0.00     0.014 A 
HETATM   18  C   UNL     1       9.420  31.705  61.125  1.00  0.00     0.001 A 
HETATM   19  C   UNL     1       8.390  31.434  60.221  1.00  0.00     0.003 A 
HETATM   20  S   UNL     1       4.754  35.225  67.536  1.00  0.00    -0.078 SA
ENDBRANCH   1   5
BRANCH   4  21
HETATM   21  N   UNL     1       8.406  35.764  70.604  1.00  0.00    -0.266 NA
HETATM   22  H   UNL     1       8.362  34.931  71.202  1.00  0.00     0.133 HD
BRANCH  21  23
HETATM   23  C   UNL     1       8.188  36.882  71.460  1.00  0.00     0.046 A 
HETATM   24  C   UNL     1       7.751  36.645  72.778  1.00  0.00     0.096 A 
HETATM   25  C   UNL     1       7.495  37.689  73.666  1.00  0.00     0.039 A 
HETATM   26  C   UNL     1       7.727  38.999  73.261  1.00  0.00     0.003 A 
HETATM   27  C   UNL     1       8.213  39.256  71.978  1.00  0.00     0.002 A 
HETATM   28  C   UNL     1       8.452  38.204  71.087  1.00  0.00     0.026 A 
BRANCH  24  29
HETATM   29  O   UNL     1       7.542  35.353  73.192  1.00  0.00    -0.288 OA
BRANCH  29  30
HETATM   30  C   UNL     1       6.159  35.184  73.499  1.00  0.00     0.505 C 
HETATM   31  F   UNL     1       5.444  35.363  72.358  1.00  0.00    -0.184 F 
HETATM   32  F   UNL     1       5.989  33.886  73.859  1.00  0.00    -0.184 F 
ENDBRANCH  29  30
ENDBRANCH  24  29
ENDBRANCH  21  23
ENDBRANCH   4  21
TORSDOF 5
ENDMDL
MODEL 8
REMARK VINA RESULT:      -9.3      4.805      8.771
REMARK  5 active torsions:
REMARK  status: ('A' for Active; 'I' for Inactive)
REMARK    1  A    between atoms: C_11  and  C_12 
REMARK    2  A    between atoms: C_15  and  N_16 
REMARK    3  A    between atoms: N_16  and  C_17 
REMARK    4  A    between atoms: C_18  and  O_19 
REMARK    5  A    between atoms: O_19  and  C_20 
ROOT
HETATM    1  C   UNL     1       6.482  26.876  53.513  1.00  0.00     0.077 C 
HETATM    2  C   UNL     1       5.947  26.627  52.112  1.00  0.00     0.023 C 
HETATM    3  N   UNL     1       5.503  26.421  50.950  1.00  0.00    -0.096 N 
HETATM    4  C   UNL     1       7.461  26.054  53.950  1.00  0.00     0.087 C 
ENDROOT
BRANCH   1   5
HETATM    5  C   UNL     1       5.901  27.896  54.329  1.00  0.00     0.118 A 
HETATM    6  N   UNL     1       6.512  28.552  55.303  1.00  0.00    -0.239 NA
HETATM    7  C   UNL     1       5.681  29.506  55.883  1.00  0.00     0.081 A 
HETATM    8  C   UNL     1       6.183  30.299  56.979  1.00  0.00     0.070 A 
HETATM    9  C   UNL     1       4.412  29.553  55.353  1.00  0.00     0.084 A 
HETATM   10  C   UNL     1       5.549  31.621  57.297  1.00  0.00     0.301 A 
HETATM   11  C   UNL     1       7.221  29.877  57.727  1.00  0.00     0.034 A 
HETATM   12  O   UNL     1       6.026  32.315  58.406  1.00  0.00    -0.274 OA
HETATM   13  O   UNL     1       4.637  32.101  56.629  1.00  0.00    -0.259 OA
HETATM   14  C   UNL     1       7.096  31.841  59.176  1.00  0.00     0.089 A 
HETATM   15  C   UNL     1       7.717  30.641  58.857  1.00  0.00    -0.001 A 
HETATM   16  C   UNL     1       7.505  32.616  60.258  1.00  0.00     0.038 A 
HETATM   17  C   UNL     1       8.783  30.205  59.646  1.00  0.00     0.014 A 
HETATM   18  C   UNL     1       9.207  30.971  60.737  1.00  0.00     0.001 A 
HETATM   19  C   UNL     1       8.568  32.175  61.044  1.00  0.00     0.003 A 
HETATM   20  S   UNL     1       4.262  28.429  54.078  1.00  0.00    -0.078 SA
ENDBRANCH   1   5
BRANCH   4  21
HETATM   21  N   UNL     1       8.048  25.013  53.253  1.00  0.00    -0.266 NA
HETATM   22  H   UNL     1       7.767  24.984  52.267  1.00  0.00     0.133 HD
BRANCH  21  23
HETATM   23  C   UNL     1       8.045  23.663  53.709  1.00  0.00     0.046 A 
HETATM   24  C   UNL     1       8.311  23.412  55.069  1.00  0.00     0.096 A 
HETATM   25  C   UNL     1       8.348  22.117  55.583  1.00  0.00     0.039 A 
HETATM   26  C   UNL     1       8.064  21.043  54.746  1.00  0.00     0.003 A 
HETATM   27  C   UNL     1       7.743  21.271  53.406  1.00  0.00     0.002 A 
HETATM   28  C   UNL     1       7.725  22.573  52.893  1.00  0.00     0.026 A 
BRANCH  24  29
HETATM   29  O   UNL     1       8.570  24.468  55.907  1.00  0.00    -0.288 OA
BRANCH  29  30
HETATM   30  C   UNL     1       7.806  24.310  57.101  1.00  0.00     0.505 C 
HETATM   31  F   UNL     1       8.133  25.316  57.952  1.00  0.00    -0.184 F 
HETATM   32  F   UNL     1       6.504  24.497  56.766  1.00  0.00    -0.184 F 
ENDBRANCH  29  30
ENDBRANCH  24  29
ENDBRANCH  21  23
ENDBRANCH   4  21
TORSDOF 5
ENDMDL
MODEL 9
REMARK VINA RESULT:      -9.3      6.455      9.405
REMARK  5 active torsions:
REMARK  status: ('A' for Active; 'I' for Inactive)
REMARK    1  A    between atoms: C_11  and  C_12 
REMARK    2  A    between atoms: C_15  and  N_16 
REMARK    3  A    between atoms: N_16  and  C_17 
REMARK    4  A    between atoms: C_18  and  O_19 
REMARK    5  A    between atoms: O_19  and  C_20 
ROOT
HETATM    1  C   UNL     1       8.214  29.010  57.060  1.00  0.00     0.077 C 
HETATM    2  C   UNL     1       9.634  29.522  57.240  1.00  0.00     0.023 C 
HETATM    3  N   UNL     1      10.811  29.948  57.390  1.00  0.00    -0.096 N 
HETATM    4  C   UNL     1       7.311  29.358  58.002  1.00  0.00     0.087 C 
ENDROOT
BRANCH   1   5
HETATM    5  C   UNL     1       7.903  28.139  55.968  1.00  0.00     0.118 A 
HETATM    6  N   UNL     1       7.972  26.817  55.987  1.00  0.00    -0.239 NA
HETATM    7  C   UNL     1       7.570  26.263  54.775  1.00  0.00     0.081 A 
HETATM    8  C   UNL     1       7.604  24.830  54.614  1.00  0.00     0.070 A 
HETATM    9  C   UNL     1       7.217  27.186  53.816  1.00  0.00     0.084 A 
HETATM   10  C   UNL     1       6.751  24.174  53.569  1.00  0.00     0.301 A 
HETATM   11  C   UNL     1       8.390  24.059  55.393  1.00  0.00     0.034 A 
HETATM   12  O   UNL     1       6.872  22.796  53.410  1.00  0.00    -0.274 OA
HETATM   13  O   UNL     1       5.968  24.799  52.859  1.00  0.00    -0.259 OA
HETATM   14  C   UNL     1       7.711  22.023  54.223  1.00  0.00     0.089 A 
HETATM   15  C   UNL     1       8.467  22.620  55.224  1.00  0.00    -0.001 A 
HETATM   16  C   UNL     1       7.751  20.651  53.990  1.00  0.00     0.038 A 
HETATM   17  C   UNL     1       9.288  21.816  56.016  1.00  0.00     0.014 A 
HETATM   18  C   UNL     1       9.341  20.436  55.796  1.00  0.00     0.001 A 
HETATM   19  C   UNL     1       8.574  19.853  54.783  1.00  0.00     0.003 A 
HETATM   20  S   UNL     1       7.335  28.767  54.446  1.00  0.00    -0.078 SA
ENDBRANCH   1   5
BRANCH   4  21
HETATM   21  N   UNL     1       7.533  30.152  59.114  1.00  0.00    -0.266 NA
HETATM   22  H   UNL     1       7.635  29.609  59.978  1.00  0.00     0.133 HD
BRANCH  21  23
HETATM   23  C   UNL     1       6.730  31.282  59.444  1.00  0.00     0.046 A 
HETATM   24  C   UNL     1       6.792  31.790  60.755  1.00  0.00     0.096 A 
HETATM   25  C   UNL     1       6.018  32.878  61.158  1.00  0.00     0.039 A 
HETATM   26  C   UNL     1       5.201  33.515  60.229  1.00  0.00     0.003 A 
HETATM   27  C   UNL     1       5.165  33.062  58.909  1.00  0.00     0.002 A 
HETATM   28  C   UNL     1       5.932  31.959  58.516  1.00  0.00     0.026 A 
BRANCH  24  29
HETATM   29  O   UNL     1       7.612  31.182  61.672  1.00  0.00    -0.288 OA
BRANCH  29  30
HETATM   30  C   UNL     1       8.470  32.165  62.249  1.00  0.00     0.505 C 
HETATM   31  F   UNL     1       8.360  32.087  63.600  1.00  0.00    -0.184 F 
HETATM   32  F   UNL     1       9.743  31.808  61.946  1.00  0.00    -0.184 F 
ENDBRANCH  29  30
ENDBRANCH  24  29
ENDBRANCH  21  23
ENDBRANCH   4  21
TORSDOF 5
ENDMDL
MODEL 10
REMARK VINA RESULT:      -9.1      8.331     11.329
REMARK  5 active torsions:
REMARK  status: ('A' for Active; 'I' for Inactive)
REMARK    1  A    between atoms: C_11  and  C_12 
REMARK    2  A    between atoms: C_15  and  N_16 
REMARK    3  A    between atoms: N_16  and  C_17 
REMARK    4  A    between atoms: C_18  and  O_19 
REMARK    5  A    between atoms: O_19  and  C_20 
ROOT
HETATM    1  C   UNL     1       6.657  31.561  59.301  1.00  0.00     0.077 C 
HETATM    2  C   UNL     1       7.883  31.163  60.107  1.00  0.00     0.023 C 
HETATM    3  N   UNL     1       8.901  30.834  60.774  1.00  0.00    -0.096 N 
HETATM    4  C   UNL     1       5.887  32.550  59.805  1.00  0.00     0.087 C 
ENDROOT
BRANCH   1   5
HETATM    5  C   UNL     1       6.324  30.848  58.107  1.00  0.00     0.118 A 
HETATM    6  N   UNL     1       6.565  29.567  57.876  1.00  0.00    -0.239 NA
HETATM    7  C   UNL     1       6.088  29.170  56.630  1.00  0.00     0.081 A 
HETATM    8  C   UNL     1       6.287  27.804  56.208  1.00  0.00     0.070 A 
HETATM    9  C   UNL     1       5.500  30.176  55.898  1.00  0.00     0.084 A 
HETATM   10  C   UNL     1       5.400  27.212  55.153  1.00  0.00     0.301 A 
HETATM   11  C   UNL     1       7.257  27.041  56.748  1.00  0.00     0.034 A 
HETATM   12  O   UNL     1       5.677  25.913  54.732  1.00  0.00    -0.274 OA
HETATM   13  O   UNL     1       4.459  27.822  54.653  1.00  0.00    -0.259 OA
HETATM   14  C   UNL     1       6.705  25.150  55.301  1.00  0.00     0.089 A 
HETATM   15  C   UNL     1       7.498  25.678  56.311  1.00  0.00    -0.001 A 
HETATM   16  C   UNL     1       6.892  23.858  54.818  1.00  0.00     0.038 A 
HETATM   17  C   UNL     1       8.510  24.885  56.855  1.00  0.00     0.014 A 
HETATM   18  C   UNL     1       8.712  23.584  56.381  1.00  0.00     0.001 A 
HETATM   19  C   UNL     1       7.905  23.071  55.363  1.00  0.00     0.003 A 
HETATM   20  S   UNL     1       5.492  31.629  56.791  1.00  0.00    -0.078 SA
ENDBRANCH   1   5
BRANCH   4  21
HETATM   21  N   UNL     1       6.102  33.260  60.973  1.00  0.00    -0.266 NA
HETATM   22  H   UNL     1       6.884  32.893  61.526  1.00  0.00     0.133 HD
BRANCH  21  23
HETATM   23  C   UNL     1       5.068  33.572  61.903  1.00  0.00     0.046 A 
HETATM   24  C   UNL     1       5.431  34.074  63.168  1.00  0.00     0.096 A 
HETATM   25  C   UNL     1       4.477  34.380  64.138  1.00  0.00     0.039 A 
HETATM   26  C   UNL     1       3.126  34.238  63.834  1.00  0.00     0.003 A 
HETATM   27  C   UNL     1       2.741  33.795  62.567  1.00  0.00     0.002 A 
HETATM   28  C   UNL     1       3.705  33.474  61.605  1.00  0.00     0.026 A 
BRANCH  24  29
HETATM   29  O   UNL     1       6.760  34.238  63.468  1.00  0.00    -0.288 OA
BRANCH  29  30
HETATM   30  C   UNL     1       7.133  33.281  64.457  1.00  0.00     0.505 C 
HETATM   31  F   UNL     1       8.191  32.571  63.985  1.00  0.00    -0.184 F 
HETATM   32  F   UNL     1       7.586  33.976  65.531  1.00  0.00    -0.184 F 
ENDBRANCH  29  30
ENDBRANCH  24  29
ENDBRANCH  21  23
ENDBRANCH   4  21
TORSDOF 5
ENDMDL
