MODEL 1
REMARK VINA RESULT:     -10.2      0.000      0.000
REMARK  6 active torsions:
REMARK  status: ('A' for Active; 'I' for Inactive)
REMARK    1  A    between atoms: C_4  and  C_5 
REMARK    2  A    between atoms: C_9  and  C_10 
REMARK       I    between atoms: C_10  and  N_11 
REMARK    3  A    between atoms: N_11  and  C_12 
REMARK    4  A    between atoms: C_12  and  C_13 
REMARK    5  A    between atoms: C_13  and  N_14 
REMARK    6  A    between atoms: C_13  and  C_18 
ROOT
HETATM    1  C   UNL     1       7.547  30.359  58.588  1.00  0.00     0.092 A 
HETATM    2  N   UNL     1       6.612  31.108  57.968  1.00  0.00    -0.246 NA
HETATM    3  C   UNL     1       5.917  30.581  56.952  1.00  0.00     0.069 A 
HETATM    4  C   UNL     1       6.096  29.259  56.486  1.00  0.00     0.008 A 
HETATM    5  C   UNL     1       7.042  28.476  57.199  1.00  0.00     0.046 A 
HETATM    6  C   UNL     1       7.778  29.043  58.246  1.00  0.00     0.052 A 
HETATM    7  C   UNL     1       4.988  31.405  56.330  1.00  0.00     0.032 A 
HETATM    8  C   UNL     1       4.237  30.979  55.235  1.00  0.00     0.002 A 
HETATM    9  C   UNL     1       4.427  29.703  54.734  1.00  0.00     0.001 A 
HETATM   10  C   UNL     1       5.351  28.856  55.344  1.00  0.00     0.015 A 
ENDROOT
BRANCH   5  11
HETATM   11  C   UNL     1       7.376  27.046  56.933  1.00  0.00     0.252 C 
HETATM   12  N   UNL     1       6.976  26.478  55.741  1.00  0.00    -0.355 N 
HETATM   13  H   UNL     1       6.286  27.016  55.221  1.00  0.00     0.162 HD
HETATM   14  O   UNL     1       7.940  26.387  57.800  1.00  0.00    -0.268 OA
BRANCH  12  15
HETATM   15  C   UNL     1       6.890  25.029  55.563  1.00  0.00     0.161 C 
BRANCH  15  16
HETATM   16  C   UNL     1       7.253  24.335  54.197  1.00  0.00     0.237 C 
BRANCH  16  17
HETATM   17  N   UNL     1       6.354  24.644  53.003  1.00  0.00    -0.069 N 
HETATM   18  H   UNL     1       6.272  23.741  52.523  1.00  0.00     0.279 HD
HETATM   19  C   UNL     1       4.926  24.990  53.325  1.00  0.00     0.270 C 
HETATM   20  C   UNL     1       6.975  25.544  51.975  1.00  0.00     0.270 C 
ENDBRANCH  16  17
BRANCH  16  21
HETATM   21  C   UNL     1       7.621  22.859  54.240  1.00  0.00    -0.026 A 
HETATM   22  C   UNL     1       7.819  22.237  55.489  1.00  0.00     0.009 A 
HETATM   23  C   UNL     1       8.226  20.905  55.573  1.00  0.00     0.001 A 
HETATM   24  C   UNL     1       8.448  20.171  54.413  1.00  0.00     0.000 A 
HETATM   25  C   UNL     1       8.263  20.767  53.170  1.00  0.00     0.001 A 
HETATM   26  C   UNL     1       7.857  22.102  53.084  1.00  0.00     0.009 A 
ENDBRANCH  16  21
ENDBRANCH  15  16
ENDBRANCH  12  15
ENDBRANCH   5  11
BRANCH   1  27
HETATM   27  C   UNL     1       8.309  31.047  59.620  1.00  0.00     0.104 A 
HETATM   28  O   UNL     1       7.694  31.209  60.833  1.00  0.00    -0.313 OA
HETATM   29  C   UNL     1       8.577  31.841  61.655  1.00  0.00     0.050 A 
HETATM   30  C   UNL     1       8.123  32.109  63.035  1.00  0.00     0.076 C 
HETATM   31  C   UNL     1       9.754  32.092  60.984  1.00  0.00     0.035 A 
HETATM   32  C   UNL     1       9.580  31.583  59.674  1.00  0.00     0.042 A 
ENDBRANCH   1  27
TORSDOF 6
ENDMDL
MODEL 2
REMARK VINA RESULT:     -10.2      1.417      2.880
REMARK  6 active torsions:
REMARK  status: ('A' for Active; 'I' for Inactive)
REMARK    1  A    between atoms: C_4  and  C_5 
REMARK    2  A    between atoms: C_9  and  C_10 
REMARK       I    between atoms: C_10  and  N_11 
REMARK    3  A    between atoms: N_11  and  C_12 
REMARK    4  A    between atoms: C_12  and  C_13 
REMARK    5  A    between atoms: C_13  and  N_14 
REMARK    6  A    between atoms: C_13  and  C_18 
ROOT
HETATM    1  C   UNL     1       7.513  29.445  57.839  1.00  0.00     0.092 A 
HETATM    2  N   UNL     1       6.662  30.120  57.039  1.00  0.00    -0.246 NA
HETATM    3  C   UNL     1       5.907  29.442  56.164  1.00  0.00     0.069 A 
HETATM    4  C   UNL     1       5.940  28.035  56.030  1.00  0.00     0.008 A 
HETATM    5  C   UNL     1       6.798  27.349  56.930  1.00  0.00     0.046 A 
HETATM    6  C   UNL     1       7.597  28.069  57.825  1.00  0.00     0.052 A 
HETATM    7  C   UNL     1       5.070  30.187  55.344  1.00  0.00     0.032 A 
HETATM    8  C   UNL     1       4.271  29.595  54.368  1.00  0.00     0.002 A 
HETATM    9  C   UNL     1       4.318  28.223  54.190  1.00  0.00     0.001 A 
HETATM   10  C   UNL     1       5.148  27.452  55.003  1.00  0.00     0.015 A 
ENDROOT
BRANCH   5  11
HETATM   11  C   UNL     1       6.973  25.870  57.020  1.00  0.00     0.252 C 
HETATM   12  N   UNL     1       8.165  25.313  56.600  1.00  0.00    -0.355 N 
HETATM   13  H   UNL     1       8.757  25.932  56.052  1.00  0.00     0.162 HD
HETATM   14  O   UNL     1       6.038  25.174  57.401  1.00  0.00    -0.268 OA
BRANCH  12  15
HETATM   15  C   UNL     1       8.281  23.893  56.269  1.00  0.00     0.161 C 
BRANCH  15  16
HETATM   16  C   UNL     1       7.400  23.226  55.146  1.00  0.00     0.237 C 
BRANCH  16  17
HETATM   17  N   UNL     1       7.778  21.810  54.720  1.00  0.00    -0.069 N 
HETATM   18  H   UNL     1       7.071  21.574  54.015  1.00  0.00     0.279 HD
HETATM   19  C   UNL     1       9.071  21.671  53.966  1.00  0.00     0.270 C 
HETATM   20  C   UNL     1       7.587  20.769  55.785  1.00  0.00     0.270 C 
ENDBRANCH  16  17
BRANCH  16  21
HETATM   21  C   UNL     1       7.036  24.083  53.943  1.00  0.00    -0.026 A 
HETATM   22  C   UNL     1       5.682  24.200  53.569  1.00  0.00     0.009 A 
HETATM   23  C   UNL     1       5.309  24.918  52.432  1.00  0.00     0.001 A 
HETATM   24  C   UNL     1       6.281  25.529  51.646  1.00  0.00     0.000 A 
HETATM   25  C   UNL     1       7.623  25.422  51.995  1.00  0.00     0.001 A 
HETATM   26  C   UNL     1       7.998  24.701  53.132  1.00  0.00     0.009 A 
ENDBRANCH  16  21
ENDBRANCH  15  16
ENDBRANCH  12  15
ENDBRANCH   5  11
BRANCH   1  27
HETATM   27  C   UNL     1       8.352  30.275  58.692  1.00  0.00     0.104 A 
HETATM   28  O   UNL     1       8.343  29.985  60.030  1.00  0.00    -0.313 OA
HETATM   29  C   UNL     1       9.205  30.847  60.638  1.00  0.00     0.050 A 
HETATM   30  C   UNL     1       9.364  30.704  62.100  1.00  0.00     0.076 C 
HETATM   31  C   UNL     1       9.767  31.692  59.707  1.00  0.00     0.035 A 
HETATM   32  C   UNL     1       9.216  31.325  58.455  1.00  0.00     0.042 A 
ENDBRANCH   1  27
TORSDOF 6
ENDMDL
MODEL 3
REMARK VINA RESULT:      -9.9      2.379      3.550
REMARK  6 active torsions:
REMARK  status: ('A' for Active; 'I' for Inactive)
REMARK    1  A    between atoms: C_4  and  C_5 
REMARK    2  A    between atoms: C_9  and  C_10 
REMARK       I    between atoms: C_10  and  N_11 
REMARK    3  A    between atoms: N_11  and  C_12 
REMARK    4  A    between atoms: C_12  and  C_13 
REMARK    5  A    between atoms: C_13  and  N_14 
REMARK    6  A    between atoms: C_13  and  C_18 
ROOT
HETATM    1  C   UNL     1       6.870  31.582  59.055  1.00  0.00     0.092 A 
HETATM    2  N   UNL     1       8.194  31.817  58.950  1.00  0.00    -0.246 NA
HETATM    3  C   UNL     1       8.954  30.983  58.228  1.00  0.00     0.069 A 
HETATM    4  C   UNL     1       8.444  29.854  57.547  1.00  0.00     0.008 A 
HETATM    5  C   UNL     1       7.038  29.669  57.624  1.00  0.00     0.046 A 
HETATM    6  C   UNL     1       6.257  30.535  58.399  1.00  0.00     0.052 A 
HETATM    7  C   UNL     1      10.315  31.255  58.177  1.00  0.00     0.032 A 
HETATM    8  C   UNL     1      11.208  30.433  57.492  1.00  0.00     0.002 A 
HETATM    9  C   UNL     1      10.738  29.298  56.853  1.00  0.00     0.001 A 
HETATM   10  C   UNL     1       9.375  29.006  56.888  1.00  0.00     0.015 A 
ENDROOT
BRANCH   5  11
HETATM   11  C   UNL     1       6.257  28.586  56.958  1.00  0.00     0.252 C 
HETATM   12  N   UNL     1       6.626  27.273  57.168  1.00  0.00    -0.355 N 
HETATM   13  H   UNL     1       7.545  27.147  57.587  1.00  0.00     0.162 HD
HETATM   14  O   UNL     1       5.349  28.883  56.190  1.00  0.00    -0.268 OA
BRANCH  12  15
HETATM   15  C   UNL     1       6.207  26.198  56.269  1.00  0.00     0.161 C 
BRANCH  15  16
HETATM   16  C   UNL     1       6.960  25.902  54.917  1.00  0.00     0.237 C 
BRANCH  16  17
HETATM   17  N   UNL     1       6.434  26.597  53.665  1.00  0.00    -0.069 N 
HETATM   18  H   UNL     1       6.767  26.000  52.900  1.00  0.00     0.279 HD
HETATM   19  C   UNL     1       4.941  26.585  53.482  1.00  0.00     0.270 C 
HETATM   20  C   UNL     1       7.065  27.930  53.384  1.00  0.00     0.270 C 
ENDBRANCH  16  17
BRANCH  16  21
HETATM   21  C   UNL     1       7.331  24.455  54.628  1.00  0.00    -0.026 A 
HETATM   22  C   UNL     1       7.628  24.074  53.304  1.00  0.00     0.009 A 
HETATM   23  C   UNL     1       7.905  22.744  52.983  1.00  0.00     0.001 A 
HETATM   24  C   UNL     1       7.886  21.770  53.975  1.00  0.00     0.000 A 
HETATM   25  C   UNL     1       7.591  22.125  55.288  1.00  0.00     0.001 A 
HETATM   26  C   UNL     1       7.312  23.455  55.611  1.00  0.00     0.009 A 
ENDBRANCH  16  21
ENDBRANCH  15  16
ENDBRANCH  12  15
ENDBRANCH   5  11
BRANCH   1  27
HETATM   27  C   UNL     1       6.145  32.492  59.930  1.00  0.00     0.104 A 
HETATM   28  O   UNL     1       4.899  32.880  59.517  1.00  0.00    -0.313 OA
HETATM   29  C   UNL     1       4.388  33.696  60.479  1.00  0.00     0.050 A 
HETATM   30  C   UNL     1       3.029  34.228  60.244  1.00  0.00     0.076 C 
HETATM   31  C   UNL     1       5.292  33.841  61.508  1.00  0.00     0.035 A 
HETATM   32  C   UNL     1       6.424  33.067  61.154  1.00  0.00     0.042 A 
ENDBRANCH   1  27
TORSDOF 6
ENDMDL
MODEL 4
REMARK VINA RESULT:      -9.8      4.258      8.776
REMARK  6 active torsions:
REMARK  status: ('A' for Active; 'I' for Inactive)
REMARK    1  A    between atoms: C_4  and  C_5 
REMARK    2  A    between atoms: C_9  and  C_10 
REMARK       I    between atoms: C_10  and  N_11 
REMARK    3  A    between atoms: N_11  and  C_12 
REMARK    4  A    between atoms: C_12  and  C_13 
REMARK    5  A    between atoms: C_13  and  N_14 
REMARK    6  A    between atoms: C_13  and  C_18 
ROOT
HETATM    1  C   UNL     1       6.617  24.085  53.954  1.00  0.00     0.092 A 
HETATM    2  N   UNL     1       6.335  24.544  55.191  1.00  0.00    -0.246 NA
HETATM    3  C   UNL     1       5.736  25.734  55.329  1.00  0.00     0.069 A 
HETATM    4  C   UNL     1       5.364  26.552  54.238  1.00  0.00     0.008 A 
HETATM    5  C   UNL     1       5.617  26.014  52.948  1.00  0.00     0.046 A 
HETATM    6  C   UNL     1       6.262  24.779  52.816  1.00  0.00     0.052 A 
HETATM    7  C   UNL     1       5.495  26.171  56.624  1.00  0.00     0.032 A 
HETATM    8  C   UNL     1       4.916  27.411  56.891  1.00  0.00     0.002 A 
HETATM    9  C   UNL     1       4.583  28.248  55.840  1.00  0.00     0.001 A 
HETATM   10  C   UNL     1       4.813  27.829  54.529  1.00  0.00     0.015 A 
ENDROOT
BRANCH   5  11
HETATM   11  C   UNL     1       5.277  26.659  51.646  1.00  0.00     0.252 C 
HETATM   12  N   UNL     1       4.505  25.962  50.738  1.00  0.00    -0.355 N 
HETATM   13  H   UNL     1       4.408  24.968  50.933  1.00  0.00     0.162 HD
HETATM   14  O   UNL     1       5.741  27.762  51.380  1.00  0.00    -0.268 OA
BRANCH  12  15
HETATM   15  C   UNL     1       4.464  26.320  49.321  1.00  0.00     0.161 C 
BRANCH  15  16
HETATM   16  C   UNL     1       3.362  27.283  48.737  1.00  0.00     0.237 C 
BRANCH  16  17
HETATM   17  N   UNL     1       2.537  26.761  47.565  1.00  0.00    -0.069 N 
HETATM   18  H   UNL     1       2.884  27.302  46.765  1.00  0.00     0.279 HD
HETATM   19  C   UNL     1       2.802  25.339  47.153  1.00  0.00     0.270 C 
HETATM   20  C   UNL     1       1.078  27.107  47.629  1.00  0.00     0.270 C 
ENDBRANCH  16  17
BRANCH  16  21
HETATM   21  C   UNL     1       3.747  28.741  48.533  1.00  0.00    -0.026 A 
HETATM   22  C   UNL     1       3.429  29.681  49.533  1.00  0.00     0.009 A 
HETATM   23  C   UNL     1       3.700  31.039  49.357  1.00  0.00     0.001 A 
HETATM   24  C   UNL     1       4.290  31.483  48.178  1.00  0.00     0.000 A 
HETATM   25  C   UNL     1       4.608  30.571  47.176  1.00  0.00     0.001 A 
HETATM   26  C   UNL     1       4.335  29.212  47.350  1.00  0.00     0.009 A 
ENDBRANCH  16  21
ENDBRANCH  15  16
ENDBRANCH  12  15
ENDBRANCH   5  11
BRANCH   1  27
HETATM   27  C   UNL     1       7.346  22.826  53.910  1.00  0.00     0.104 A 
HETATM   28  O   UNL     1       7.492  22.159  55.097  1.00  0.00    -0.313 OA
HETATM   29  C   UNL     1       8.168  21.006  54.834  1.00  0.00     0.050 A 
HETATM   30  C   UNL     1       8.428  20.114  55.984  1.00  0.00     0.076 C 
HETATM   31  C   UNL     1       8.463  20.924  53.491  1.00  0.00     0.035 A 
HETATM   32  C   UNL     1       7.936  22.096  52.897  1.00  0.00     0.042 A 
ENDBRANCH   1  27
TORSDOF 6
ENDMDL
MODEL 5
REMARK VINA RESULT:      -9.7      2.043      8.609
REMARK  6 active torsions:
REMARK  status: ('A' for Active; 'I' for Inactive)
REMARK    1  A    between atoms: C_4  and  C_5 
REMARK    2  A    between atoms: C_9  and  C_10 
REMARK       I    between atoms: C_10  and  N_11 
REMARK    3  A    between atoms: N_11  and  C_12 
REMARK    4  A    between atoms: C_12  and  C_13 
REMARK    5  A    between atoms: C_13  and  N_14 
REMARK    6  A    between atoms: C_13  and  C_18 
ROOT
HETATM    1  C   UNL     1       6.633  24.382  53.685  1.00  0.00     0.092 A 
HETATM    2  N   UNL     1       6.310  24.715  52.418  1.00  0.00    -0.246 NA
HETATM    3  C   UNL     1       5.664  25.865  52.186  1.00  0.00     0.069 A 
HETATM    4  C   UNL     1       5.300  26.775  53.204  1.00  0.00     0.008 A 
HETATM    5  C   UNL     1       5.709  26.427  54.519  1.00  0.00     0.046 A 
HETATM    6  C   UNL     1       6.365  25.213  54.752  1.00  0.00     0.052 A 
HETATM    7  C   UNL     1       5.331  26.146  50.867  1.00  0.00     0.032 A 
HETATM    8  C   UNL     1       4.621  27.291  50.511  1.00  0.00     0.002 A 
HETATM    9  C   UNL     1       4.217  28.176  51.496  1.00  0.00     0.001 A 
HETATM   10  C   UNL     1       4.542  27.918  52.828  1.00  0.00     0.015 A 
ENDROOT
BRANCH   5  11
HETATM   11  C   UNL     1       5.487  27.239  55.751  1.00  0.00     0.252 C 
HETATM   12  N   UNL     1       6.065  28.489  55.839  1.00  0.00    -0.355 N 
HETATM   13  H   UNL     1       6.785  28.678  55.145  1.00  0.00     0.162 HD
HETATM   14  O   UNL     1       4.854  26.758  56.685  1.00  0.00    -0.268 OA
BRANCH  12  15
HETATM   15  C   UNL     1       6.249  29.170  57.120  1.00  0.00     0.161 C 
BRANCH  15  16
HETATM   16  C   UNL     1       7.609  29.866  57.505  1.00  0.00     0.237 C 
BRANCH  16  17
HETATM   17  N   UNL     1       8.885  29.058  57.290  1.00  0.00    -0.069 N 
HETATM   18  H   UNL     1       9.404  29.189  58.166  1.00  0.00     0.279 HD
HETATM   19  C   UNL     1       8.716  27.566  57.215  1.00  0.00     0.270 C 
HETATM   20  C   UNL     1       9.803  29.614  56.240  1.00  0.00     0.270 C 
ENDBRANCH  16  17
BRANCH  16  21
HETATM   21  C   UNL     1       7.654  30.627  58.822  1.00  0.00    -0.026 A 
HETATM   22  C   UNL     1       6.728  31.665  59.047  1.00  0.00     0.009 A 
HETATM   23  C   UNL     1       6.779  32.435  60.210  1.00  0.00     0.001 A 
HETATM   24  C   UNL     1       7.757  32.187  61.166  1.00  0.00     0.000 A 
HETATM   25  C   UNL     1       8.685  31.170  60.961  1.00  0.00     0.001 A 
HETATM   26  C   UNL     1       8.637  30.399  59.796  1.00  0.00     0.009 A 
ENDBRANCH  16  21
ENDBRANCH  15  16
ENDBRANCH  12  15
ENDBRANCH   5  11
BRANCH   1  27
HETATM   27  C   UNL     1       7.254  23.075  53.844  1.00  0.00     0.104 A 
HETATM   28  O   UNL     1       7.284  22.559  55.112  1.00  0.00    -0.313 OA
HETATM   29  C   UNL     1       7.873  21.334  55.038  1.00  0.00     0.050 A 
HETATM   30  C   UNL     1       7.999  20.582  56.304  1.00  0.00     0.076 C 
HETATM   31  C   UNL     1       8.227  21.055  53.736  1.00  0.00     0.035 A 
HETATM   32  C   UNL     1       7.830  22.176  52.969  1.00  0.00     0.042 A 
ENDBRANCH   1  27
TORSDOF 6
ENDMDL
MODEL 6
REMARK VINA RESULT:      -9.7      2.736      8.764
REMARK  6 active torsions:
REMARK  status: ('A' for Active; 'I' for Inactive)
REMARK    1  A    between atoms: C_4  and  C_5 
REMARK    2  A    between atoms: C_9  and  C_10 
REMARK       I    between atoms: C_10  and  N_11 
REMARK    3  A    between atoms: N_11  and  C_12 
REMARK    4  A    between atoms: C_12  and  C_13 
REMARK    5  A    between atoms: C_13  and  N_14 
REMARK    6  A    between atoms: C_13  and  C_18 
ROOT
HETATM    1  C   UNL     1       5.680  25.985  52.255  1.00  0.00     0.092 A 
HETATM    2  N   UNL     1       6.402  24.857  52.098  1.00  0.00    -0.246 NA
HETATM    3  C   UNL     1       6.883  24.229  53.180  1.00  0.00     0.069 A 
HETATM    4  C   UNL     1       6.669  24.679  54.503  1.00  0.00     0.008 A 
HETATM    5  C   UNL     1       5.853  25.833  54.638  1.00  0.00     0.046 A 
HETATM    6  C   UNL     1       5.373  26.492  53.501  1.00  0.00     0.052 A 
HETATM    7  C   UNL     1       7.644  23.088  52.960  1.00  0.00     0.032 A 
HETATM    8  C   UNL     1       8.231  22.378  54.006  1.00  0.00     0.002 A 
HETATM    9  C   UNL     1       8.071  22.823  55.307  1.00  0.00     0.001 A 
HETATM   10  C   UNL     1       7.308  23.965  55.553  1.00  0.00     0.015 A 
ENDROOT
BRANCH   5  11
HETATM   11  C   UNL     1       5.444  26.473  55.923  1.00  0.00     0.252 C 
HETATM   12  N   UNL     1       5.560  27.842  56.053  1.00  0.00    -0.355 N 
HETATM   13  H   UNL     1       6.126  28.294  55.338  1.00  0.00     0.162 HD
HETATM   14  O   UNL     1       5.077  25.768  56.857  1.00  0.00    -0.268 OA
BRANCH  12  15
HETATM   15  C   UNL     1       5.581  28.497  57.361  1.00  0.00     0.161 C 
BRANCH  15  16
HETATM   16  C   UNL     1       6.493  29.748  57.651  1.00  0.00     0.237 C 
BRANCH  16  17
HETATM   17  N   UNL     1       5.909  31.120  57.328  1.00  0.00    -0.069 N 
HETATM   18  H   UNL     1       6.706  31.636  56.940  1.00  0.00     0.279 HD
HETATM   19  C   UNL     1       4.901  31.162  56.212  1.00  0.00     0.270 C 
HETATM   20  C   UNL     1       5.509  31.924  58.531  1.00  0.00     0.270 C 
ENDBRANCH  16  17
BRANCH  16  21
HETATM   21  C   UNL     1       7.953  29.659  57.232  1.00  0.00    -0.026 A 
HETATM   22  C   UNL     1       8.955  29.999  58.163  1.00  0.00     0.009 A 
HETATM   23  C   UNL     1      10.303  29.999  57.800  1.00  0.00     0.001 A 
HETATM   24  C   UNL     1      10.674  29.665  56.502  1.00  0.00     0.000 A 
HETATM   25  C   UNL     1       9.700  29.331  55.567  1.00  0.00     0.001 A 
HETATM   26  C   UNL     1       8.350  29.332  55.928  1.00  0.00     0.009 A 
ENDBRANCH  16  21
ENDBRANCH  15  16
ENDBRANCH  12  15
ENDBRANCH   5  11
BRANCH   1  27
HETATM   27  C   UNL     1       5.277  26.641  51.020  1.00  0.00     0.104 A 
HETATM   28  O   UNL     1       4.733  25.842  50.050  1.00  0.00    -0.313 OA
HETATM   29  C   UNL     1       4.401  26.645  49.001  1.00  0.00     0.050 A 
HETATM   30  C   UNL     1       3.778  25.987  47.834  1.00  0.00     0.076 C 
HETATM   31  C   UNL     1       4.727  27.953  49.284  1.00  0.00     0.035 A 
HETATM   32  C   UNL     1       5.293  27.950  50.582  1.00  0.00     0.042 A 
ENDBRANCH   1  27
TORSDOF 6
ENDMDL
MODEL 7
REMARK VINA RESULT:      -9.5      4.410      8.862
REMARK  6 active torsions:
REMARK  status: ('A' for Active; 'I' for Inactive)
REMARK    1  A    between atoms: C_4  and  C_5 
REMARK    2  A    between atoms: C_9  and  C_10 
REMARK       I    between atoms: C_10  and  N_11 
REMARK    3  A    between atoms: N_11  and  C_12 
REMARK    4  A    between atoms: C_12  and  C_13 
REMARK    5  A    between atoms: C_13  and  N_14 
REMARK    6  A    between atoms: C_13  and  C_18 
ROOT
HETATM    1  C   UNL     1       6.806  23.790  53.946  1.00  0.00     0.092 A 
HETATM    2  N   UNL     1       6.454  24.190  55.185  1.00  0.00    -0.246 NA
HETATM    3  C   UNL     1       5.856  25.377  55.347  1.00  0.00     0.069 A 
HETATM    4  C   UNL     1       5.554  26.251  54.278  1.00  0.00     0.008 A 
HETATM    5  C   UNL     1       5.879  25.775  52.980  1.00  0.00     0.046 A 
HETATM    6  C   UNL     1       6.523  24.542  52.825  1.00  0.00     0.052 A 
HETATM    7  C   UNL     1       5.541  25.753  56.646  1.00  0.00     0.032 A 
HETATM    8  C   UNL     1       4.955  26.983  56.940  1.00  0.00     0.002 A 
HETATM    9  C   UNL     1       4.690  27.873  55.913  1.00  0.00     0.001 A 
HETATM   10  C   UNL     1       4.994  27.518  54.599  1.00  0.00     0.015 A 
ENDROOT
BRANCH   5  11
HETATM   11  C   UNL     1       5.620  26.486  51.693  1.00  0.00     0.252 C 
HETATM   12  N   UNL     1       4.544  26.096  50.921  1.00  0.00    -0.355 N 
HETATM   13  H   UNL     1       4.133  25.202  51.179  1.00  0.00     0.162 HD
HETATM   14  O   UNL     1       6.400  27.353  51.316  1.00  0.00    -0.268 OA
BRANCH  12  15
HETATM   15  C   UNL     1       4.448  26.432  49.501  1.00  0.00     0.161 C 
BRANCH  15  16
HETATM   16  C   UNL     1       4.136  27.896  49.011  1.00  0.00     0.237 C 
BRANCH  16  17
HETATM   17  N   UNL     1       4.321  29.020  50.026  1.00  0.00    -0.069 N 
HETATM   18  H   UNL     1       4.896  28.591  50.760  1.00  0.00     0.279 HD
HETATM   19  C   UNL     1       5.159  30.184  49.575  1.00  0.00     0.270 C 
HETATM   20  C   UNL     1       3.065  29.424  50.742  1.00  0.00     0.270 C 
ENDBRANCH  16  17
BRANCH  16  21
HETATM   21  C   UNL     1       2.873  28.102  48.187  1.00  0.00    -0.026 A 
HETATM   22  C   UNL     1       1.858  27.125  48.231  1.00  0.00     0.009 A 
HETATM   23  C   UNL     1       0.716  27.239  47.438  1.00  0.00     0.001 A 
HETATM   24  C   UNL     1       0.567  28.326  46.584  1.00  0.00     0.000 A 
HETATM   25  C   UNL     1       1.559  29.300  46.522  1.00  0.00     0.001 A 
HETATM   26  C   UNL     1       2.705  29.186  47.314  1.00  0.00     0.009 A 
ENDBRANCH  16  21
ENDBRANCH  15  16
ENDBRANCH  12  15
ENDBRANCH   5  11
BRANCH   1  27
HETATM   27  C   UNL     1       7.528  22.528  53.883  1.00  0.00     0.104 A 
HETATM   28  O   UNL     1       7.974  22.014  55.071  1.00  0.00    -0.313 OA
HETATM   29  C   UNL     1       8.590  20.831  54.797  1.00  0.00     0.050 A 
HETATM   30  C   UNL     1       9.141  20.089  55.949  1.00  0.00     0.076 C 
HETATM   31  C   UNL     1       8.549  20.577  53.444  1.00  0.00     0.035 A 
HETATM   32  C   UNL     1       7.868  21.670  52.855  1.00  0.00     0.042 A 
ENDBRANCH   1  27
TORSDOF 6
ENDMDL
MODEL 8
REMARK VINA RESULT:      -9.4      2.139      8.804
REMARK  6 active torsions:
REMARK  status: ('A' for Active; 'I' for Inactive)
REMARK    1  A    between atoms: C_4  and  C_5 
REMARK    2  A    between atoms: C_9  and  C_10 
REMARK       I    between atoms: C_10  and  N_11 
REMARK    3  A    between atoms: N_11  and  C_12 
REMARK    4  A    between atoms: C_12  and  C_13 
REMARK    5  A    between atoms: C_13  and  N_14 
REMARK    6  A    between atoms: C_13  and  C_18 
ROOT
HETATM    1  C   UNL     1       7.084  24.888  53.747  1.00  0.00     0.092 A 
HETATM    2  N   UNL     1       6.442  24.989  52.565  1.00  0.00    -0.246 NA
HETATM    3  C   UNL     1       6.047  26.194  52.133  1.00  0.00     0.069 A 
HETATM    4  C   UNL     1       6.274  27.392  52.848  1.00  0.00     0.008 A 
HETATM    5  C   UNL     1       7.008  27.261  54.057  1.00  0.00     0.046 A 
HETATM    6  C   UNL     1       7.397  25.994  54.509  1.00  0.00     0.052 A 
HETATM    7  C   UNL     1       5.365  26.238  50.925  1.00  0.00     0.032 A 
HETATM    8  C   UNL     1       4.870  27.430  50.398  1.00  0.00     0.002 A 
HETATM    9  C   UNL     1       5.042  28.610  51.101  1.00  0.00     0.001 A 
HETATM   10  C   UNL     1       5.727  28.591  52.316  1.00  0.00     0.015 A 
ENDROOT
BRANCH   5  11
HETATM   11  C   UNL     1       7.414  28.375  54.963  1.00  0.00     0.252 C 
HETATM   12  N   UNL     1       6.459  28.959  55.771  1.00  0.00    -0.355 N 
HETATM   13  H   UNL     1       5.496  28.734  55.529  1.00  0.00     0.162 HD
HETATM   14  O   UNL     1       8.566  28.793  54.927  1.00  0.00    -0.268 OA
BRANCH  12  15
HETATM   15  C   UNL     1       6.651  30.281  56.367  1.00  0.00     0.161 C 
BRANCH  15  16
HETATM   16  C   UNL     1       6.149  30.620  57.821  1.00  0.00     0.237 C 
BRANCH  16  17
HETATM   17  N   UNL     1       4.925  31.523  57.937  1.00  0.00    -0.069 N 
HETATM   18  H   UNL     1       5.165  32.156  58.709  1.00  0.00     0.279 HD
HETATM   19  C   UNL     1       4.688  32.464  56.788  1.00  0.00     0.270 C 
HETATM   20  C   UNL     1       3.683  30.828  58.413  1.00  0.00     0.270 C 
ENDBRANCH  16  17
BRANCH  16  21
HETATM   21  C   UNL     1       7.203  30.986  58.855  1.00  0.00    -0.026 A 
HETATM   22  C   UNL     1       6.956  32.056  59.738  1.00  0.00     0.009 A 
HETATM   23  C   UNL     1       7.924  32.470  60.655  1.00  0.00     0.001 A 
HETATM   24  C   UNL     1       9.156  31.827  60.705  1.00  0.00     0.000 A 
HETATM   25  C   UNL     1       9.421  30.770  59.838  1.00  0.00     0.001 A 
HETATM   26  C   UNL     1       8.455  30.356  58.918  1.00  0.00     0.009 A 
ENDBRANCH  16  21
ENDBRANCH  15  16
ENDBRANCH  12  15
ENDBRANCH   5  11
BRANCH   1  27
HETATM   27  C   UNL     1       7.395  23.530  54.170  1.00  0.00     0.104 A 
HETATM   28  O   UNL     1       7.700  22.633  53.182  1.00  0.00    -0.313 OA
HETATM   29  C   UNL     1       7.984  21.445  53.785  1.00  0.00     0.050 A 
HETATM   30  C   UNL     1       8.358  20.324  52.898  1.00  0.00     0.076 C 
HETATM   31  C   UNL     1       7.862  21.566  55.152  1.00  0.00     0.035 A 
HETATM   32  C   UNL     1       7.481  22.907  55.399  1.00  0.00     0.042 A 
ENDBRANCH   1  27
TORSDOF 6
ENDMDL
MODEL 9
REMARK VINA RESULT:      -9.2      2.726      9.337
REMARK  6 active torsions:
REMARK  status: ('A' for Active; 'I' for Inactive)
REMARK    1  A    between atoms: C_4  and  C_5 
REMARK    2  A    between atoms: C_9  and  C_10 
REMARK       I    between atoms: C_10  and  N_11 
REMARK    3  A    between atoms: N_11  and  C_12 
REMARK    4  A    between atoms: C_12  and  C_13 
REMARK    5  A    between atoms: C_13  and  N_14 
REMARK    6  A    between atoms: C_13  and  C_18 
ROOT
HETATM    1  C   UNL     1       5.906  26.693  52.107  1.00  0.00     0.092 A 
HETATM    2  N   UNL     1       6.101  25.387  52.382  1.00  0.00    -0.246 NA
HETATM    3  C   UNL     1       6.668  25.038  53.544  1.00  0.00     0.069 A 
HETATM    4  C   UNL     1       7.074  25.971  54.525  1.00  0.00     0.008 A 
HETATM    5  C   UNL     1       6.798  27.334  54.234  1.00  0.00     0.046 A 
HETATM    6  C   UNL     1       6.224  27.687  53.008  1.00  0.00     0.052 A 
HETATM    7  C   UNL     1       6.872  23.682  53.764  1.00  0.00     0.032 A 
HETATM    8  C   UNL     1       7.492  23.205  54.918  1.00  0.00     0.002 A 
HETATM    9  C   UNL     1       7.936  24.102  55.874  1.00  0.00     0.001 A 
HETATM   10  C   UNL     1       7.740  25.469  55.677  1.00  0.00     0.015 A 
ENDROOT
BRANCH   5  11
HETATM   11  C   UNL     1       7.086  28.497  55.124  1.00  0.00     0.252 C 
HETATM   12  N   UNL     1       6.035  29.122  55.765  1.00  0.00    -0.355 N 
HETATM   13  H   UNL     1       5.112  28.882  55.409  1.00  0.00     0.162 HD
HETATM   14  O   UNL     1       8.235  28.915  55.217  1.00  0.00    -0.268 OA
BRANCH  12  15
HETATM   15  C   UNL     1       6.154  30.475  56.307  1.00  0.00     0.161 C 
BRANCH  15  16
HETATM   16  C   UNL     1       5.940  30.780  57.838  1.00  0.00     0.237 C 
BRANCH  16  17
HETATM   17  N   UNL     1       4.787  31.708  58.205  1.00  0.00    -0.069 N 
HETATM   18  H   UNL     1       5.123  32.191  59.045  1.00  0.00     0.279 HD
HETATM   19  C   UNL     1       4.520  32.838  57.248  1.00  0.00     0.270 C 
HETATM   20  C   UNL     1       3.544  31.003  58.665  1.00  0.00     0.270 C 
ENDBRANCH  16  17
BRANCH  16  21
HETATM   21  C   UNL     1       7.179  31.087  58.667  1.00  0.00    -0.026 A 
HETATM   22  C   UNL     1       7.083  32.011  59.727  1.00  0.00     0.009 A 
HETATM   23  C   UNL     1       8.208  32.375  60.468  1.00  0.00     0.001 A 
HETATM   24  C   UNL     1       9.449  31.827  60.162  1.00  0.00     0.000 A 
HETATM   25  C   UNL     1       9.566  30.917  59.116  1.00  0.00     0.001 A 
HETATM   26  C   UNL     1       8.441  30.553  58.372  1.00  0.00     0.009 A 
ENDBRANCH  16  21
ENDBRANCH  15  16
ENDBRANCH  12  15
ENDBRANCH   5  11
BRANCH   1  27
HETATM   27  C   UNL     1       5.365  26.975  50.785  1.00  0.00     0.104 A 
HETATM   28  O   UNL     1       4.649  25.973  50.188  1.00  0.00    -0.313 OA
HETATM   29  C   UNL     1       4.212  26.445  48.987  1.00  0.00     0.050 A 
HETATM   30  C   UNL     1       3.397  25.524  48.169  1.00  0.00     0.076 C 
HETATM   31  C   UNL     1       4.643  27.741  48.802  1.00  0.00     0.035 A 
HETATM   32  C   UNL     1       5.387  28.080  49.958  1.00  0.00     0.042 A 
ENDBRANCH   1  27
TORSDOF 6
ENDMDL
MODEL 10
REMARK VINA RESULT:      -9.0      2.633      8.002
REMARK  6 active torsions:
REMARK  status: ('A' for Active; 'I' for Inactive)
REMARK    1  A    between atoms: C_4  and  C_5 
REMARK    2  A    between atoms: C_9  and  C_10 
REMARK       I    between atoms: C_10  and  N_11 
REMARK    3  A    between atoms: N_11  and  C_12 
REMARK    4  A    between atoms: C_12  and  C_13 
REMARK    5  A    between atoms: C_13  and  N_14 
REMARK    6  A    between atoms: C_13  and  C_18 
ROOT
HETATM    1  C   UNL     1       5.833  25.756  53.248  1.00  0.00     0.092 A 
HETATM    2  N   UNL     1       5.668  25.623  51.916  1.00  0.00    -0.246 NA
HETATM    3  C   UNL     1       5.021  26.579  51.236  1.00  0.00     0.069 A 
HETATM    4  C   UNL     1       4.499  27.747  51.837  1.00  0.00     0.008 A 
HETATM    5  C   UNL     1       4.743  27.887  53.229  1.00  0.00     0.046 A 
HETATM    6  C   UNL     1       5.402  26.873  53.932  1.00  0.00     0.052 A 
HETATM    7  C   UNL     1       4.854  26.379  49.872  1.00  0.00     0.032 A 
HETATM    8  C   UNL     1       4.160  27.285  49.071  1.00  0.00     0.002 A 
HETATM    9  C   UNL     1       3.603  28.414  49.645  1.00  0.00     0.001 A 
HETATM   10  C   UNL     1       3.760  28.639  51.012  1.00  0.00     0.015 A 
ENDROOT
BRANCH   5  11
HETATM   11  C   UNL     1       4.337  29.045  54.079  1.00  0.00     0.252 C 
HETATM   12  N   UNL     1       5.288  29.981  54.429  1.00  0.00    -0.355 N 
HETATM   13  H   UNL     1       6.251  29.696  54.265  1.00  0.00     0.162 HD
HETATM   14  O   UNL     1       3.188  29.107  54.503  1.00  0.00    -0.268 OA
BRANCH  12  15
HETATM   15  C   UNL     1       5.099  30.893  55.557  1.00  0.00     0.161 C 
BRANCH  15  16
HETATM   16  C   UNL     1       5.681  30.580  56.987  1.00  0.00     0.237 C 
BRANCH  16  17
HETATM   17  N   UNL     1       6.120  31.772  57.832  1.00  0.00    -0.069 N 
HETATM   18  H   UNL     1       6.982  32.087  57.375  1.00  0.00     0.279 HD
HETATM   19  C   UNL     1       5.236  32.987  57.767  1.00  0.00     0.270 C 
HETATM   20  C   UNL     1       6.556  31.419  59.225  1.00  0.00     0.270 C 
ENDBRANCH  16  17
BRANCH  16  21
HETATM   21  C   UNL     1       6.672  29.431  57.101  1.00  0.00    -0.026 A 
HETATM   22  C   UNL     1       8.024  29.655  56.771  1.00  0.00     0.009 A 
HETATM   23  C   UNL     1       8.952  28.613  56.793  1.00  0.00     0.001 A 
HETATM   24  C   UNL     1       8.548  27.328  57.140  1.00  0.00     0.000 A 
HETATM   25  C   UNL     1       7.216  27.085  57.465  1.00  0.00     0.001 A 
HETATM   26  C   UNL     1       6.285  28.126  57.441  1.00  0.00     0.009 A 
ENDBRANCH  16  21
ENDBRANCH  15  16
ENDBRANCH  12  15
ENDBRANCH   5  11
BRANCH   1  27
HETATM   27  C   UNL     1       6.470  24.627  53.910  1.00  0.00     0.104 A 
HETATM   28  O   UNL     1       6.932  23.621  53.103  1.00  0.00    -0.313 OA
HETATM   29  C   UNL     1       7.511  22.688  53.907  1.00  0.00     0.050 A 
HETATM   30  C   UNL     1       8.095  21.507  53.238  1.00  0.00     0.076 C 
HETATM   31  C   UNL     1       7.425  23.078  55.225  1.00  0.00     0.035 A 
HETATM   32  C   UNL     1       6.753  24.324  55.227  1.00  0.00     0.042 A 
ENDBRANCH   1  27
TORSDOF 6
ENDMDL
