MODEL 1
REMARK VINA RESULT:      -8.3      0.000      0.000
REMARK  10 active torsions:
REMARK  status: ('A' for Active; 'I' for Inactive)
REMARK    1  A    between atoms: C_2  and  C_3 
REMARK    2  A    between atoms: C_3  and  N_4 
REMARK    3  A    between atoms: C_7  and  C_8 
REMARK       I    between atoms: C_8  and  N_9 
REMARK    4  A    between atoms: N_9  and  C_10 
REMARK    5  A    between atoms: C_10  and  C_11 
REMARK    6  A    between atoms: C_11  and  O_12 
REMARK    7  A    between atoms: C_11  and  C_13 
REMARK    8  A    between atoms: C_13  and  O_14 
REMARK    9  A    between atoms: O_14  and  C_15 
REMARK   10  A    between atoms: C_23  and  C_24 
ROOT
HETATM    1  C   UNL     1       6.898  26.583  53.858  1.00  0.00     0.255 C 
HETATM    2  N   UNL     1       5.602  26.694  54.308  1.00  0.00    -0.354 N 
HETATM    3  O   UNL     1       7.620  27.551  53.648  1.00  0.00    -0.268 OA
HETATM    4  H   UNL     1       5.129  25.830  54.549  1.00  0.00     0.162 HD
ENDROOT
BRANCH   2   5
HETATM    5  C   UNL     1       5.043  27.934  54.838  1.00  0.00     0.156 C 
BRANCH   5   6
HETATM    6  C   UNL     1       4.811  28.010  56.362  1.00  0.00     0.160 C 
BRANCH   6   7
HETATM    7  O   UNL     1       4.485  26.715  56.883  1.00  0.00    -0.392 OA
HETATM    8  H   UNL     1       5.065  26.558  57.661  1.00  0.00     0.210 HD
ENDBRANCH   6   7
BRANCH   6   9
HETATM    9  C   UNL     1       5.993  28.628  57.119  1.00  0.00     0.209 C 
BRANCH   9  10
HETATM   10  O   UNL     1       6.936  29.150  56.175  1.00  0.00    -0.349 OA
BRANCH  10  11
HETATM   11  C   UNL     1       8.127  29.576  56.697  1.00  0.00     0.069 A 
HETATM   12  C   UNL     1       8.024  30.368  57.845  1.00  0.00     0.043 A 
HETATM   13  C   UNL     1       9.169  30.866  58.480  1.00  0.00    -0.059 A 
HETATM   14  C   UNL     1       9.056  31.715  59.711  1.00  0.00     0.048 C 
HETATM   15  C   UNL     1      10.425  30.589  57.931  1.00  0.00     0.007 A 
HETATM   16  C   UNL     1      10.532  29.814  56.776  1.00  0.00     0.003 A 
HETATM   17  C   UNL     1       9.387  29.307  56.160  1.00  0.00     0.037 A 
ENDBRANCH  10  11
ENDBRANCH   9  10
ENDBRANCH   6   9
ENDBRANCH   5   6
ENDBRANCH   2   5
BRANCH   1  18
HETATM   18  C   UNL     1       7.351  25.218  53.703  1.00  0.00     0.075 A 
HETATM   19  C   UNL     1       7.671  24.608  52.470  1.00  0.00     0.158 A 
HETATM   20  N   UNL     1       8.010  23.329  52.596  1.00  0.00    -0.183 NA
HETATM   21  N   UNL     1       7.846  23.080  53.913  1.00  0.00    -0.268 N 
HETATM   22  C   UNL     1       7.538  24.213  54.644  1.00  0.00     0.052 A 
BRANCH  21  23
HETATM   23  C   UNL     1       7.945  21.696  54.377  1.00  0.00     0.106 C 
HETATM   24  C   UNL     1       7.755  20.732  53.200  1.00  0.00     0.034 C 
BRANCH  23  25
HETATM   25  C   UNL     1       9.262  21.402  55.117  1.00  0.00     0.022 C 
HETATM   26  C   UNL     1       9.067  20.519  56.342  1.00  0.00     0.007 C 
ENDBRANCH  23  25
ENDBRANCH  21  23
BRANCH  22  27
HETATM   27  C   UNL     1       7.453  24.269  56.170  1.00  0.00     0.038 A 
HETATM   28  C   UNL     1       8.740  24.309  56.966  1.00  0.00     0.011 A 
HETATM   29  C   UNL     1       7.847  25.501  56.947  1.00  0.00     0.011 A 
ENDBRANCH  22  27
ENDBRANCH   1  18
TORSDOF 10
ENDMDL
MODEL 2
REMARK VINA RESULT:      -8.3      1.292      1.755
REMARK  10 active torsions:
REMARK  status: ('A' for Active; 'I' for Inactive)
REMARK    1  A    between atoms: C_2  and  C_3 
REMARK    2  A    between atoms: C_3  and  N_4 
REMARK    3  A    between atoms: C_7  and  C_8 
REMARK       I    between atoms: C_8  and  N_9 
REMARK    4  A    between atoms: N_9  and  C_10 
REMARK    5  A    between atoms: C_10  and  C_11 
REMARK    6  A    between atoms: C_11  and  O_12 
REMARK    7  A    between atoms: C_11  and  C_13 
REMARK    8  A    between atoms: C_13  and  O_14 
REMARK    9  A    between atoms: O_14  and  C_15 
REMARK   10  A    between atoms: C_23  and  C_24 
ROOT
HETATM    1  C   UNL     1       5.294  26.130  55.959  1.00  0.00     0.255 C 
HETATM    2  N   UNL     1       5.217  27.322  55.273  1.00  0.00    -0.354 N 
HETATM    3  O   UNL     1       4.723  25.934  57.025  1.00  0.00    -0.268 OA
HETATM    4  H   UNL     1       5.640  27.343  54.352  1.00  0.00     0.162 HD
ENDROOT
BRANCH   2   5
HETATM    5  C   UNL     1       4.249  28.367  55.590  1.00  0.00     0.156 C 
BRANCH   5   6
HETATM    6  C   UNL     1       4.684  29.451  56.598  1.00  0.00     0.160 C 
BRANCH   6   7
HETATM    7  O   UNL     1       4.627  28.941  57.936  1.00  0.00    -0.392 OA
HETATM    8  H   UNL     1       4.748  27.967  57.884  1.00  0.00     0.210 HD
ENDBRANCH   6   7
BRANCH   6   9
HETATM    9  C   UNL     1       6.067  30.037  56.289  1.00  0.00     0.209 C 
BRANCH   9  10
HETATM   10  O   UNL     1       7.070  29.057  56.578  1.00  0.00    -0.349 OA
BRANCH  10  11
HETATM   11  C   UNL     1       8.300  29.547  56.926  1.00  0.00     0.069 A 
HETATM   12  C   UNL     1       8.307  30.410  58.026  1.00  0.00     0.043 A 
HETATM   13  C   UNL     1       9.501  30.978  58.487  1.00  0.00    -0.059 A 
HETATM   14  C   UNL     1       9.506  31.903  59.667  1.00  0.00     0.048 C 
HETATM   15  C   UNL     1      10.692  30.699  57.808  1.00  0.00     0.007 A 
HETATM   16  C   UNL     1      10.688  29.853  56.700  1.00  0.00     0.003 A 
HETATM   17  C   UNL     1       9.495  29.277  56.258  1.00  0.00     0.037 A 
ENDBRANCH  10  11
ENDBRANCH   9  10
ENDBRANCH   6   9
ENDBRANCH   5   6
ENDBRANCH   2   5
BRANCH   1  18
HETATM   18  C   UNL     1       6.066  25.112  55.282  1.00  0.00     0.075 A 
HETATM   19  C   UNL     1       5.880  24.716  53.940  1.00  0.00     0.158 A 
HETATM   20  N   UNL     1       6.684  23.722  53.575  1.00  0.00    -0.183 NA
HETATM   21  N   UNL     1       7.356  23.419  54.707  1.00  0.00    -0.268 N 
HETATM   22  C   UNL     1       7.087  24.291  55.745  1.00  0.00     0.052 A 
BRANCH  21  23
HETATM   23  C   UNL     1       8.197  22.223  54.717  1.00  0.00     0.106 C 
HETATM   24  C   UNL     1       7.467  21.071  55.417  1.00  0.00     0.034 C 
BRANCH  23  25
HETATM   25  C   UNL     1       8.661  21.801  53.311  1.00  0.00     0.022 C 
HETATM   26  C   UNL     1       8.186  20.406  52.926  1.00  0.00     0.007 C 
ENDBRANCH  23  25
ENDBRANCH  21  23
BRANCH  22  27
HETATM   27  C   UNL     1       7.816  24.296  57.091  1.00  0.00     0.038 A 
HETATM   28  C   UNL     1       9.276  24.697  57.121  1.00  0.00     0.011 A 
HETATM   29  C   UNL     1       8.255  25.577  57.756  1.00  0.00     0.011 A 
ENDBRANCH  22  27
ENDBRANCH   1  18
TORSDOF 10
ENDMDL
MODEL 3
REMARK VINA RESULT:      -7.9      3.131      6.276
REMARK  10 active torsions:
REMARK  status: ('A' for Active; 'I' for Inactive)
REMARK    1  A    between atoms: C_2  and  C_3 
REMARK    2  A    between atoms: C_3  and  N_4 
REMARK    3  A    between atoms: C_7  and  C_8 
REMARK       I    between atoms: C_8  and  N_9 
REMARK    4  A    between atoms: N_9  and  C_10 
REMARK    5  A    between atoms: C_10  and  C_11 
REMARK    6  A    between atoms: C_11  and  O_12 
REMARK    7  A    between atoms: C_11  and  C_13 
REMARK    8  A    between atoms: C_13  and  O_14 
REMARK    9  A    between atoms: O_14  and  C_15 
REMARK   10  A    between atoms: C_23  and  C_24 
ROOT
HETATM    1  C   UNL     1       7.099  26.355  55.215  1.00  0.00     0.255 C 
HETATM    2  N   UNL     1       5.817  26.616  54.786  1.00  0.00    -0.354 N 
HETATM    3  O   UNL     1       7.926  27.234  55.428  1.00  0.00    -0.268 OA
HETATM    4  H   UNL     1       5.183  25.826  54.742  1.00  0.00     0.162 HD
ENDROOT
BRANCH   2   5
HETATM    5  C   UNL     1       5.224  27.950  54.801  1.00  0.00     0.156 C 
BRANCH   5   6
HETATM    6  C   UNL     1       5.329  28.785  53.508  1.00  0.00     0.160 C 
BRANCH   6   7
HETATM    7  O   UNL     1       6.686  28.823  53.047  1.00  0.00    -0.392 OA
HETATM    8  H   UNL     1       7.095  29.642  53.407  1.00  0.00     0.210 HD
ENDBRANCH   6   7
BRANCH   6   9
HETATM    9  C   UNL     1       4.384  28.300  52.402  1.00  0.00     0.209 C 
BRANCH   9  10
HETATM   10  O   UNL     1       5.029  27.266  51.650  1.00  0.00    -0.349 OA
BRANCH  10  11
HETATM   11  C   UNL     1       4.926  27.368  50.288  1.00  0.00     0.069 A 
HETATM   12  C   UNL     1       4.229  26.329  49.666  1.00  0.00     0.043 A 
HETATM   13  C   UNL     1       4.049  26.315  48.277  1.00  0.00    -0.059 A 
HETATM   14  C   UNL     1       3.300  25.199  47.611  1.00  0.00     0.048 C 
HETATM   15  C   UNL     1       4.609  27.341  47.509  1.00  0.00     0.007 A 
HETATM   16  C   UNL     1       5.321  28.371  48.124  1.00  0.00     0.003 A 
HETATM   17  C   UNL     1       5.480  28.386  49.511  1.00  0.00     0.037 A 
ENDBRANCH  10  11
ENDBRANCH   9  10
ENDBRANCH   6   9
ENDBRANCH   5   6
ENDBRANCH   2   5
BRANCH   1  18
HETATM   18  C   UNL     1       7.368  24.952  55.441  1.00  0.00     0.075 A 
HETATM   19  C   UNL     1       7.267  24.303  56.691  1.00  0.00     0.158 A 
HETATM   20  N   UNL     1       7.621  23.023  56.641  1.00  0.00    -0.183 NA
HETATM   21  N   UNL     1       8.020  22.848  55.362  1.00  0.00    -0.268 N 
HETATM   22  C   UNL     1       7.801  23.960  54.571  1.00  0.00     0.052 A 
BRANCH  21  23
HETATM   23  C   UNL     1       8.667  21.587  55.002  1.00  0.00     0.106 C 
HETATM   24  C   UNL     1       9.062  20.817  56.268  1.00  0.00     0.034 C 
BRANCH  23  25
HETATM   25  C   UNL     1       7.804  20.710  54.076  1.00  0.00     0.022 C 
HETATM   26  C   UNL     1       8.481  20.411  52.745  1.00  0.00     0.007 C 
ENDBRANCH  23  25
ENDBRANCH  21  23
BRANCH  22  27
HETATM   27  C   UNL     1       8.003  24.004  53.054  1.00  0.00     0.038 A 
HETATM   28  C   UNL     1       6.804  24.285  52.172  1.00  0.00     0.011 A 
HETATM   29  C   UNL     1       7.899  25.291  52.273  1.00  0.00     0.011 A 
ENDBRANCH  22  27
ENDBRANCH   1  18
TORSDOF 10
ENDMDL
MODEL 4
REMARK VINA RESULT:      -7.9      2.201      4.078
REMARK  10 active torsions:
REMARK  status: ('A' for Active; 'I' for Inactive)
REMARK    1  A    between atoms: C_2  and  C_3 
REMARK    2  A    between atoms: C_3  and  N_4 
REMARK    3  A    between atoms: C_7  and  C_8 
REMARK       I    between atoms: C_8  and  N_9 
REMARK    4  A    between atoms: N_9  and  C_10 
REMARK    5  A    between atoms: C_10  and  C_11 
REMARK    6  A    between atoms: C_11  and  O_12 
REMARK    7  A    between atoms: C_11  and  C_13 
REMARK    8  A    between atoms: C_13  and  O_14 
REMARK    9  A    between atoms: O_14  and  C_15 
REMARK   10  A    between atoms: C_23  and  C_24 
ROOT
HETATM    1  C   UNL     1       7.551  27.000  57.216  1.00  0.00     0.255 C 
HETATM    2  N   UNL     1       8.716  27.731  57.170  1.00  0.00    -0.354 N 
HETATM    3  O   UNL     1       6.458  27.496  57.464  1.00  0.00    -0.268 OA
HETATM    4  H   UNL     1       9.546  27.243  56.854  1.00  0.00     0.162 HD
ENDROOT
BRANCH   2   5
HETATM    5  C   UNL     1       8.744  29.190  57.139  1.00  0.00     0.156 C 
BRANCH   5   6
HETATM    6  C   UNL     1      10.129  29.871  57.137  1.00  0.00     0.160 C 
BRANCH   6   7
HETATM    7  O   UNL     1      10.478  30.292  55.813  1.00  0.00    -0.392 OA
HETATM    8  H   UNL     1       9.644  30.354  55.296  1.00  0.00     0.210 HD
ENDBRANCH   6   7
BRANCH   6   9
HETATM    9  C   UNL     1      10.226  31.035  58.131  1.00  0.00     0.209 C 
BRANCH   9  10
HETATM   10  O   UNL     1       8.914  31.551  58.382  1.00  0.00    -0.349 OA
BRANCH  10  11
HETATM   11  C   UNL     1       8.619  31.817  59.692  1.00  0.00     0.069 A 
HETATM   12  C   UNL     1       7.305  32.230  59.933  1.00  0.00     0.043 A 
HETATM   13  C   UNL     1       6.873  32.530  61.231  1.00  0.00    -0.059 A 
HETATM   14  C   UNL     1       5.463  32.974  61.488  1.00  0.00     0.048 C 
HETATM   15  C   UNL     1       7.785  32.444  62.288  1.00  0.00     0.007 A 
HETATM   16  C   UNL     1       9.101  32.048  62.050  1.00  0.00     0.003 A 
HETATM   17  C   UNL     1       9.519  31.734  60.755  1.00  0.00     0.037 A 
ENDBRANCH  10  11
ENDBRANCH   9  10
ENDBRANCH   6   9
ENDBRANCH   5   6
ENDBRANCH   2   5
BRANCH   1  18
HETATM   18  C   UNL     1       7.723  25.600  56.895  1.00  0.00     0.075 A 
HETATM   19  C   UNL     1       8.711  24.759  57.452  1.00  0.00     0.158 A 
HETATM   20  N   UNL     1       8.690  23.529  56.949  1.00  0.00    -0.183 NA
HETATM   21  N   UNL     1       7.724  23.583  56.006  1.00  0.00    -0.268 N 
HETATM   22  C   UNL     1       7.044  24.786  55.996  1.00  0.00     0.052 A 
BRANCH  21  23
HETATM   23  C   UNL     1       7.565  22.439  55.108  1.00  0.00     0.106 C 
HETATM   24  C   UNL     1       8.577  22.527  53.960  1.00  0.00     0.034 C 
BRANCH  23  25
HETATM   25  C   UNL     1       7.677  21.085  55.832  1.00  0.00     0.022 C 
HETATM   26  C   UNL     1       8.684  20.147  55.179  1.00  0.00     0.007 C 
ENDBRANCH  23  25
ENDBRANCH  21  23
BRANCH  22  27
HETATM   27  C   UNL     1       5.802  25.078  55.151  1.00  0.00     0.038 A 
HETATM   28  C   UNL     1       5.864  26.199  54.136  1.00  0.00     0.011 A 
HETATM   29  C   UNL     1       5.758  24.788  53.671  1.00  0.00     0.011 A 
ENDBRANCH  22  27
ENDBRANCH   1  18
TORSDOF 10
ENDMDL
MODEL 5
REMARK VINA RESULT:      -7.9      2.471      7.826
REMARK  10 active torsions:
REMARK  status: ('A' for Active; 'I' for Inactive)
REMARK    1  A    between atoms: C_2  and  C_3 
REMARK    2  A    between atoms: C_3  and  N_4 
REMARK    3  A    between atoms: C_7  and  C_8 
REMARK       I    between atoms: C_8  and  N_9 
REMARK    4  A    between atoms: N_9  and  C_10 
REMARK    5  A    between atoms: C_10  and  C_11 
REMARK    6  A    between atoms: C_11  and  O_12 
REMARK    7  A    between atoms: C_11  and  C_13 
REMARK    8  A    between atoms: C_13  and  O_14 
REMARK    9  A    between atoms: O_14  and  C_15 
REMARK   10  A    between atoms: C_23  and  C_24 
ROOT
HETATM    1  C   UNL     1       5.344  29.676  56.381  1.00  0.00     0.255 C 
HETATM    2  N   UNL     1       5.867  29.729  55.109  1.00  0.00    -0.354 N 
HETATM    3  O   UNL     1       4.331  29.047  56.663  1.00  0.00    -0.268 OA
HETATM    4  H   UNL     1       6.764  30.191  55.006  1.00  0.00     0.162 HD
ENDROOT
BRANCH   2   5
HETATM    5  C   UNL     1       5.444  28.840  54.032  1.00  0.00     0.156 C 
BRANCH   5   6
HETATM    6  C   UNL     1       6.517  27.923  53.409  1.00  0.00     0.160 C 
BRANCH   6   7
HETATM    7  O   UNL     1       7.827  28.451  53.652  1.00  0.00    -0.392 OA
HETATM    8  H   UNL     1       8.441  27.687  53.727  1.00  0.00     0.210 HD
ENDBRANCH   6   7
BRANCH   6   9
HETATM    9  C   UNL     1       6.411  26.468  53.882  1.00  0.00     0.209 C 
BRANCH   9  10
HETATM   10  O   UNL     1       7.609  25.768  53.529  1.00  0.00    -0.349 OA
BRANCH  10  11
HETATM   11  C   UNL     1       7.800  24.563  54.149  1.00  0.00     0.069 A 
HETATM   12  C   UNL     1       7.810  23.452  53.301  1.00  0.00     0.043 A 
HETATM   13  C   UNL     1       8.001  22.161  53.808  1.00  0.00    -0.059 A 
HETATM   14  C   UNL     1       8.011  20.971  52.896  1.00  0.00     0.048 C 
HETATM   15  C   UNL     1       8.147  21.989  55.188  1.00  0.00     0.007 A 
HETATM   16  C   UNL     1       8.121  23.092  56.041  1.00  0.00     0.003 A 
HETATM   17  C   UNL     1       7.948  24.378  55.525  1.00  0.00     0.037 A 
ENDBRANCH  10  11
ENDBRANCH   9  10
ENDBRANCH   6   9
ENDBRANCH   5   6
ENDBRANCH   2   5
BRANCH   1  18
HETATM   18  C   UNL     1       6.126  30.388  57.368  1.00  0.00     0.075 A 
HETATM   19  C   UNL     1       5.891  31.719  57.777  1.00  0.00     0.158 A 
HETATM   20  N   UNL     1       6.785  32.157  58.658  1.00  0.00    -0.183 NA
HETATM   21  N   UNL     1       7.652  31.127  58.776  1.00  0.00    -0.268 N 
HETATM   22  C   UNL     1       7.248  29.998  58.088  1.00  0.00     0.052 A 
BRANCH  21  23
HETATM   23  C   UNL     1       8.887  31.342  59.530  1.00  0.00     0.106 C 
HETATM   24  C   UNL     1      10.046  31.631  58.569  1.00  0.00     0.034 C 
BRANCH  23  25
HETATM   25  C   UNL     1       8.763  32.454  60.586  1.00  0.00     0.022 C 
HETATM   26  C   UNL     1       8.695  31.914  62.008  1.00  0.00     0.007 C 
ENDBRANCH  23  25
ENDBRANCH  21  23
BRANCH  22  27
HETATM   27  C   UNL     1       7.940  28.636  58.167  1.00  0.00     0.038 A 
HETATM   28  C   UNL     1       7.320  27.465  57.433  1.00  0.00     0.011 A 
HETATM   29  C   UNL     1       8.624  28.018  56.972  1.00  0.00     0.011 A 
ENDBRANCH  22  27
ENDBRANCH   1  18
TORSDOF 10
ENDMDL
MODEL 6
REMARK VINA RESULT:      -7.9      2.692      4.590
REMARK  10 active torsions:
REMARK  status: ('A' for Active; 'I' for Inactive)
REMARK    1  A    between atoms: C_2  and  C_3 
REMARK    2  A    between atoms: C_3  and  N_4 
REMARK    3  A    between atoms: C_7  and  C_8 
REMARK       I    between atoms: C_8  and  N_9 
REMARK    4  A    between atoms: N_9  and  C_10 
REMARK    5  A    between atoms: C_10  and  C_11 
REMARK    6  A    between atoms: C_11  and  O_12 
REMARK    7  A    between atoms: C_11  and  C_13 
REMARK    8  A    between atoms: C_13  and  O_14 
REMARK    9  A    between atoms: O_14  and  C_15 
REMARK   10  A    between atoms: C_23  and  C_24 
ROOT
HETATM    1  C   UNL     1       7.911  27.540  57.145  1.00  0.00     0.255 C 
HETATM    2  N   UNL     1       8.447  28.800  57.001  1.00  0.00    -0.354 N 
HETATM    3  O   UNL     1       7.652  27.043  58.235  1.00  0.00    -0.268 OA
HETATM    4  H   UNL     1       8.523  29.156  56.055  1.00  0.00     0.162 HD
ENDROOT
BRANCH   2   5
HETATM    5  C   UNL     1       8.511  29.771  58.089  1.00  0.00     0.156 C 
BRANCH   5   6
HETATM    6  C   UNL     1       9.875  30.443  58.357  1.00  0.00     0.160 C 
BRANCH   6   7
HETATM    7  O   UNL     1      10.565  30.681  57.124  1.00  0.00    -0.392 OA
HETATM    8  H   UNL     1       9.980  30.373  56.397  1.00  0.00     0.210 HD
ENDBRANCH   6   7
BRANCH   6   9
HETATM    9  C   UNL     1       9.757  31.731  59.182  1.00  0.00     0.209 C 
BRANCH   9  10
HETATM   10  O   UNL     1       9.453  31.395  60.540  1.00  0.00    -0.349 OA
BRANCH  10  11
HETATM   11  C   UNL     1       8.370  32.033  61.084  1.00  0.00     0.069 A 
HETATM   12  C   UNL     1       8.455  32.284  62.457  1.00  0.00     0.043 A 
HETATM   13  C   UNL     1       7.416  32.933  63.135  1.00  0.00    -0.059 A 
HETATM   14  C   UNL     1       7.510  33.201  64.607  1.00  0.00     0.048 C 
HETATM   15  C   UNL     1       6.268  33.301  62.426  1.00  0.00     0.007 A 
HETATM   16  C   UNL     1       6.171  33.037  61.059  1.00  0.00     0.003 A 
HETATM   17  C   UNL     1       7.219  32.405  60.388  1.00  0.00     0.037 A 
ENDBRANCH  10  11
ENDBRANCH   9  10
ENDBRANCH   6   9
ENDBRANCH   5   6
ENDBRANCH   2   5
BRANCH   1  18
HETATM   18  C   UNL     1       7.629  26.875  55.892  1.00  0.00     0.075 A 
HETATM   19  C   UNL     1       7.413  27.532  54.660  1.00  0.00     0.158 A 
HETATM   20  N   UNL     1       7.121  26.695  53.670  1.00  0.00    -0.183 NA
HETATM   21  N   UNL     1       7.079  25.486  54.271  1.00  0.00    -0.268 N 
HETATM   22  C   UNL     1       7.471  25.527  55.597  1.00  0.00     0.052 A 
BRANCH  21  23
HETATM   23  C   UNL     1       6.586  24.344  53.502  1.00  0.00     0.106 C 
HETATM   24  C   UNL     1       5.382  24.762  52.651  1.00  0.00     0.034 C 
BRANCH  23  25
HETATM   25  C   UNL     1       7.673  23.692  52.628  1.00  0.00     0.022 C 
HETATM   26  C   UNL     1       7.900  22.224  52.964  1.00  0.00     0.007 C 
ENDBRANCH  23  25
ENDBRANCH  21  23
BRANCH  22  27
HETATM   27  C   UNL     1       7.677  24.297  56.483  1.00  0.00     0.038 A 
HETATM   28  C   UNL     1       8.825  23.361  56.167  1.00  0.00     0.011 A 
HETATM   29  C   UNL     1       8.858  24.174  57.415  1.00  0.00     0.011 A 
ENDBRANCH  22  27
ENDBRANCH   1  18
TORSDOF 10
ENDMDL
MODEL 7
REMARK VINA RESULT:      -7.9      3.679      9.341
REMARK  10 active torsions:
REMARK  status: ('A' for Active; 'I' for Inactive)
REMARK    1  A    between atoms: C_2  and  C_3 
REMARK    2  A    between atoms: C_3  and  N_4 
REMARK    3  A    between atoms: C_7  and  C_8 
REMARK       I    between atoms: C_8  and  N_9 
REMARK    4  A    between atoms: N_9  and  C_10 
REMARK    5  A    between atoms: C_10  and  C_11 
REMARK    6  A    between atoms: C_11  and  O_12 
REMARK    7  A    between atoms: C_11  and  C_13 
REMARK    8  A    between atoms: C_13  and  O_14 
REMARK    9  A    between atoms: O_14  and  C_15 
REMARK   10  A    between atoms: C_23  and  C_24 
ROOT
HETATM    1  C   UNL     1       8.049  30.696  58.748  1.00  0.00     0.255 C 
HETATM    2  N   UNL     1       7.476  29.455  58.579  1.00  0.00    -0.354 N 
HETATM    3  O   UNL     1       9.069  31.048  58.168  1.00  0.00    -0.268 OA
HETATM    4  H   UNL     1       6.578  29.305  59.025  1.00  0.00     0.162 HD
ENDROOT
BRANCH   2   5
HETATM    5  C   UNL     1       7.853  28.540  57.506  1.00  0.00     0.156 C 
BRANCH   5   6
HETATM    6  C   UNL     1       7.189  28.752  56.130  1.00  0.00     0.160 C 
BRANCH   6   7
HETATM    7  O   UNL     1       8.159  29.180  55.167  1.00  0.00    -0.392 OA
HETATM    8  H   UNL     1       9.033  28.839  55.460  1.00  0.00     0.210 HD
ENDBRANCH   6   7
BRANCH   6   9
HETATM    9  C   UNL     1       6.427  27.515  55.636  1.00  0.00     0.209 C 
BRANCH   9  10
HETATM   10  O   UNL     1       7.250  26.356  55.804  1.00  0.00    -0.349 OA
BRANCH  10  11
HETATM   11  C   UNL     1       7.449  25.598  54.681  1.00  0.00     0.069 A 
HETATM   12  C   UNL     1       7.529  24.220  54.901  1.00  0.00     0.043 A 
HETATM   13  C   UNL     1       7.726  23.333  53.835  1.00  0.00    -0.059 A 
HETATM   14  C   UNL     1       7.811  21.854  54.073  1.00  0.00     0.048 C 
HETATM   15  C   UNL     1       7.879  23.846  52.544  1.00  0.00     0.007 A 
HETATM   16  C   UNL     1       7.818  25.221  52.322  1.00  0.00     0.003 A 
HETATM   17  C   UNL     1       7.603  26.098  53.387  1.00  0.00     0.037 A 
ENDBRANCH  10  11
ENDBRANCH   9  10
ENDBRANCH   6   9
ENDBRANCH   5   6
ENDBRANCH   2   5
BRANCH   1  18
HETATM   18  C   UNL     1       7.309  31.568  59.634  1.00  0.00     0.075 A 
HETATM   19  C   UNL     1       6.065  32.161  59.330  1.00  0.00     0.158 A 
HETATM   20  N   UNL     1       5.622  32.963  60.293  1.00  0.00    -0.183 NA
HETATM   21  N   UNL     1       6.616  32.948  61.207  1.00  0.00    -0.268 N 
HETATM   22  C   UNL     1       7.619  32.048  60.901  1.00  0.00     0.052 A 
BRANCH  21  23
HETATM   23  C   UNL     1       6.546  33.889  62.325  1.00  0.00     0.106 C 
HETATM   24  C   UNL     1       5.512  34.981  62.030  1.00  0.00     0.034 C 
BRANCH  23  25
HETATM   25  C   UNL     1       6.249  33.204  63.671  1.00  0.00     0.022 C 
HETATM   26  C   UNL     1       7.327  33.461  64.716  1.00  0.00     0.007 C 
ENDBRANCH  23  25
ENDBRANCH  21  23
BRANCH  22  27
HETATM   27  C   UNL     1       8.787  31.697  61.825  1.00  0.00     0.038 A 
HETATM   28  C   UNL     1       8.640  30.518  62.763  1.00  0.00     0.011 A 
HETATM   29  C   UNL     1       9.609  30.446  61.633  1.00  0.00     0.011 A 
ENDBRANCH  22  27
ENDBRANCH   1  18
TORSDOF 10
ENDMDL
MODEL 8
REMARK VINA RESULT:      -7.7      3.792      6.603
REMARK  10 active torsions:
REMARK  status: ('A' for Active; 'I' for Inactive)
REMARK    1  A    between atoms: C_2  and  C_3 
REMARK    2  A    between atoms: C_3  and  N_4 
REMARK    3  A    between atoms: C_7  and  C_8 
REMARK       I    between atoms: C_8  and  N_9 
REMARK    4  A    between atoms: N_9  and  C_10 
REMARK    5  A    between atoms: C_10  and  C_11 
REMARK    6  A    between atoms: C_11  and  O_12 
REMARK    7  A    between atoms: C_11  and  C_13 
REMARK    8  A    between atoms: C_13  and  O_14 
REMARK    9  A    between atoms: O_14  and  C_15 
REMARK   10  A    between atoms: C_23  and  C_24 
ROOT
HETATM    1  C   UNL     1       6.932  26.673  53.519  1.00  0.00     0.255 C 
HETATM    2  N   UNL     1       5.586  26.816  53.269  1.00  0.00    -0.354 N 
HETATM    3  O   UNL     1       7.668  27.616  53.787  1.00  0.00    -0.268 OA
HETATM    4  H   UNL     1       5.050  25.962  53.162  1.00  0.00     0.162 HD
ENDROOT
BRANCH   2   5
HETATM    5  C   UNL     1       4.844  28.040  53.557  1.00  0.00     0.156 C 
BRANCH   5   6
HETATM    6  C   UNL     1       4.721  29.076  52.421  1.00  0.00     0.160 C 
BRANCH   6   7
HETATM    7  O   UNL     1       6.020  29.451  51.944  1.00  0.00    -0.392 OA
HETATM    8  H   UNL     1       6.646  29.356  52.695  1.00  0.00     0.210 HD
ENDBRANCH   6   7
BRANCH   6   9
HETATM    9  C   UNL     1       3.826  28.601  51.270  1.00  0.00     0.209 C 
BRANCH   9  10
HETATM   10  O   UNL     1       4.585  27.751  50.402  1.00  0.00    -0.349 OA
BRANCH  10  11
HETATM   11  C   UNL     1       3.900  27.217  49.343  1.00  0.00     0.069 A 
HETATM   12  C   UNL     1       2.857  28.007  48.851  1.00  0.00     0.043 A 
HETATM   13  C   UNL     1       2.080  27.578  47.768  1.00  0.00    -0.059 A 
HETATM   14  C   UNL     1       0.961  28.427  47.242  1.00  0.00     0.048 C 
HETATM   15  C   UNL     1       2.339  26.327  47.200  1.00  0.00     0.007 A 
HETATM   16  C   UNL     1       3.368  25.528  47.698  1.00  0.00     0.003 A 
HETATM   17  C   UNL     1       4.149  25.971  48.767  1.00  0.00     0.037 A 
ENDBRANCH  10  11
ENDBRANCH   9  10
ENDBRANCH   6   9
ENDBRANCH   5   6
ENDBRANCH   2   5
BRANCH   1  18
HETATM   18  C   UNL     1       7.392  25.302  53.490  1.00  0.00     0.075 A 
HETATM   19  C   UNL     1       7.885  24.640  52.344  1.00  0.00     0.158 A 
HETATM   20  N   UNL     1       8.192  23.367  52.572  1.00  0.00    -0.183 NA
HETATM   21  N   UNL     1       7.834  23.174  53.860  1.00  0.00    -0.268 N 
HETATM   22  C   UNL     1       7.431  24.337  54.489  1.00  0.00     0.052 A 
BRANCH  21  23
HETATM   23  C   UNL     1       7.854  21.811  54.390  1.00  0.00     0.106 C 
HETATM   24  C   UNL     1       7.722  20.799  53.246  1.00  0.00     0.034 C 
BRANCH  23  25
HETATM   25  C   UNL     1       9.101  21.513  55.241  1.00  0.00     0.022 C 
HETATM   26  C   UNL     1       8.779  20.737  56.511  1.00  0.00     0.007 C 
ENDBRANCH  23  25
ENDBRANCH  21  23
BRANCH  22  27
HETATM   27  C   UNL     1       7.122  24.458  55.983  1.00  0.00     0.038 A 
HETATM   28  C   UNL     1       8.277  24.592  56.952  1.00  0.00     0.011 A 
HETATM   29  C   UNL     1       7.351  25.741  56.744  1.00  0.00     0.011 A 
ENDBRANCH  22  27
ENDBRANCH   1  18
TORSDOF 10
ENDMDL
MODEL 9
REMARK VINA RESULT:      -7.5      1.143      2.346
REMARK  10 active torsions:
REMARK  status: ('A' for Active; 'I' for Inactive)
REMARK    1  A    between atoms: C_2  and  C_3 
REMARK    2  A    between atoms: C_3  and  N_4 
REMARK    3  A    between atoms: C_7  and  C_8 
REMARK       I    between atoms: C_8  and  N_9 
REMARK    4  A    between atoms: N_9  and  C_10 
REMARK    5  A    between atoms: C_10  and  C_11 
REMARK    6  A    between atoms: C_11  and  O_12 
REMARK    7  A    between atoms: C_11  and  C_13 
REMARK    8  A    between atoms: C_13  and  O_14 
REMARK    9  A    between atoms: O_14  and  C_15 
REMARK   10  A    between atoms: C_23  and  C_24 
ROOT
HETATM    1  C   UNL     1       6.946  26.363  54.997  1.00  0.00     0.255 C 
HETATM    2  N   UNL     1       5.606  26.606  54.793  1.00  0.00    -0.354 N 
HETATM    3  O   UNL     1       7.799  27.242  54.959  1.00  0.00    -0.268 OA
HETATM    4  H   UNL     1       4.975  25.828  54.951  1.00  0.00     0.162 HD
ENDROOT
BRANCH   2   5
HETATM    5  C   UNL     1       5.029  27.946  54.781  1.00  0.00     0.156 C 
BRANCH   5   6
HETATM    6  C   UNL     1       4.645  28.562  56.143  1.00  0.00     0.160 C 
BRANCH   6   7
HETATM    7  O   UNL     1       4.653  27.558  57.166  1.00  0.00    -0.392 OA
HETATM    8  H   UNL     1       4.450  28.005  58.017  1.00  0.00     0.210 HD
ENDBRANCH   6   7
BRANCH   6   9
HETATM    9  C   UNL     1       5.528  29.754  56.532  1.00  0.00     0.209 C 
BRANCH   9  10
HETATM   10  O   UNL     1       6.100  29.516  57.823  1.00  0.00    -0.349 OA
BRANCH  10  11
HETATM   11  C   UNL     1       7.401  29.912  57.980  1.00  0.00     0.069 A 
HETATM   12  C   UNL     1       7.617  30.857  58.987  1.00  0.00     0.043 A 
HETATM   13  C   UNL     1       8.904  31.342  59.253  1.00  0.00    -0.059 A 
HETATM   14  C   UNL     1       9.133  32.357  60.334  1.00  0.00     0.048 C 
HETATM   15  C   UNL     1       9.974  30.894  58.472  1.00  0.00     0.007 A 
HETATM   16  C   UNL     1       9.761  29.964  57.455  1.00  0.00     0.003 A 
HETATM   17  C   UNL     1       8.477  29.472  57.208  1.00  0.00     0.037 A 
ENDBRANCH  10  11
ENDBRANCH   9  10
ENDBRANCH   6   9
ENDBRANCH   5   6
ENDBRANCH   2   5
BRANCH   1  18
HETATM   18  C   UNL     1       7.252  24.985  55.313  1.00  0.00     0.075 A 
HETATM   19  C   UNL     1       7.217  24.427  56.610  1.00  0.00     0.158 A 
HETATM   20  N   UNL     1       7.593  23.153  56.637  1.00  0.00    -0.183 NA
HETATM   21  N   UNL     1       7.942  22.892  55.359  1.00  0.00    -0.268 N 
HETATM   22  C   UNL     1       7.667  23.939  54.499  1.00  0.00     0.052 A 
BRANCH  21  23
HETATM   23  C   UNL     1       8.597  21.618  55.063  1.00  0.00     0.106 C 
HETATM   24  C   UNL     1       8.920  20.877  56.365  1.00  0.00     0.034 C 
BRANCH  23  25
HETATM   25  C   UNL     1       7.777  20.724  54.115  1.00  0.00     0.022 C 
HETATM   26  C   UNL     1       8.534  20.360  52.844  1.00  0.00     0.007 C 
ENDBRANCH  23  25
ENDBRANCH  21  23
BRANCH  22  27
HETATM   27  C   UNL     1       7.804  23.875  52.976  1.00  0.00     0.038 A 
HETATM   28  C   UNL     1       6.597  24.211  52.125  1.00  0.00     0.011 A 
HETATM   29  C   UNL     1       7.780  25.117  52.120  1.00  0.00     0.011 A 
ENDBRANCH  22  27
ENDBRANCH   1  18
TORSDOF 10
ENDMDL
MODEL 10
REMARK VINA RESULT:      -7.5      3.689      5.841
REMARK  10 active torsions:
REMARK  status: ('A' for Active; 'I' for Inactive)
REMARK    1  A    between atoms: C_2  and  C_3 
REMARK    2  A    between atoms: C_3  and  N_4 
REMARK    3  A    between atoms: C_7  and  C_8 
REMARK       I    between atoms: C_8  and  N_9 
REMARK    4  A    between atoms: N_9  and  C_10 
REMARK    5  A    between atoms: C_10  and  C_11 
REMARK    6  A    between atoms: C_11  and  O_12 
REMARK    7  A    between atoms: C_11  and  C_13 
REMARK    8  A    between atoms: C_13  and  O_14 
REMARK    9  A    between atoms: O_14  and  C_15 
REMARK   10  A    between atoms: C_23  and  C_24 
ROOT
HETATM    1  C   UNL     1       5.163  30.618  57.094  1.00  0.00     0.255 C 
HETATM    2  N   UNL     1       4.553  30.532  58.326  1.00  0.00    -0.354 N 
HETATM    3  O   UNL     1       5.522  31.679  56.598  1.00  0.00    -0.268 OA
HETATM    4  H   UNL     1       4.392  29.598  58.688  1.00  0.00     0.162 HD
ENDROOT
BRANCH   2   5
HETATM    5  C   UNL     1       4.516  31.636  59.279  1.00  0.00     0.156 C 
BRANCH   5   6
HETATM    6  C   UNL     1       3.288  31.725  60.209  1.00  0.00     0.160 C 
BRANCH   6   7
HETATM    7  O   UNL     1       2.790  30.414  60.506  1.00  0.00    -0.392 OA
HETATM    8  H   UNL     1       2.037  30.242  59.897  1.00  0.00     0.210 HD
ENDBRANCH   6   7
BRANCH   6   9
HETATM    9  C   UNL     1       3.565  32.514  61.495  1.00  0.00     0.209 C 
BRANCH   9  10
HETATM   10  O   UNL     1       4.204  31.656  62.447  1.00  0.00    -0.349 OA
BRANCH  10  11
HETATM   11  C   UNL     1       5.371  32.128  62.985  1.00  0.00     0.069 A 
HETATM   12  C   UNL     1       6.532  31.761  62.299  1.00  0.00     0.043 A 
HETATM   13  C   UNL     1       7.792  32.181  62.744  1.00  0.00    -0.059 A 
HETATM   14  C   UNL     1       9.037  31.786  62.007  1.00  0.00     0.048 C 
HETATM   15  C   UNL     1       7.880  32.948  63.909  1.00  0.00     0.007 A 
HETATM   16  C   UNL     1       6.725  33.303  64.607  1.00  0.00     0.003 A 
HETATM   17  C   UNL     1       5.472  32.894  64.147  1.00  0.00     0.037 A 
ENDBRANCH  10  11
ENDBRANCH   9  10
ENDBRANCH   6   9
ENDBRANCH   5   6
ENDBRANCH   2   5
BRANCH   1  18
HETATM   18  C   UNL     1       5.389  29.338  56.460  1.00  0.00     0.075 A 
HETATM   19  C   UNL     1       4.670  28.850  55.347  1.00  0.00     0.158 A 
HETATM   20  N   UNL     1       5.036  27.624  54.989  1.00  0.00    -0.183 NA
HETATM   21  N   UNL     1       5.956  27.279  55.916  1.00  0.00    -0.268 N 
HETATM   22  C   UNL     1       6.275  28.315  56.774  1.00  0.00     0.052 A 
BRANCH  21  23
HETATM   23  C   UNL     1       6.434  25.897  55.940  1.00  0.00     0.106 C 
HETATM   24  C   UNL     1       5.783  25.134  57.100  1.00  0.00     0.034 C 
BRANCH  23  25
HETATM   25  C   UNL     1       6.211  25.158  54.608  1.00  0.00     0.022 C 
HETATM   26  C   UNL     1       7.483  24.523  54.063  1.00  0.00     0.007 C 
ENDBRANCH  23  25
ENDBRANCH  21  23
BRANCH  22  27
HETATM   27  C   UNL     1       7.393  28.270  57.817  1.00  0.00     0.038 A 
HETATM   28  C   UNL     1       8.793  28.667  57.395  1.00  0.00     0.011 A 
HETATM   29  C   UNL     1       8.037  29.526  58.351  1.00  0.00     0.011 A 
ENDBRANCH  22  27
ENDBRANCH   1  18
TORSDOF 10
ENDMDL
