MODEL 1
REMARK VINA RESULT:      -8.8      0.000      0.000
REMARK  7 active torsions:
REMARK  status: ('A' for Active; 'I' for Inactive)
REMARK    1  A    between atoms: O_2  and  C_3 
REMARK    2  A    between atoms: C_3  and  C_4 
REMARK    3  A    between atoms: C_4  and  N_5 
REMARK    4  A    between atoms: C_4  and  C_21 
REMARK    5  A    between atoms: N_5  and  C_6 
REMARK    6  A    between atoms: C_21  and  C_22 
REMARK    7  A    between atoms: C_25  and  O_26 
ROOT
HETATM    1  N   UNL     1       7.538  27.326  55.148  1.00  0.00    -0.277 NA
HETATM    2  H   UNL     1       8.501  27.218  55.474  1.00  0.00     0.128 HD
ENDROOT
BRANCH   1   3
HETATM    3  C   UNL     1       6.645  27.526  56.340  1.00  0.00     0.164 C 
BRANCH   3   4
HETATM    4  C   UNL     1       5.878  28.859  56.321  1.00  0.00     0.276 C 
HETATM    5  O   UNL     1       6.081  29.787  55.549  1.00  0.00    -0.263 OA
BRANCH   4   6
HETATM    6  O   UNL     1       4.896  28.844  57.271  1.00  0.00    -0.325 OA
HETATM    7  C   UNL     1       4.386  30.134  57.612  1.00  0.00     0.213 C 
ENDBRANCH   4   6
ENDBRANCH   3   4
BRANCH   3   8
HETATM    8  C   UNL     1       7.502  27.462  57.619  1.00  0.00     0.068 C 
BRANCH   8   9
HETATM    9  C   UNL     1       8.335  28.710  57.801  1.00  0.00    -0.056 A 
HETATM   10  C   UNL     1       9.509  28.889  57.052  1.00  0.00     0.010 A 
HETATM   11  C   UNL     1      10.304  30.023  57.237  1.00  0.00     0.037 A 
HETATM   12  C   UNL     1       9.925  30.975  58.174  1.00  0.00     0.065 A 
HETATM   13  C   UNL     1       8.767  30.815  58.925  1.00  0.00     0.037 A 
HETATM   14  C   UNL     1       7.970  29.684  58.739  1.00  0.00     0.010 A 
BRANCH  12  15
HETATM   15  O   UNL     1      10.670  32.096  58.390  1.00  0.00    -0.361 OA
HETATM   16  H   UNL     1      10.575  32.366  59.318  1.00  0.00     0.217 HD
ENDBRANCH  12  15
ENDBRANCH   8   9
ENDBRANCH   3   8
ENDBRANCH   1   3
BRANCH   1  17
HETATM   17  C   UNL     1       7.202  26.274  54.262  1.00  0.00     0.034 A 
HETATM   18  C   UNL     1       6.484  26.605  53.081  1.00  0.00     0.013 A 
HETATM   19  C   UNL     1       6.108  25.570  52.203  1.00  0.00     0.044 A 
HETATM   20  C   UNL     1       6.126  27.922  52.721  1.00  0.00     0.015 A 
HETATM   21  C   UNL     1       5.412  25.844  51.014  1.00  0.00     0.030 A 
HETATM   22  N   UNL     1       6.424  24.303  52.510  1.00  0.00    -0.355 N 
HETATM   23  C   UNL     1       5.080  27.156  50.682  1.00  0.00     0.002 A 
HETATM   24  C   UNL     1       5.434  28.194  51.537  1.00  0.00     0.001 A 
HETATM   25  H   UNL     1       6.131  23.573  51.865  1.00  0.00     0.166 HD
HETATM   26  C   UNL     1       7.116  23.937  53.602  1.00  0.00     0.044 A 
HETATM   27  C   UNL     1       7.550  24.920  54.517  1.00  0.00     0.013 A 
HETATM   28  C   UNL     1       7.402  22.577  53.809  1.00  0.00     0.030 A 
HETATM   29  C   UNL     1       8.315  24.478  55.622  1.00  0.00     0.015 A 
HETATM   30  C   UNL     1       8.596  23.123  55.823  1.00  0.00     0.001 A 
HETATM   31  C   UNL     1       8.135  22.173  54.921  1.00  0.00     0.002 A 
ENDBRANCH   1  17
TORSDOF 7
ENDMDL
MODEL 2
REMARK VINA RESULT:      -8.7      3.299      6.750
REMARK  7 active torsions:
REMARK  status: ('A' for Active; 'I' for Inactive)
REMARK    1  A    between atoms: O_2  and  C_3 
REMARK    2  A    between atoms: C_3  and  C_4 
REMARK    3  A    between atoms: C_4  and  N_5 
REMARK    4  A    between atoms: C_4  and  C_21 
REMARK    5  A    between atoms: N_5  and  C_6 
REMARK    6  A    between atoms: C_21  and  C_22 
REMARK    7  A    between atoms: C_25  and  O_26 
ROOT
HETATM    1  N   UNL     1       7.477  30.025  59.253  1.00  0.00    -0.277 NA
HETATM    2  H   UNL     1       6.775  29.902  59.986  1.00  0.00     0.128 HD
ENDROOT
BRANCH   1   3
HETATM    3  C   UNL     1       8.339  31.204  59.604  1.00  0.00     0.164 C 
BRANCH   3   4
HETATM    4  C   UNL     1       9.615  31.313  58.752  1.00  0.00     0.276 C 
HETATM    5  O   UNL     1      10.166  32.356  58.425  1.00  0.00    -0.263 OA
BRANCH   4   6
HETATM    6  O   UNL     1      10.075  30.064  58.443  1.00  0.00    -0.325 OA
HETATM    7  C   UNL     1      10.885  30.009  57.267  1.00  0.00     0.213 C 
ENDBRANCH   4   6
ENDBRANCH   3   4
BRANCH   3   8
HETATM    8  C   UNL     1       8.738  31.102  61.089  1.00  0.00     0.068 C 
BRANCH   8   9
HETATM    9  C   UNL     1       7.981  32.092  61.944  1.00  0.00    -0.056 A 
HETATM   10  C   UNL     1       7.063  32.976  61.354  1.00  0.00     0.010 A 
HETATM   11  C   UNL     1       6.383  33.917  62.131  1.00  0.00     0.037 A 
HETATM   12  C   UNL     1       6.624  33.975  63.498  1.00  0.00     0.065 A 
HETATM   13  C   UNL     1       7.529  33.108  64.099  1.00  0.00     0.037 A 
HETATM   14  C   UNL     1       8.207  32.165  63.325  1.00  0.00     0.010 A 
BRANCH  12  15
HETATM   15  O   UNL     1       5.985  34.876  64.295  1.00  0.00    -0.361 OA
HETATM   16  H   UNL     1       5.076  34.995  63.975  1.00  0.00     0.217 HD
ENDBRANCH  12  15
ENDBRANCH   8   9
ENDBRANCH   3   8
ENDBRANCH   1   3
BRANCH   1  17
HETATM   17  C   UNL     1       6.856  30.038  57.981  1.00  0.00     0.034 A 
HETATM   18  C   UNL     1       7.060  28.918  57.130  1.00  0.00     0.013 A 
HETATM   19  C   UNL     1       6.482  28.926  55.847  1.00  0.00     0.044 A 
HETATM   20  C   UNL     1       7.809  27.778  57.496  1.00  0.00     0.015 A 
HETATM   21  C   UNL     1       6.640  27.837  54.973  1.00  0.00     0.030 A 
HETATM   22  N   UNL     1       5.766  29.991  55.457  1.00  0.00    -0.355 N 
HETATM   23  C   UNL     1       7.378  26.723  55.366  1.00  0.00     0.002 A 
HETATM   24  C   UNL     1       7.964  26.695  56.627  1.00  0.00     0.001 A 
HETATM   25  H   UNL     1       5.368  29.976  54.521  1.00  0.00     0.166 HD
HETATM   26  C   UNL     1       5.527  31.067  56.225  1.00  0.00     0.044 A 
HETATM   27  C   UNL     1       6.052  31.122  57.535  1.00  0.00     0.013 A 
HETATM   28  C   UNL     1       4.747  32.117  55.712  1.00  0.00     0.030 A 
HETATM   29  C   UNL     1       5.725  32.258  58.312  1.00  0.00     0.015 A 
HETATM   30  C   UNL     1       4.950  33.300  57.795  1.00  0.00     0.001 A 
HETATM   31  C   UNL     1       4.466  33.233  56.495  1.00  0.00     0.002 A 
ENDBRANCH   1  17
TORSDOF 7
ENDMDL
MODEL 3
REMARK VINA RESULT:      -8.7      2.713      6.932
REMARK  7 active torsions:
REMARK  status: ('A' for Active; 'I' for Inactive)
REMARK    1  A    between atoms: O_2  and  C_3 
REMARK    2  A    between atoms: C_3  and  C_4 
REMARK    3  A    between atoms: C_4  and  N_5 
REMARK    4  A    between atoms: C_4  and  C_21 
REMARK    5  A    between atoms: N_5  and  C_6 
REMARK    6  A    between atoms: C_21  and  C_22 
REMARK    7  A    between atoms: C_25  and  O_26 
ROOT
HETATM    1  N   UNL     1       7.424  26.105  52.753  1.00  0.00    -0.277 NA
HETATM    2  H   UNL     1       8.008  26.942  52.722  1.00  0.00     0.128 HD
ENDROOT
BRANCH   1   3
HETATM    3  C   UNL     1       6.046  26.459  52.271  1.00  0.00     0.164 C 
BRANCH   3   4
HETATM    4  C   UNL     1       4.923  26.003  53.218  1.00  0.00     0.276 C 
HETATM    5  O   UNL     1       4.483  24.863  53.305  1.00  0.00    -0.263 OA
BRANCH   4   6
HETATM    6  O   UNL     1       4.509  27.052  53.988  1.00  0.00    -0.325 OA
HETATM    7  C   UNL     1       3.774  28.051  53.278  1.00  0.00     0.213 C 
ENDBRANCH   4   6
ENDBRANCH   3   4
BRANCH   3   8
HETATM    8  C   UNL     1       5.824  25.818  50.888  1.00  0.00     0.068 C 
BRANCH   8   9
HETATM    9  C   UNL     1       5.064  26.735  49.958  1.00  0.00    -0.056 A 
HETATM   10  C   UNL     1       4.105  26.209  49.077  1.00  0.00     0.010 A 
HETATM   11  C   UNL     1       3.421  27.044  48.190  1.00  0.00     0.037 A 
HETATM   12  C   UNL     1       3.699  28.405  48.183  1.00  0.00     0.065 A 
HETATM   13  C   UNL     1       4.645  28.943  49.047  1.00  0.00     0.037 A 
HETATM   14  C   UNL     1       5.327  28.111  49.937  1.00  0.00     0.010 A 
BRANCH  12  15
HETATM   15  O   UNL     1       3.058  29.257  47.335  1.00  0.00    -0.361 OA
HETATM   16  H   UNL     1       2.105  29.232  47.520  1.00  0.00     0.217 HD
ENDBRANCH  12  15
ENDBRANCH   8   9
ENDBRANCH   3   8
ENDBRANCH   1   3
BRANCH   1  17
HETATM   17  C   UNL     1       7.522  25.489  54.024  1.00  0.00     0.034 A 
HETATM   18  C   UNL     1       7.622  24.071  54.069  1.00  0.00     0.013 A 
HETATM   19  C   UNL     1       7.685  23.436  55.324  1.00  0.00     0.044 A 
HETATM   20  C   UNL     1       7.671  23.249  52.923  1.00  0.00     0.015 A 
HETATM   21  C   UNL     1       7.800  22.039  55.424  1.00  0.00     0.030 A 
HETATM   22  N   UNL     1       7.637  24.179  56.439  1.00  0.00    -0.355 N 
HETATM   23  C   UNL     1       7.855  21.255  54.275  1.00  0.00     0.002 A 
HETATM   24  C   UNL     1       7.788  21.860  53.024  1.00  0.00     0.001 A 
HETATM   25  H   UNL     1       7.672  23.694  57.333  1.00  0.00     0.166 HD
HETATM   26  C   UNL     1       7.560  25.521  56.454  1.00  0.00     0.044 A 
HETATM   27  C   UNL     1       7.519  26.232  55.235  1.00  0.00     0.013 A 
HETATM   28  C   UNL     1       7.532  26.192  57.687  1.00  0.00     0.030 A 
HETATM   29  C   UNL     1       7.489  27.645  55.315  1.00  0.00     0.015 A 
HETATM   30  C   UNL     1       7.459  28.307  56.545  1.00  0.00     0.001 A 
HETATM   31  C   UNL     1       7.475  27.583  57.731  1.00  0.00     0.002 A 
ENDBRANCH   1  17
TORSDOF 7
ENDMDL
MODEL 4
REMARK VINA RESULT:      -8.6      2.864      6.681
REMARK  7 active torsions:
REMARK  status: ('A' for Active; 'I' for Inactive)
REMARK    1  A    between atoms: O_2  and  C_3 
REMARK    2  A    between atoms: C_3  and  C_4 
REMARK    3  A    between atoms: C_4  and  N_5 
REMARK    4  A    between atoms: C_4  and  C_21 
REMARK    5  A    between atoms: N_5  and  C_6 
REMARK    6  A    between atoms: C_21  and  C_22 
REMARK    7  A    between atoms: C_25  and  O_26 
ROOT
HETATM    1  N   UNL     1       5.057  25.732  54.398  1.00  0.00    -0.277 NA
HETATM    2  H   UNL     1       4.635  25.730  55.328  1.00  0.00     0.128 HD
ENDROOT
BRANCH   1   3
HETATM    3  C   UNL     1       6.508  25.365  54.525  1.00  0.00     0.164 C 
BRANCH   3   4
HETATM    4  C   UNL     1       7.454  26.577  54.554  1.00  0.00     0.276 C 
HETATM    5  O   UNL     1       7.966  27.105  53.576  1.00  0.00    -0.263 OA
BRANCH   4   6
HETATM    6  O   UNL     1       7.609  27.014  55.839  1.00  0.00    -0.325 OA
HETATM    7  C   UNL     1       7.970  25.993  56.770  1.00  0.00     0.213 C 
ENDBRANCH   4   6
ENDBRANCH   3   4
BRANCH   3   8
HETATM    8  C   UNL     1       6.896  24.458  53.341  1.00  0.00     0.068 C 
BRANCH   8   9
HETATM    9  C   UNL     1       7.382  23.104  53.804  1.00  0.00    -0.056 A 
HETATM   10  C   UNL     1       7.407  22.794  55.174  1.00  0.00     0.010 A 
HETATM   11  C   UNL     1       7.885  21.558  55.614  1.00  0.00     0.037 A 
HETATM   12  C   UNL     1       8.340  20.633  54.684  1.00  0.00     0.065 A 
HETATM   13  C   UNL     1       8.323  20.921  53.324  1.00  0.00     0.037 A 
HETATM   14  C   UNL     1       7.843  22.155  52.882  1.00  0.00     0.010 A 
BRANCH  12  15
HETATM   15  O   UNL     1       8.817  19.415  55.067  1.00  0.00    -0.361 OA
HETATM   16  H   UNL     1       8.080  18.877  55.401  1.00  0.00     0.217 HD
ENDBRANCH  12  15
ENDBRANCH   8   9
ENDBRANCH   3   8
ENDBRANCH   1   3
BRANCH   1  17
HETATM   17  C   UNL     1       4.757  26.943  53.728  1.00  0.00     0.034 A 
HETATM   18  C   UNL     1       4.486  28.091  54.522  1.00  0.00     0.013 A 
HETATM   19  C   UNL     1       4.149  29.297  53.878  1.00  0.00     0.044 A 
HETATM   20  C   UNL     1       4.541  28.103  55.933  1.00  0.00     0.015 A 
HETATM   21  C   UNL     1       3.889  30.464  54.615  1.00  0.00     0.030 A 
HETATM   22  N   UNL     1       4.081  29.328  52.539  1.00  0.00    -0.355 N 
HETATM   23  C   UNL     1       3.959  30.446  56.006  1.00  0.00     0.002 A 
HETATM   24  C   UNL     1       4.283  29.265  56.665  1.00  0.00     0.001 A 
HETATM   25  H   UNL     1       3.825  30.209  52.099  1.00  0.00     0.166 HD
HETATM   26  C   UNL     1       4.344  28.279  51.741  1.00  0.00     0.044 A 
HETATM   27  C   UNL     1       4.713  27.042  52.312  1.00  0.00     0.013 A 
HETATM   28  C   UNL     1       4.254  28.438  50.348  1.00  0.00     0.030 A 
HETATM   29  C   UNL     1       5.025  25.989  51.419  1.00  0.00     0.015 A 
HETATM   30  C   UNL     1       4.933  26.152  50.034  1.00  0.00     0.001 A 
HETATM   31  C   UNL     1       4.542  27.373  49.498  1.00  0.00     0.002 A 
ENDBRANCH   1  17
TORSDOF 7
ENDMDL
MODEL 5
REMARK VINA RESULT:      -8.6      2.887      6.453
REMARK  7 active torsions:
REMARK  status: ('A' for Active; 'I' for Inactive)
REMARK    1  A    between atoms: O_2  and  C_3 
REMARK    2  A    between atoms: C_3  and  C_4 
REMARK    3  A    between atoms: C_4  and  N_5 
REMARK    4  A    between atoms: C_4  and  C_21 
REMARK    5  A    between atoms: N_5  and  C_6 
REMARK    6  A    between atoms: C_21  and  C_22 
REMARK    7  A    between atoms: C_25  and  O_26 
ROOT
HETATM    1  N   UNL     1       5.135  25.638  54.322  1.00  0.00    -0.277 NA
HETATM    2  H   UNL     1       4.653  25.509  55.214  1.00  0.00     0.128 HD
ENDROOT
BRANCH   1   3
HETATM    3  C   UNL     1       6.586  25.294  54.502  1.00  0.00     0.164 C 
BRANCH   3   4
HETATM    4  C   UNL     1       7.509  26.522  54.572  1.00  0.00     0.276 C 
HETATM    5  O   UNL     1       8.009  27.093  53.611  1.00  0.00    -0.263 OA
BRANCH   4   6
HETATM    6  O   UNL     1       7.661  26.916  55.871  1.00  0.00    -0.325 OA
HETATM    7  C   UNL     1       7.936  25.850  56.782  1.00  0.00     0.213 C 
ENDBRANCH   4   6
ENDBRANCH   3   4
BRANCH   3   8
HETATM    8  C   UNL     1       7.033  24.399  53.330  1.00  0.00     0.068 C 
BRANCH   8   9
HETATM    9  C   UNL     1       7.521  23.051  53.806  1.00  0.00    -0.056 A 
HETATM   10  C   UNL     1       7.965  22.094  52.878  1.00  0.00     0.010 A 
HETATM   11  C   UNL     1       8.387  20.833  53.305  1.00  0.00     0.037 A 
HETATM   12  C   UNL     1       8.362  20.528  54.660  1.00  0.00     0.065 A 
HETATM   13  C   UNL     1       7.927  21.462  55.593  1.00  0.00     0.037 A 
HETATM   14  C   UNL     1       7.508  22.724  55.168  1.00  0.00     0.010 A 
BRANCH  12  15
HETATM   15  O   UNL     1       8.764  19.311  55.123  1.00  0.00    -0.361 OA
HETATM   16  H   UNL     1       8.748  19.319  56.094  1.00  0.00     0.217 HD
ENDBRANCH  12  15
ENDBRANCH   8   9
ENDBRANCH   3   8
ENDBRANCH   1   3
BRANCH   1  17
HETATM   17  C   UNL     1       4.838  26.916  53.788  1.00  0.00     0.034 A 
HETATM   18  C   UNL     1       4.782  27.047  52.373  1.00  0.00     0.013 A 
HETATM   19  C   UNL     1       4.524  28.316  51.820  1.00  0.00     0.044 A 
HETATM   20  C   UNL     1       4.961  25.973  51.475  1.00  0.00     0.015 A 
HETATM   21  C   UNL     1       4.441  28.498  50.429  1.00  0.00     0.030 A 
HETATM   22  N   UNL     1       4.352  29.366  52.637  1.00  0.00    -0.355 N 
HETATM   23  C   UNL     1       4.615  27.416  49.569  1.00  0.00     0.002 A 
HETATM   24  C   UNL     1       4.877  26.154  50.092  1.00  0.00     0.001 A 
HETATM   25  H   UNL     1       4.179  30.273  52.212  1.00  0.00     0.166 HD
HETATM   26  C   UNL     1       4.378  29.294  53.979  1.00  0.00     0.044 A 
HETATM   27  C   UNL     1       4.605  28.051  54.610  1.00  0.00     0.013 A 
HETATM   28  C   UNL     1       4.168  30.462  54.732  1.00  0.00     0.030 A 
HETATM   29  C   UNL     1       4.572  28.031  56.024  1.00  0.00     0.015 A 
HETATM   30  C   UNL     1       4.364  29.197  56.768  1.00  0.00     0.001 A 
HETATM   31  C   UNL     1       4.168  30.412  56.123  1.00  0.00     0.002 A 
ENDBRANCH   1  17
TORSDOF 7
ENDMDL
MODEL 6
REMARK VINA RESULT:      -8.5      2.734      6.228
REMARK  7 active torsions:
REMARK  status: ('A' for Active; 'I' for Inactive)
REMARK    1  A    between atoms: O_2  and  C_3 
REMARK    2  A    between atoms: C_3  and  C_4 
REMARK    3  A    between atoms: C_4  and  N_5 
REMARK    4  A    between atoms: C_4  and  C_21 
REMARK    5  A    between atoms: N_5  and  C_6 
REMARK    6  A    between atoms: C_21  and  C_22 
REMARK    7  A    between atoms: C_25  and  O_26 
ROOT
HETATM    1  N   UNL     1       5.322  25.532  56.085  1.00  0.00    -0.277 NA
HETATM    2  H   UNL     1       4.870  25.797  56.963  1.00  0.00     0.128 HD
ENDROOT
BRANCH   1   3
HETATM    3  C   UNL     1       6.711  25.045  56.385  1.00  0.00     0.164 C 
BRANCH   3   4
HETATM    4  C   UNL     1       7.534  26.015  57.250  1.00  0.00     0.276 C 
HETATM    5  O   UNL     1       7.549  26.042  58.474  1.00  0.00    -0.263 OA
BRANCH   4   6
HETATM    6  O   UNL     1       8.288  26.826  56.449  1.00  0.00    -0.325 OA
HETATM    7  C   UNL     1       8.766  28.009  57.091  1.00  0.00     0.213 C 
ENDBRANCH   4   6
ENDBRANCH   3   4
BRANCH   3   8
HETATM    8  C   UNL     1       7.453  24.811  55.055  1.00  0.00     0.068 C 
BRANCH   8   9
HETATM    9  C   UNL     1       7.883  23.371  54.897  1.00  0.00    -0.056 A 
HETATM   10  C   UNL     1       8.138  22.848  53.619  1.00  0.00     0.010 A 
HETATM   11  C   UNL     1       8.504  21.509  53.459  1.00  0.00     0.037 A 
HETATM   12  C   UNL     1       8.611  20.693  54.578  1.00  0.00     0.065 A 
HETATM   13  C   UNL     1       8.362  21.193  55.850  1.00  0.00     0.037 A 
HETATM   14  C   UNL     1       8.000  22.531  56.012  1.00  0.00     0.010 A 
BRANCH  12  15
HETATM   15  O   UNL     1       8.963  19.381  54.470  1.00  0.00    -0.361 OA
HETATM   16  H   UNL     1       9.213  19.194  53.550  1.00  0.00     0.217 HD
ENDBRANCH  12  15
ENDBRANCH   8   9
ENDBRANCH   3   8
ENDBRANCH   1   3
BRANCH   1  17
HETATM   17  C   UNL     1       5.197  26.576  55.137  1.00  0.00     0.034 A 
HETATM   18  C   UNL     1       5.123  27.910  55.624  1.00  0.00     0.013 A 
HETATM   19  C   UNL     1       4.962  28.961  54.702  1.00  0.00     0.044 A 
HETATM   20  C   UNL     1       5.209  28.254  56.990  1.00  0.00     0.015 A 
HETATM   21  C   UNL     1       4.899  30.298  55.129  1.00  0.00     0.030 A 
HETATM   22  N   UNL     1       4.871  28.677  53.394  1.00  0.00    -0.355 N 
HETATM   23  C   UNL     1       4.996  30.607  56.484  1.00  0.00     0.002 A 
HETATM   24  C   UNL     1       5.148  29.585  57.414  1.00  0.00     0.001 A 
HETATM   25  H   UNL     1       4.744  29.454  52.749  1.00  0.00     0.166 HD
HETATM   26  C   UNL     1       4.953  27.439  52.878  1.00  0.00     0.044 A 
HETATM   27  C   UNL     1       5.140  26.334  53.738  1.00  0.00     0.013 A 
HETATM   28  C   UNL     1       4.860  27.267  51.487  1.00  0.00     0.030 A 
HETATM   29  C   UNL     1       5.267  25.062  53.133  1.00  0.00     0.015 A 
HETATM   30  C   UNL     1       5.172  24.897  51.748  1.00  0.00     0.001 A 
HETATM   31  C   UNL     1       4.962  25.997  50.926  1.00  0.00     0.002 A 
ENDBRANCH   1  17
TORSDOF 7
ENDMDL
MODEL 7
REMARK VINA RESULT:      -8.5      2.720      6.658
REMARK  7 active torsions:
REMARK  status: ('A' for Active; 'I' for Inactive)
REMARK    1  A    between atoms: O_2  and  C_3 
REMARK    2  A    between atoms: C_3  and  C_4 
REMARK    3  A    between atoms: C_4  and  N_5 
REMARK    4  A    between atoms: C_4  and  C_21 
REMARK    5  A    between atoms: N_5  and  C_6 
REMARK    6  A    between atoms: C_21  and  C_22 
REMARK    7  A    between atoms: C_25  and  O_26 
ROOT
HETATM    1  N   UNL     1       7.419  26.236  52.799  1.00  0.00    -0.277 NA
HETATM    2  H   UNL     1       7.928  27.118  52.877  1.00  0.00     0.128 HD
ENDROOT
BRANCH   1   3
HETATM    3  C   UNL     1       6.038  26.520  52.279  1.00  0.00     0.164 C 
BRANCH   3   4
HETATM    4  C   UNL     1       4.915  26.031  53.208  1.00  0.00     0.276 C 
HETATM    5  O   UNL     1       4.505  24.880  53.286  1.00  0.00    -0.263 OA
BRANCH   4   6
HETATM    6  O   UNL     1       4.461  27.067  53.975  1.00  0.00    -0.325 OA
HETATM    7  C   UNL     1       3.726  28.056  53.253  1.00  0.00     0.213 C 
ENDBRANCH   4   6
ENDBRANCH   3   4
BRANCH   3   8
HETATM    8  C   UNL     1       5.878  25.845  50.903  1.00  0.00     0.068 C 
BRANCH   8   9
HETATM    9  C   UNL     1       5.090  26.706  49.943  1.00  0.00    -0.056 A 
HETATM   10  C   UNL     1       4.136  26.122  49.093  1.00  0.00     0.010 A 
HETATM   11  C   UNL     1       3.427  26.904  48.178  1.00  0.00     0.037 A 
HETATM   12  C   UNL     1       3.674  28.269  48.112  1.00  0.00     0.065 A 
HETATM   13  C   UNL     1       4.614  28.864  48.945  1.00  0.00     0.037 A 
HETATM   14  C   UNL     1       5.322  28.085  49.862  1.00  0.00     0.010 A 
BRANCH  12  15
HETATM   15  O   UNL     1       3.008  29.071  47.235  1.00  0.00    -0.361 OA
HETATM   16  H   UNL     1       2.436  29.679  47.732  1.00  0.00     0.217 HD
ENDBRANCH  12  15
ENDBRANCH   8   9
ENDBRANCH   3   8
ENDBRANCH   1   3
BRANCH   1  17
HETATM   17  C   UNL     1       7.513  25.510  54.011  1.00  0.00     0.034 A 
HETATM   18  C   UNL     1       7.501  26.244  55.228  1.00  0.00     0.013 A 
HETATM   19  C   UNL     1       7.630  25.545  56.443  1.00  0.00     0.044 A 
HETATM   20  C   UNL     1       7.358  27.646  55.299  1.00  0.00     0.015 A 
HETATM   21  C   UNL     1       7.607  26.221  57.674  1.00  0.00     0.030 A 
HETATM   22  N   UNL     1       7.773  24.212  56.421  1.00  0.00    -0.355 N 
HETATM   23  C   UNL     1       7.456  27.605  57.712  1.00  0.00     0.002 A 
HETATM   24  C   UNL     1       7.333  28.318  56.525  1.00  0.00     0.001 A 
HETATM   25  H   UNL     1       7.875  23.732  57.312  1.00  0.00     0.166 HD
HETATM   26  C   UNL     1       7.774  23.467  55.302  1.00  0.00     0.044 A 
HETATM   27  C   UNL     1       7.623  24.093  54.045  1.00  0.00     0.013 A 
HETATM   28  C   UNL     1       7.915  22.074  55.406  1.00  0.00     0.030 A 
HETATM   29  C   UNL     1       7.583  23.252  52.908  1.00  0.00     0.015 A 
HETATM   30  C   UNL     1       7.726  21.866  53.017  1.00  0.00     0.001 A 
HETATM   31  C   UNL     1       7.898  21.277  54.264  1.00  0.00     0.002 A 
ENDBRANCH   1  17
TORSDOF 7
ENDMDL
MODEL 8
REMARK VINA RESULT:      -8.4      3.363      6.555
REMARK  7 active torsions:
REMARK  status: ('A' for Active; 'I' for Inactive)
REMARK    1  A    between atoms: O_2  and  C_3 
REMARK    2  A    between atoms: C_3  and  C_4 
REMARK    3  A    between atoms: C_4  and  N_5 
REMARK    4  A    between atoms: C_4  and  C_21 
REMARK    5  A    between atoms: N_5  and  C_6 
REMARK    6  A    between atoms: C_21  and  C_22 
REMARK    7  A    between atoms: C_25  and  O_26 
ROOT
HETATM    1  N   UNL     1       3.840  27.161  53.175  1.00  0.00    -0.277 NA
HETATM    2  H   UNL     1       3.457  26.550  53.899  1.00  0.00     0.128 HD
ENDROOT
BRANCH   1   3
HETATM    3  C   UNL     1       5.033  26.489  52.557  1.00  0.00     0.164 C 
BRANCH   3   4
HETATM    4  C   UNL     1       5.197  26.778  51.055  1.00  0.00     0.276 C 
HETATM    5  O   UNL     1       5.760  27.753  50.575  1.00  0.00    -0.263 OA
BRANCH   4   6
HETATM    6  O   UNL     1       4.657  25.757  50.324  1.00  0.00    -0.325 OA
HETATM    7  C   UNL     1       4.156  26.150  49.045  1.00  0.00     0.213 C 
ENDBRANCH   4   6
ENDBRANCH   3   4
BRANCH   3   8
HETATM    8  C   UNL     1       4.906  24.967  52.761  1.00  0.00     0.068 C 
BRANCH   8   9
HETATM    9  C   UNL     1       6.132  24.384  53.426  1.00  0.00    -0.056 A 
HETATM   10  C   UNL     1       7.075  23.674  52.667  1.00  0.00     0.010 A 
HETATM   11  C   UNL     1       8.195  23.103  53.278  1.00  0.00     0.037 A 
HETATM   12  C   UNL     1       8.367  23.240  54.649  1.00  0.00     0.065 A 
HETATM   13  C   UNL     1       7.444  23.940  55.417  1.00  0.00     0.037 A 
HETATM   14  C   UNL     1       6.326  24.514  54.808  1.00  0.00     0.010 A 
BRANCH  12  15
HETATM   15  O   UNL     1       9.442  22.700  55.288  1.00  0.00    -0.361 OA
HETATM   16  H   UNL     1      10.195  22.671  54.675  1.00  0.00     0.217 HD
ENDBRANCH  12  15
ENDBRANCH   8   9
ENDBRANCH   3   8
ENDBRANCH   1   3
BRANCH   1  17
HETATM   17  C   UNL     1       4.031  28.466  53.689  1.00  0.00     0.034 A 
HETATM   18  C   UNL     1       3.575  29.561  52.906  1.00  0.00     0.013 A 
HETATM   19  C   UNL     1       3.787  30.870  53.381  1.00  0.00     0.044 A 
HETATM   20  C   UNL     1       2.906  29.421  51.671  1.00  0.00     0.015 A 
HETATM   21  C   UNL     1       3.341  31.986  52.655  1.00  0.00     0.030 A 
HETATM   22  N   UNL     1       4.423  31.048  54.549  1.00  0.00    -0.355 N 
HETATM   23  C   UNL     1       2.677  31.816  51.443  1.00  0.00     0.002 A 
HETATM   24  C   UNL     1       2.461  30.533  50.950  1.00  0.00     0.001 A 
HETATM   25  H   UNL     1       4.574  32.003  54.864  1.00  0.00     0.166 HD
HETATM   26  C   UNL     1       4.859  30.050  55.336  1.00  0.00     0.044 A 
HETATM   27  C   UNL     1       4.660  28.709  54.940  1.00  0.00     0.013 A 
HETATM   28  C   UNL     1       5.499  30.361  56.547  1.00  0.00     0.030 A 
HETATM   29  C   UNL     1       5.098  27.703  55.833  1.00  0.00     0.015 A 
HETATM   30  C   UNL     1       5.735  28.019  57.036  1.00  0.00     0.001 A 
HETATM   31  C   UNL     1       5.941  29.346  57.391  1.00  0.00     0.002 A 
ENDBRANCH   1  17
TORSDOF 7
ENDMDL
MODEL 9
REMARK VINA RESULT:      -8.2      3.331      7.382
REMARK  7 active torsions:
REMARK  status: ('A' for Active; 'I' for Inactive)
REMARK    1  A    between atoms: O_2  and  C_3 
REMARK    2  A    between atoms: C_3  and  C_4 
REMARK    3  A    between atoms: C_4  and  N_5 
REMARK    4  A    between atoms: C_4  and  C_21 
REMARK    5  A    between atoms: N_5  and  C_6 
REMARK    6  A    between atoms: C_21  and  C_22 
REMARK    7  A    between atoms: C_25  and  O_26 
ROOT
HETATM    1  N   UNL     1       3.869  27.168  53.223  1.00  0.00    -0.277 NA
HETATM    2  H   UNL     1       3.538  26.592  54.000  1.00  0.00     0.128 HD
ENDROOT
BRANCH   1   3
HETATM    3  C   UNL     1       5.044  26.484  52.582  1.00  0.00     0.164 C 
BRANCH   3   4
HETATM    4  C   UNL     1       5.203  26.801  51.086  1.00  0.00     0.276 C 
HETATM    5  O   UNL     1       5.754  27.791  50.621  1.00  0.00    -0.263 OA
BRANCH   4   6
HETATM    6  O   UNL     1       4.674  25.787  50.338  1.00  0.00    -0.325 OA
HETATM    7  C   UNL     1       4.164  26.196  49.067  1.00  0.00     0.213 C 
ENDBRANCH   4   6
ENDBRANCH   3   4
BRANCH   3   8
HETATM    8  C   UNL     1       4.887  24.961  52.756  1.00  0.00     0.068 C 
BRANCH   8   9
HETATM    9  C   UNL     1       6.099  24.343  53.415  1.00  0.00    -0.056 A 
HETATM   10  C   UNL     1       6.275  24.445  54.804  1.00  0.00     0.010 A 
HETATM   11  C   UNL     1       7.408  23.905  55.418  1.00  0.00     0.037 A 
HETATM   12  C   UNL     1       8.366  23.266  54.641  1.00  0.00     0.065 A 
HETATM   13  C   UNL     1       8.208  23.156  53.264  1.00  0.00     0.037 A 
HETATM   14  C   UNL     1       7.075  23.691  52.650  1.00  0.00     0.010 A 
BRANCH  12  15
HETATM   15  O   UNL     1       9.487  22.726  55.195  1.00  0.00    -0.361 OA
HETATM   16  H   UNL     1      10.010  23.434  55.608  1.00  0.00     0.217 HD
ENDBRANCH  12  15
ENDBRANCH   8   9
ENDBRANCH   3   8
ENDBRANCH   1   3
BRANCH   1  17
HETATM   17  C   UNL     1       4.057  28.504  53.651  1.00  0.00     0.034 A 
HETATM   18  C   UNL     1       4.727  28.717  54.887  1.00  0.00     0.013 A 
HETATM   19  C   UNL     1       4.893  30.037  55.349  1.00  0.00     0.044 A 
HETATM   20  C   UNL     1       5.250  27.679  55.688  1.00  0.00     0.015 A 
HETATM   21  C   UNL     1       5.561  30.304  56.556  1.00  0.00     0.030 A 
HETATM   22  N   UNL     1       4.407  31.053  54.621  1.00  0.00    -0.355 N 
HETATM   23  C   UNL     1       6.074  29.258  57.320  1.00  0.00     0.002 A 
HETATM   24  C   UNL     1       5.916  27.946  56.887  1.00  0.00     0.001 A 
HETATM   25  H   UNL     1       4.530  31.995  54.983  1.00  0.00     0.166 HD
HETATM   26  C   UNL     1       3.783  30.909  53.440  1.00  0.00     0.044 A 
HETATM   27  C   UNL     1       3.600  29.619  52.897  1.00  0.00     0.013 A 
HETATM   28  C   UNL     1       3.330  32.052  52.760  1.00  0.00     0.030 A 
HETATM   29  C   UNL     1       2.980  29.535  51.628  1.00  0.00     0.015 A 
HETATM   30  C   UNL     1       2.531  30.676  50.957  1.00  0.00     0.001 A 
HETATM   31  C   UNL     1       2.700  31.933  51.524  1.00  0.00     0.002 A 
ENDBRANCH   1  17
TORSDOF 7
ENDMDL
MODEL 10
REMARK VINA RESULT:      -8.2      1.916      4.925
REMARK  7 active torsions:
REMARK  status: ('A' for Active; 'I' for Inactive)
REMARK    1  A    between atoms: O_2  and  C_3 
REMARK    2  A    between atoms: C_3  and  C_4 
REMARK    3  A    between atoms: C_4  and  N_5 
REMARK    4  A    between atoms: C_4  and  C_21 
REMARK    5  A    between atoms: N_5  and  C_6 
REMARK    6  A    between atoms: C_21  and  C_22 
REMARK    7  A    between atoms: C_25  and  O_26 
ROOT
HETATM    1  N   UNL     1       5.493  26.505  56.011  1.00  0.00    -0.277 NA
HETATM    2  H   UNL     1       4.498  26.665  56.177  1.00  0.00     0.128 HD
ENDROOT
BRANCH   1   3
HETATM    3  C   UNL     1       6.259  27.714  56.467  1.00  0.00     0.164 C 
BRANCH   3   4
HETATM    4  C   UNL     1       7.564  27.378  57.208  1.00  0.00     0.276 C 
HETATM    5  O   UNL     1       7.672  26.589  58.138  1.00  0.00    -0.263 OA
BRANCH   4   6
HETATM    6  O   UNL     1       8.607  28.059  56.646  1.00  0.00    -0.325 OA
HETATM    7  C   UNL     1       9.057  29.180  57.409  1.00  0.00     0.213 C 
ENDBRANCH   4   6
ENDBRANCH   3   4
BRANCH   3   8
HETATM    8  C   UNL     1       5.359  28.550  57.397  1.00  0.00     0.068 C 
BRANCH   8   9
HETATM    9  C   UNL     1       4.738  29.723  56.675  1.00  0.00    -0.056 A 
HETATM   10  C   UNL     1       5.543  30.595  55.924  1.00  0.00     0.010 A 
HETATM   11  C   UNL     1       4.984  31.701  55.280  1.00  0.00     0.037 A 
HETATM   12  C   UNL     1       3.620  31.937  55.390  1.00  0.00     0.065 A 
HETATM   13  C   UNL     1       2.807  31.085  56.129  1.00  0.00     0.037 A 
HETATM   14  C   UNL     1       3.363  29.977  56.770  1.00  0.00     0.010 A 
BRANCH  12  15
HETATM   15  O   UNL     1       3.031  33.003  54.780  1.00  0.00    -0.361 OA
HETATM   16  H   UNL     1       3.342  33.056  53.862  1.00  0.00     0.217 HD
ENDBRANCH  12  15
ENDBRANCH   8   9
ENDBRANCH   3   8
ENDBRANCH   1   3
BRANCH   1  17
HETATM   17  C   UNL     1       5.703  26.077  54.678  1.00  0.00     0.034 A 
HETATM   18  C   UNL     1       6.486  24.908  54.471  1.00  0.00     0.013 A 
HETATM   19  C   UNL     1       6.737  24.485  53.152  1.00  0.00     0.044 A 
HETATM   20  C   UNL     1       7.029  24.130  55.516  1.00  0.00     0.015 A 
HETATM   21  C   UNL     1       7.491  23.328  52.893  1.00  0.00     0.030 A 
HETATM   22  N   UNL     1       6.244  25.198  52.129  1.00  0.00    -0.355 N 
HETATM   23  C   UNL     1       8.007  22.576  53.946  1.00  0.00     0.002 A 
HETATM   24  C   UNL     1       7.778  22.978  55.258  1.00  0.00     0.001 A 
HETATM   25  H   UNL     1       6.449  24.877  51.186  1.00  0.00     0.166 HD
HETATM   26  C   UNL     1       5.484  26.298  52.267  1.00  0.00     0.044 A 
HETATM   27  C   UNL     1       5.167  26.771  53.559  1.00  0.00     0.013 A 
HETATM   28  C   UNL     1       5.010  26.953  51.119  1.00  0.00     0.030 A 
HETATM   29  C   UNL     1       4.324  27.904  53.641  1.00  0.00     0.015 A 
HETATM   30  C   UNL     1       3.857  28.553  52.494  1.00  0.00     0.001 A 
HETATM   31  C   UNL     1       4.204  28.082  51.234  1.00  0.00     0.002 A 
ENDBRANCH   1  17
TORSDOF 7
ENDMDL
