MODEL 1
REMARK VINA RESULT:     -10.5      0.000      0.000
REMARK  6 active torsions:
REMARK  status: ('A' for Active; 'I' for Inactive)
REMARK    1  A    between atoms: O_2  and  C_3 
REMARK    2  A    between atoms: C_5  and  C_6 
REMARK    3  A    between atoms: C_12  and  C_13 
REMARK       I    between atoms: C_13  and  N_14 
REMARK    4  A    between atoms: N_14  and  C_15 
REMARK    5  A    between atoms: C_17  and  O_18 
REMARK    6  A    between atoms: C_23  and  C_24 
ROOT
HETATM    1  C   UNL     1       7.169  28.046  57.636  1.00  0.00     0.118 C 
HETATM    2  N   UNL     1       7.200  26.952  56.641  1.00  0.00    -0.365 N 
HETATM    3  C   UNL     1       6.832  27.232  55.355  1.00  0.00     0.138 A 
HETATM    4  N   UNL     1       6.148  28.387  55.049  1.00  0.00    -0.240 N 
HETATM    5  N   UNL     1       5.921  28.545  53.738  1.00  0.00    -0.181 NA
HETATM    6  C   UNL     1       6.400  27.419  53.202  1.00  0.00     0.160 A 
HETATM    7  C   UNL     1       6.986  26.553  54.160  1.00  0.00     0.096 A 
HETATM    8  C   UNL     1       5.718  29.372  56.024  1.00  0.00     0.221 C 
HETATM    9  C   UNL     1       5.839  28.795  57.451  1.00  0.00     0.066 C 
HETATM   10  H   UNL     1       6.867  26.068  57.033  1.00  0.00     0.161 HD
ENDROOT
BRANCH   7  11
HETATM   11  C   UNL     1       7.619  25.272  53.883  1.00  0.00     0.261 C 
HETATM   12  N   UNL     1       7.321  24.294  54.812  1.00  0.00    -0.323 N 
HETATM   13  H   UNL     1       6.782  24.613  55.612  1.00  0.00     0.169 HD
HETATM   14  O   UNL     1       8.342  25.137  52.903  1.00  0.00    -0.267 OA
BRANCH  12  15
HETATM   15  C   UNL     1       7.680  22.933  54.788  1.00  0.00     0.037 A 
HETATM   16  C   UNL     1       7.705  22.156  53.628  1.00  0.00     0.066 A 
HETATM   17  C   UNL     1       8.051  20.807  53.704  1.00  0.00     0.067 A 
HETATM   18  C   UNL     1       8.366  20.213  54.918  1.00  0.00     0.036 A 
HETATM   19  C   UNL     1       8.347  20.982  56.079  1.00  0.00     0.005 A 
HETATM   20  C   UNL     1       8.009  22.337  56.013  1.00  0.00     0.029 A 
BRANCH  17  21
HETATM   21  O   UNL     1       8.086  20.023  52.587  1.00  0.00    -0.361 OA
HETATM   22  H   UNL     1       8.549  20.511  51.884  1.00  0.00     0.217 HD
ENDBRANCH  17  21
ENDBRANCH  12  15
ENDBRANCH   7  11
BRANCH   1  23
HETATM   23  C   UNL     1       8.418  28.925  57.556  1.00  0.00    -0.033 A 
HETATM   24  C   UNL     1       8.469  30.179  58.191  1.00  0.00     0.046 A 
HETATM   25  C   UNL     1       9.620  30.970  58.156  1.00  0.00     0.068 A 
HETATM   26  C   UNL     1      10.728  30.553  57.425  1.00  0.00     0.037 A 
HETATM   27  C   UNL     1      10.684  29.337  56.745  1.00  0.00     0.003 A 
HETATM   28  C   UNL     1       9.539  28.535  56.803  1.00  0.00     0.009 A 
BRANCH  25  29
HETATM   29  O   UNL     1       9.547  32.160  58.827  1.00  0.00    -0.356 OA
HETATM   30  C   UNL     1       9.274  32.025  60.219  1.00  0.00     0.210 C 
ENDBRANCH  25  29
ENDBRANCH   1  23
BRANCH   8  31
HETATM   31  C   UNL     1       4.290  29.818  55.790  1.00  0.00     0.409 C 
HETATM   32  F   UNL     1       3.499  28.805  55.366  1.00  0.00    -0.169 F 
HETATM   33  F   UNL     1       3.756  30.251  56.966  1.00  0.00    -0.169 F 
HETATM   34  F   UNL     1       4.172  30.845  54.927  1.00  0.00    -0.169 F 
ENDBRANCH   8  31
TORSDOF 6
ENDMDL
MODEL 2
REMARK VINA RESULT:     -10.1      3.678      7.019
REMARK  6 active torsions:
REMARK  status: ('A' for Active; 'I' for Inactive)
REMARK    1  A    between atoms: O_2  and  C_3 
REMARK    2  A    between atoms: C_5  and  C_6 
REMARK    3  A    between atoms: C_12  and  C_13 
REMARK       I    between atoms: C_13  and  N_14 
REMARK    4  A    between atoms: N_14  and  C_15 
REMARK    5  A    between atoms: C_17  and  O_18 
REMARK    6  A    between atoms: C_23  and  C_24 
ROOT
HETATM    1  C   UNL     1       5.851  24.629  55.463  1.00  0.00     0.118 C 
HETATM    2  N   UNL     1       5.229  25.566  54.503  1.00  0.00    -0.365 N 
HETATM    3  C   UNL     1       5.926  26.686  54.144  1.00  0.00     0.138 A 
HETATM    4  N   UNL     1       7.012  27.110  54.876  1.00  0.00    -0.240 N 
HETATM    5  N   UNL     1       7.625  28.181  54.356  1.00  0.00    -0.181 NA
HETATM    6  C   UNL     1       6.858  28.500  53.310  1.00  0.00     0.160 A 
HETATM    7  C   UNL     1       5.777  27.602  53.119  1.00  0.00     0.096 A 
HETATM    8  C   UNL     1       7.490  26.468  56.087  1.00  0.00     0.221 C 
HETATM    9  C   UNL     1       6.435  25.469  56.610  1.00  0.00     0.066 C 
HETATM   10  H   UNL     1       4.228  25.684  54.674  1.00  0.00     0.161 HD
ENDROOT
BRANCH   7  11
HETATM   11  C   UNL     1       4.790  27.664  52.052  1.00  0.00     0.261 C 
HETATM   12  N   UNL     1       5.244  27.167  50.846  1.00  0.00    -0.323 N 
HETATM   13  H   UNL     1       6.227  26.912  50.831  1.00  0.00     0.169 HD
HETATM   14  O   UNL     1       3.676  28.129  52.265  1.00  0.00    -0.267 OA
BRANCH  12  15
HETATM   15  C   UNL     1       4.521  26.987  49.651  1.00  0.00     0.037 A 
HETATM   16  C   UNL     1       4.080  25.745  49.189  1.00  0.00     0.066 A 
HETATM   17  C   UNL     1       3.391  25.661  47.979  1.00  0.00     0.067 A 
HETATM   18  C   UNL     1       3.137  26.792  47.216  1.00  0.00     0.036 A 
HETATM   19  C   UNL     1       3.569  28.035  47.672  1.00  0.00     0.005 A 
HETATM   20  C   UNL     1       4.255  28.132  48.887  1.00  0.00     0.029 A 
BRANCH  17  21
HETATM   21  O   UNL     1       2.945  24.461  47.503  1.00  0.00    -0.361 OA
HETATM   22  H   UNL     1       2.991  24.481  46.531  1.00  0.00     0.217 HD
ENDBRANCH  17  21
ENDBRANCH  12  15
ENDBRANCH   7  11
BRANCH   1  23
HETATM   23  C   UNL     1       6.847  23.691  54.781  1.00  0.00    -0.033 A 
HETATM   24  C   UNL     1       7.656  22.817  55.529  1.00  0.00     0.046 A 
HETATM   25  C   UNL     1       8.540  21.929  54.911  1.00  0.00     0.068 A 
HETATM   26  C   UNL     1       8.683  21.942  53.527  1.00  0.00     0.037 A 
HETATM   27  C   UNL     1       7.929  22.833  52.767  1.00  0.00     0.003 A 
HETATM   28  C   UNL     1       7.026  23.704  53.387  1.00  0.00     0.009 A 
BRANCH  25  29
HETATM   29  O   UNL     1       9.257  21.121  55.750  1.00  0.00    -0.356 OA
HETATM   30  C   UNL     1       8.549  20.726  56.921  1.00  0.00     0.210 C 
ENDBRANCH  25  29
ENDBRANCH   1  23
BRANCH   8  31
HETATM   31  C   UNL     1       7.803  27.472  57.177  1.00  0.00     0.409 C 
HETATM   32  F   UNL     1       6.932  28.507  57.187  1.00  0.00    -0.169 F 
HETATM   33  F   UNL     1       7.690  26.866  58.392  1.00  0.00    -0.169 F 
HETATM   34  F   UNL     1       9.055  27.966  57.122  1.00  0.00    -0.169 F 
ENDBRANCH   8  31
TORSDOF 6
ENDMDL
MODEL 3
REMARK VINA RESULT:     -10.0      1.547      1.917
REMARK  6 active torsions:
REMARK  status: ('A' for Active; 'I' for Inactive)
REMARK    1  A    between atoms: O_2  and  C_3 
REMARK    2  A    between atoms: C_5  and  C_6 
REMARK    3  A    between atoms: C_12  and  C_13 
REMARK       I    between atoms: C_13  and  N_14 
REMARK    4  A    between atoms: N_14  and  C_15 
REMARK    5  A    between atoms: C_17  and  O_18 
REMARK    6  A    between atoms: C_23  and  C_24 
ROOT
HETATM    1  C   UNL     1       4.894  28.062  56.512  1.00  0.00     0.118 C 
HETATM    2  N   UNL     1       4.921  26.911  55.583  1.00  0.00    -0.365 N 
HETATM    3  C   UNL     1       5.179  27.148  54.262  1.00  0.00     0.138 A 
HETATM    4  N   UNL     1       5.095  28.418  53.740  1.00  0.00    -0.240 N 
HETATM    5  N   UNL     1       5.443  28.493  52.449  1.00  0.00    -0.181 NA
HETATM    6  C   UNL     1       5.674  27.220  52.116  1.00  0.00     0.160 A 
HETATM    7  C   UNL     1       5.529  26.325  53.206  1.00  0.00     0.096 A 
HETATM    8  C   UNL     1       4.693  29.593  54.493  1.00  0.00     0.221 C 
HETATM    9  C   UNL     1       4.069  29.171  55.841  1.00  0.00     0.066 C 
HETATM   10  H   UNL     1       4.187  26.230  55.793  1.00  0.00     0.161 HD
ENDROOT
BRANCH   7  11
HETATM   11  C   UNL     1       5.744  24.887  53.169  1.00  0.00     0.261 C 
HETATM   12  N   UNL     1       6.858  24.474  53.873  1.00  0.00    -0.323 N 
HETATM   13  H   UNL     1       7.432  25.224  54.245  1.00  0.00     0.169 HD
HETATM   14  O   UNL     1       4.975  24.161  52.549  1.00  0.00    -0.267 OA
BRANCH  12  15
HETATM   15  C   UNL     1       7.290  23.157  54.123  1.00  0.00     0.037 A 
HETATM   16  C   UNL     1       7.584  22.232  53.119  1.00  0.00     0.066 A 
HETATM   17  C   UNL     1       7.982  20.940  53.462  1.00  0.00     0.067 A 
HETATM   18  C   UNL     1       8.087  20.549  54.790  1.00  0.00     0.036 A 
HETATM   19  C   UNL     1       7.800  21.466  55.797  1.00  0.00     0.005 A 
HETATM   20  C   UNL     1       7.406  22.766  55.464  1.00  0.00     0.029 A 
BRANCH  17  21
HETATM   21  O   UNL     1       8.279  20.014  52.504  1.00  0.00    -0.361 OA
HETATM   22  H   UNL     1       7.697  19.245  52.629  1.00  0.00     0.217 HD
ENDBRANCH  17  21
ENDBRANCH  12  15
ENDBRANCH   7  11
BRANCH   1  23
HETATM   23  C   UNL     1       6.300  28.479  56.944  1.00  0.00    -0.033 A 
HETATM   24  C   UNL     1       6.547  29.749  57.496  1.00  0.00     0.046 A 
HETATM   25  C   UNL     1       7.821  30.123  57.930  1.00  0.00     0.068 A 
HETATM   26  C   UNL     1       8.894  29.254  57.762  1.00  0.00     0.037 A 
HETATM   27  C   UNL     1       8.685  28.009  57.173  1.00  0.00     0.003 A 
HETATM   28  C   UNL     1       7.403  27.628  56.761  1.00  0.00     0.009 A 
BRANCH  25  29
HETATM   29  O   UNL     1       7.925  31.379  58.462  1.00  0.00    -0.356 OA
HETATM   30  C   UNL     1       9.191  31.655  59.054  1.00  0.00     0.210 C 
ENDBRANCH  25  29
ENDBRANCH   1  23
BRANCH   8  31
HETATM   31  C   UNL     1       3.699  30.444  53.732  1.00  0.00     0.409 C 
HETATM   32  F   UNL     1       2.887  29.703  52.942  1.00  0.00    -0.169 F 
HETATM   33  F   UNL     1       2.887  31.088  54.617  1.00  0.00    -0.169 F 
HETATM   34  F   UNL     1       4.266  31.407  52.979  1.00  0.00    -0.169 F 
ENDBRANCH   8  31
TORSDOF 6
ENDMDL
MODEL 4
REMARK VINA RESULT:      -9.8      3.867      7.194
REMARK  6 active torsions:
REMARK  status: ('A' for Active; 'I' for Inactive)
REMARK    1  A    between atoms: O_2  and  C_3 
REMARK    2  A    between atoms: C_5  and  C_6 
REMARK    3  A    between atoms: C_12  and  C_13 
REMARK       I    between atoms: C_13  and  N_14 
REMARK    4  A    between atoms: N_14  and  C_15 
REMARK    5  A    between atoms: C_17  and  O_18 
REMARK    6  A    between atoms: C_23  and  C_24 
ROOT
HETATM    1  C   UNL     1       5.559  25.224  55.447  1.00  0.00     0.118 C 
HETATM    2  N   UNL     1       4.972  25.613  54.146  1.00  0.00    -0.365 N 
HETATM    3  C   UNL     1       5.541  26.649  53.459  1.00  0.00     0.138 A 
HETATM    4  N   UNL     1       6.412  27.515  54.079  1.00  0.00    -0.240 N 
HETATM    5  N   UNL     1       6.934  28.433  53.254  1.00  0.00    -0.181 NA
HETATM    6  C   UNL     1       6.313  28.197  52.095  1.00  0.00     0.160 A 
HETATM    7  C   UNL     1       5.428  27.091  52.154  1.00  0.00     0.096 A 
HETATM    8  C   UNL     1       6.773  27.457  55.484  1.00  0.00     0.221 C 
HETATM    9  C   UNL     1       5.809  26.517  56.240  1.00  0.00     0.066 C 
HETATM   10  H   UNL     1       3.950  25.578  54.160  1.00  0.00     0.161 HD
ENDROOT
BRANCH   7  11
HETATM   11  C   UNL     1       4.635  26.568  51.051  1.00  0.00     0.261 C 
HETATM   12  N   UNL     1       3.904  27.534  50.387  1.00  0.00    -0.323 N 
HETATM   13  H   UNL     1       3.938  28.459  50.804  1.00  0.00     0.169 HD
HETATM   14  O   UNL     1       4.653  25.372  50.788  1.00  0.00    -0.267 OA
BRANCH  12  15
HETATM   15  C   UNL     1       3.121  27.387  49.226  1.00  0.00     0.037 A 
HETATM   16  C   UNL     1       3.341  26.403  48.260  1.00  0.00     0.066 A 
HETATM   17  C   UNL     1       2.529  26.349  47.127  1.00  0.00     0.067 A 
HETATM   18  C   UNL     1       1.503  27.264  46.935  1.00  0.00     0.036 A 
HETATM   19  C   UNL     1       1.274  28.246  47.896  1.00  0.00     0.005 A 
HETATM   20  C   UNL     1       2.079  28.304  49.038  1.00  0.00     0.029 A 
BRANCH  17  21
HETATM   21  O   UNL     1       2.718  25.398  46.167  1.00  0.00    -0.361 OA
HETATM   22  H   UNL     1       3.370  24.755  46.495  1.00  0.00     0.217 HD
ENDBRANCH  17  21
ENDBRANCH  12  15
ENDBRANCH   7  11
BRANCH   1  23
HETATM   23  C   UNL     1       6.785  24.328  55.274  1.00  0.00    -0.033 A 
HETATM   24  C   UNL     1       6.914  23.474  54.164  1.00  0.00     0.046 A 
HETATM   25  C   UNL     1       8.050  22.682  53.978  1.00  0.00     0.068 A 
HETATM   26  C   UNL     1       9.058  22.678  54.937  1.00  0.00     0.037 A 
HETATM   27  C   UNL     1       8.931  23.478  56.071  1.00  0.00     0.003 A 
HETATM   28  C   UNL     1       7.804  24.289  56.241  1.00  0.00     0.009 A 
BRANCH  25  29
HETATM   29  O   UNL     1       8.060  21.908  52.850  1.00  0.00    -0.356 OA
HETATM   30  C   UNL     1       8.300  20.526  53.098  1.00  0.00     0.210 C 
ENDBRANCH  25  29
ENDBRANCH   1  23
BRANCH   8  31
HETATM   31  C   UNL     1       6.744  28.823  56.136  1.00  0.00     0.409 C 
HETATM   32  F   UNL     1       5.670  29.552  55.752  1.00  0.00    -0.169 F 
HETATM   33  F   UNL     1       6.642  28.675  57.486  1.00  0.00    -0.169 F 
HETATM   34  F   UNL     1       7.856  29.554  55.925  1.00  0.00    -0.169 F 
ENDBRANCH   8  31
TORSDOF 6
ENDMDL
MODEL 5
REMARK VINA RESULT:      -9.5      4.617      7.448
REMARK  6 active torsions:
REMARK  status: ('A' for Active; 'I' for Inactive)
REMARK    1  A    between atoms: O_2  and  C_3 
REMARK    2  A    between atoms: C_5  and  C_6 
REMARK    3  A    between atoms: C_12  and  C_13 
REMARK       I    between atoms: C_13  and  N_14 
REMARK    4  A    between atoms: N_14  and  C_15 
REMARK    5  A    between atoms: C_17  and  O_18 
REMARK    6  A    between atoms: C_23  and  C_24 
ROOT
HETATM    1  C   UNL     1       5.356  28.178  49.315  1.00  0.00     0.118 C 
HETATM    2  N   UNL     1       6.065  27.309  50.279  1.00  0.00    -0.365 N 
HETATM    3  C   UNL     1       5.511  27.120  51.514  1.00  0.00     0.138 A 
HETATM    4  N   UNL     1       4.513  27.946  51.977  1.00  0.00    -0.240 N 
HETATM    5  N   UNL     1       4.030  27.588  53.174  1.00  0.00    -0.181 NA
HETATM    6  C   UNL     1       4.800  26.553  53.521  1.00  0.00     0.160 A 
HETATM    7  C   UNL     1       5.747  26.206  52.525  1.00  0.00     0.096 A 
HETATM    8  C   UNL     1       3.992  29.093  51.255  1.00  0.00     0.221 C 
HETATM    9  C   UNL     1       4.922  29.443  50.073  1.00  0.00     0.066 C 
HETATM   10  H   UNL     1       7.078  27.446  50.247  1.00  0.00     0.161 HD
ENDROOT
BRANCH   7  11
HETATM   11  C   UNL     1       6.702  25.109  52.594  1.00  0.00     0.261 C 
HETATM   12  N   UNL     1       6.519  24.284  53.686  1.00  0.00    -0.323 N 
HETATM   13  H   UNL     1       5.812  24.595  54.346  1.00  0.00     0.169 HD
HETATM   14  O   UNL     1       7.566  24.985  51.735  1.00  0.00    -0.267 OA
BRANCH  12  15
HETATM   15  C   UNL     1       7.195  23.087  53.994  1.00  0.00     0.037 A 
HETATM   16  C   UNL     1       7.462  22.083  53.061  1.00  0.00     0.066 A 
HETATM   17  C   UNL     1       8.116  20.918  53.464  1.00  0.00     0.067 A 
HETATM   18  C   UNL     1       8.504  20.732  54.784  1.00  0.00     0.036 A 
HETATM   19  C   UNL     1       8.245  21.730  55.720  1.00  0.00     0.005 A 
HETATM   20  C   UNL     1       7.595  22.904  55.325  1.00  0.00     0.029 A 
BRANCH  17  21
HETATM   21  O   UNL     1       8.394  19.921  52.575  1.00  0.00    -0.361 OA
HETATM   22  H   UNL     1       7.845  20.054  51.782  1.00  0.00     0.217 HD
ENDBRANCH  17  21
ENDBRANCH  12  15
ENDBRANCH   7  11
BRANCH   1  23
HETATM   23  C   UNL     1       4.224  27.435  48.604  1.00  0.00    -0.033 A 
HETATM   24  C   UNL     1       3.218  28.131  47.910  1.00  0.00     0.046 A 
HETATM   25  C   UNL     1       2.204  27.459  47.224  1.00  0.00     0.068 A 
HETATM   26  C   UNL     1       2.135  26.070  47.272  1.00  0.00     0.037 A 
HETATM   27  C   UNL     1       3.092  25.359  47.995  1.00  0.00     0.003 A 
HETATM   28  C   UNL     1       4.121  26.035  48.660  1.00  0.00     0.009 A 
BRANCH  25  29
HETATM   29  O   UNL     1       1.296  28.250  46.575  1.00  0.00    -0.356 OA
HETATM   30  C   UNL     1       0.161  27.545  46.082  1.00  0.00     0.210 C 
ENDBRANCH  25  29
ENDBRANCH   1  23
BRANCH   8  31
HETATM   31  C   UNL     1       3.847  30.309  52.147  1.00  0.00     0.409 C 
HETATM   32  F   UNL     1       4.823  30.379  53.081  1.00  0.00    -0.169 F 
HETATM   33  F   UNL     1       3.959  31.437  51.391  1.00  0.00    -0.169 F 
HETATM   34  F   UNL     1       2.653  30.393  52.766  1.00  0.00    -0.169 F 
ENDBRANCH   8  31
TORSDOF 6
ENDMDL
MODEL 6
REMARK VINA RESULT:      -9.4      1.884      2.749
REMARK  6 active torsions:
REMARK  status: ('A' for Active; 'I' for Inactive)
REMARK    1  A    between atoms: O_2  and  C_3 
REMARK    2  A    between atoms: C_5  and  C_6 
REMARK    3  A    between atoms: C_12  and  C_13 
REMARK       I    between atoms: C_13  and  N_14 
REMARK    4  A    between atoms: N_14  and  C_15 
REMARK    5  A    between atoms: C_17  and  O_18 
REMARK    6  A    between atoms: C_23  and  C_24 
ROOT
HETATM    1  C   UNL     1       4.041  28.974  56.602  1.00  0.00     0.118 C 
HETATM    2  N   UNL     1       4.453  27.638  56.117  1.00  0.00    -0.365 N 
HETATM    3  C   UNL     1       5.145  27.559  54.941  1.00  0.00     0.138 A 
HETATM    4  N   UNL     1       5.182  28.622  54.068  1.00  0.00    -0.240 N 
HETATM    5  N   UNL     1       5.956  28.409  52.996  1.00  0.00    -0.181 NA
HETATM    6  C   UNL     1       6.356  27.143  53.148  1.00  0.00     0.160 A 
HETATM    7  C   UNL     1       5.885  26.553  54.348  1.00  0.00     0.096 A 
HETATM    8  C   UNL     1       4.481  29.877  54.268  1.00  0.00     0.221 C 
HETATM    9  C   UNL     1       3.447  29.732  55.405  1.00  0.00     0.066 C 
HETATM   10  H   UNL     1       3.728  26.933  56.273  1.00  0.00     0.161 HD
ENDROOT
BRANCH   7  11
HETATM   11  C   UNL     1       6.174  25.203  54.810  1.00  0.00     0.261 C 
HETATM   12  N   UNL     1       7.021  24.501  53.975  1.00  0.00    -0.323 N 
HETATM   13  H   UNL     1       7.257  24.973  53.108  1.00  0.00     0.169 HD
HETATM   14  O   UNL     1       5.679  24.785  55.849  1.00  0.00    -0.267 OA
BRANCH  12  15
HETATM   15  C   UNL     1       7.578  23.223  54.176  1.00  0.00     0.037 A 
HETATM   16  C   UNL     1       7.589  22.218  53.206  1.00  0.00     0.066 A 
HETATM   17  C   UNL     1       8.141  20.973  53.504  1.00  0.00     0.067 A 
HETATM   18  C   UNL     1       8.677  20.706  54.756  1.00  0.00     0.036 A 
HETATM   19  C   UNL     1       8.674  21.703  55.727  1.00  0.00     0.005 A 
HETATM   20  C   UNL     1       8.129  22.958  55.437  1.00  0.00     0.029 A 
BRANCH  17  21
HETATM   21  O   UNL     1       8.168  19.972  52.576  1.00  0.00    -0.361 OA
HETATM   22  H   UNL     1       8.904  19.373  52.792  1.00  0.00     0.217 HD
ENDBRANCH  17  21
ENDBRANCH  12  15
ENDBRANCH   7  11
BRANCH   1  23
HETATM   23  C   UNL     1       5.182  29.697  57.319  1.00  0.00    -0.033 A 
HETATM   24  C   UNL     1       6.424  29.070  57.530  1.00  0.00     0.046 A 
HETATM   25  C   UNL     1       7.484  29.738  58.148  1.00  0.00     0.068 A 
HETATM   26  C   UNL     1       7.303  31.031  58.631  1.00  0.00     0.037 A 
HETATM   27  C   UNL     1       6.067  31.655  58.479  1.00  0.00     0.003 A 
HETATM   28  C   UNL     1       5.015  30.992  57.836  1.00  0.00     0.009 A 
BRANCH  25  29
HETATM   29  O   UNL     1       8.643  29.024  58.279  1.00  0.00    -0.356 OA
HETATM   30  C   UNL     1       8.965  28.229  57.142  1.00  0.00     0.210 C 
ENDBRANCH  25  29
ENDBRANCH   1  23
BRANCH   8  31
HETATM   31  C   UNL     1       3.774  30.340  53.011  1.00  0.00     0.409 C 
HETATM   32  F   UNL     1       3.103  29.336  52.400  1.00  0.00    -0.169 F 
HETATM   33  F   UNL     1       2.841  31.278  53.340  1.00  0.00    -0.169 F 
HETATM   34  F   UNL     1       4.587  30.924  52.110  1.00  0.00    -0.169 F 
ENDBRANCH   8  31
TORSDOF 6
ENDMDL
MODEL 7
REMARK VINA RESULT:      -9.4      2.425      7.636
REMARK  6 active torsions:
REMARK  status: ('A' for Active; 'I' for Inactive)
REMARK    1  A    between atoms: O_2  and  C_3 
REMARK    2  A    between atoms: C_5  and  C_6 
REMARK    3  A    between atoms: C_12  and  C_13 
REMARK       I    between atoms: C_13  and  N_14 
REMARK    4  A    between atoms: N_14  and  C_15 
REMARK    5  A    between atoms: C_17  and  O_18 
REMARK    6  A    between atoms: C_23  and  C_24 
ROOT
HETATM    1  C   UNL     1       7.594  27.599  53.590  1.00  0.00     0.118 C 
HETATM    2  N   UNL     1       7.706  28.345  54.862  1.00  0.00    -0.365 N 
HETATM    3  C   UNL     1       6.575  28.531  55.608  1.00  0.00     0.138 A 
HETATM    4  N   UNL     1       5.327  28.330  55.064  1.00  0.00    -0.240 N 
HETATM    5  N   UNL     1       4.327  28.488  55.942  1.00  0.00    -0.181 NA
HETATM    6  C   UNL     1       4.952  28.883  57.055  1.00  0.00     0.160 A 
HETATM    7  C   UNL     1       6.362  28.929  56.915  1.00  0.00     0.096 A 
HETATM    8  C   UNL     1       5.080  27.961  53.682  1.00  0.00     0.221 C 
HETATM    9  C   UNL     1       6.365  28.145  52.846  1.00  0.00     0.066 C 
HETATM   10  H   UNL     1       8.342  29.142  54.785  1.00  0.00     0.161 HD
ENDROOT
BRANCH   7  11
HETATM   11  C   UNL     1       7.315  29.288  57.954  1.00  0.00     0.261 C 
HETATM   12  N   UNL     1       7.032  30.490  58.574  1.00  0.00    -0.323 N 
HETATM   13  H   UNL     1       6.261  31.010  58.169  1.00  0.00     0.169 HD
HETATM   14  O   UNL     1       8.262  28.553  58.207  1.00  0.00    -0.267 OA
BRANCH  12  15
HETATM   15  C   UNL     1       7.686  31.074  59.676  1.00  0.00     0.037 A 
HETATM   16  C   UNL     1       7.041  31.434  60.861  1.00  0.00     0.066 A 
HETATM   17  C   UNL     1       7.766  32.031  61.892  1.00  0.00     0.067 A 
HETATM   18  C   UNL     1       9.125  32.284  61.761  1.00  0.00     0.036 A 
HETATM   19  C   UNL     1       9.777  31.925  60.585  1.00  0.00     0.005 A 
HETATM   20  C   UNL     1       9.060  31.319  59.548  1.00  0.00     0.029 A 
BRANCH  17  21
HETATM   21  O   UNL     1       7.164  32.392  63.063  1.00  0.00    -0.361 OA
HETATM   22  H   UNL     1       7.833  32.377  63.770  1.00  0.00     0.217 HD
ENDBRANCH  17  21
ENDBRANCH  12  15
ENDBRANCH   7  11
BRANCH   1  23
HETATM   23  C   UNL     1       7.591  26.087  53.813  1.00  0.00    -0.033 A 
HETATM   24  C   UNL     1       7.661  25.541  55.108  1.00  0.00     0.046 A 
HETATM   25  C   UNL     1       7.619  24.161  55.323  1.00  0.00     0.068 A 
HETATM   26  C   UNL     1       7.571  23.291  54.238  1.00  0.00     0.037 A 
HETATM   27  C   UNL     1       7.552  23.805  52.944  1.00  0.00     0.003 A 
HETATM   28  C   UNL     1       7.569  25.189  52.733  1.00  0.00     0.009 A 
BRANCH  25  29
HETATM   29  O   UNL     1       7.679  23.759  56.629  1.00  0.00    -0.356 OA
HETATM   30  C   UNL     1       8.700  24.401  57.386  1.00  0.00     0.210 C 
ENDBRANCH  25  29
ENDBRANCH   1  23
BRANCH   8  31
HETATM   31  C   UNL     1       3.966  28.779  53.065  1.00  0.00     0.409 C 
HETATM   32  F   UNL     1       3.891  30.024  53.591  1.00  0.00    -0.169 F 
HETATM   33  F   UNL     1       4.211  28.941  51.734  1.00  0.00    -0.169 F 
HETATM   34  F   UNL     1       2.751  28.203  53.152  1.00  0.00    -0.169 F 
ENDBRANCH   8  31
TORSDOF 6
ENDMDL
MODEL 8
REMARK VINA RESULT:      -9.1      4.657      8.644
REMARK  6 active torsions:
REMARK  status: ('A' for Active; 'I' for Inactive)
REMARK    1  A    between atoms: O_2  and  C_3 
REMARK    2  A    between atoms: C_5  and  C_6 
REMARK    3  A    between atoms: C_12  and  C_13 
REMARK       I    between atoms: C_13  and  N_14 
REMARK    4  A    between atoms: N_14  and  C_15 
REMARK    5  A    between atoms: C_17  and  O_18 
REMARK    6  A    between atoms: C_23  and  C_24 
ROOT
HETATM    1  C   UNL     1       4.456  29.698  56.976  1.00  0.00     0.118 C 
HETATM    2  N   UNL     1       5.320  30.193  58.070  1.00  0.00    -0.365 N 
HETATM    3  C   UNL     1       6.674  30.059  57.940  1.00  0.00     0.138 A 
HETATM    4  N   UNL     1       7.216  29.213  56.999  1.00  0.00    -0.240 N 
HETATM    5  N   UNL     1       8.554  29.246  56.953  1.00  0.00    -0.181 NA
HETATM    6  C   UNL     1       8.877  30.073  57.952  1.00  0.00     0.160 A 
HETATM    7  C   UNL     1       7.746  30.619  58.610  1.00  0.00     0.096 A 
HETATM    8  C   UNL     1       6.441  28.368  56.108  1.00  0.00     0.221 C 
HETATM    9  C   UNL     1       4.972  28.305  56.579  1.00  0.00     0.066 C 
HETATM   10  H   UNL     1       4.924  29.992  58.991  1.00  0.00     0.161 HD
ENDROOT
BRANCH   7  11
HETATM   11  C   UNL     1       7.772  31.571  59.710  1.00  0.00     0.261 C 
HETATM   12  N   UNL     1       7.011  31.184  60.796  1.00  0.00    -0.323 N 
HETATM   13  H   UNL     1       6.462  30.341  60.657  1.00  0.00     0.169 HD
HETATM   14  O   UNL     1       8.423  32.605  59.620  1.00  0.00    -0.267 OA
BRANCH  12  15
HETATM   15  C   UNL     1       6.900  31.816  62.050  1.00  0.00     0.037 A 
HETATM   16  C   UNL     1       5.687  32.035  62.706  1.00  0.00     0.066 A 
HETATM   17  C   UNL     1       5.672  32.693  63.936  1.00  0.00     0.067 A 
HETATM   18  C   UNL     1       6.846  33.144  64.523  1.00  0.00     0.036 A 
HETATM   19  C   UNL     1       8.060  32.926  63.878  1.00  0.00     0.005 A 
HETATM   20  C   UNL     1       8.087  32.262  62.647  1.00  0.00     0.029 A 
BRANCH  17  21
HETATM   21  O   UNL     1       4.502  32.918  64.601  1.00  0.00    -0.361 OA
HETATM   22  H   UNL     1       4.661  32.793  65.553  1.00  0.00     0.217 HD
ENDBRANCH  17  21
ENDBRANCH  12  15
ENDBRANCH   7  11
BRANCH   1  23
HETATM   23  C   UNL     1       4.363  30.700  55.825  1.00  0.00    -0.033 A 
HETATM   24  C   UNL     1       4.764  32.039  55.989  1.00  0.00     0.046 A 
HETATM   25  C   UNL     1       4.720  32.950  54.931  1.00  0.00     0.068 A 
HETATM   26  C   UNL     1       4.209  32.558  53.698  1.00  0.00     0.037 A 
HETATM   27  C   UNL     1       3.759  31.251  53.524  1.00  0.00     0.003 A 
HETATM   28  C   UNL     1       3.828  30.334  54.578  1.00  0.00     0.009 A 
BRANCH  25  29
HETATM   29  O   UNL     1       5.153  34.216  55.216  1.00  0.00    -0.356 OA
HETATM   30  C   UNL     1       4.753  34.690  56.499  1.00  0.00     0.210 C 
ENDBRANCH  25  29
ENDBRANCH   1  23
BRANCH   8  31
HETATM   31  C   UNL     1       6.997  26.962  56.031  1.00  0.00     0.409 C 
HETATM   32  F   UNL     1       7.541  26.560  57.203  1.00  0.00    -0.169 F 
HETATM   33  F   UNL     1       5.983  26.092  55.762  1.00  0.00    -0.169 F 
HETATM   34  F   UNL     1       7.907  26.786  55.053  1.00  0.00    -0.169 F 
ENDBRANCH   8  31
TORSDOF 6
ENDMDL
MODEL 9
REMARK VINA RESULT:      -9.0      3.723      8.808
REMARK  6 active torsions:
REMARK  status: ('A' for Active; 'I' for Inactive)
REMARK    1  A    between atoms: O_2  and  C_3 
REMARK    2  A    between atoms: C_5  and  C_6 
REMARK    3  A    between atoms: C_12  and  C_13 
REMARK       I    between atoms: C_13  and  N_14 
REMARK    4  A    between atoms: N_14  and  C_15 
REMARK    5  A    between atoms: C_17  and  O_18 
REMARK    6  A    between atoms: C_23  and  C_24 
ROOT
HETATM    1  C   UNL     1       4.636  27.993  56.788  1.00  0.00     0.118 C 
HETATM    2  N   UNL     1       5.326  28.895  57.736  1.00  0.00    -0.365 N 
HETATM    3  C   UNL     1       6.692  28.942  57.711  1.00  0.00     0.138 A 
HETATM    4  N   UNL     1       7.423  27.966  57.073  1.00  0.00    -0.240 N 
HETATM    5  N   UNL     1       8.743  28.192  57.081  1.00  0.00    -0.181 NA
HETATM    6  C   UNL     1       8.863  29.300  57.818  1.00  0.00     0.160 A 
HETATM    7  C   UNL     1       7.616  29.823  58.243  1.00  0.00     0.096 A 
HETATM    8  C   UNL     1       6.851  26.801  56.422  1.00  0.00     0.221 C 
HETATM    9  C   UNL     1       5.369  26.642  56.826  1.00  0.00     0.066 C 
HETATM   10  H   UNL     1       4.883  28.895  58.657  1.00  0.00     0.161 HD
ENDROOT
BRANCH   7  11
HETATM   11  C   UNL     1       7.416  31.031  59.029  1.00  0.00     0.261 C 
HETATM   12  N   UNL     1       7.269  30.794  60.382  1.00  0.00    -0.323 N 
HETATM   13  H   UNL     1       7.225  29.815  60.643  1.00  0.00     0.169 HD
HETATM   14  O   UNL     1       7.386  32.127  58.483  1.00  0.00    -0.267 OA
BRANCH  12  15
HETATM   15  C   UNL     1       7.163  31.737  61.423  1.00  0.00     0.037 A 
HETATM   16  C   UNL     1       6.161  32.707  61.495  1.00  0.00     0.066 A 
HETATM   17  C   UNL     1       6.150  33.616  62.553  1.00  0.00     0.067 A 
HETATM   18  C   UNL     1       7.126  33.582  63.539  1.00  0.00     0.036 A 
HETATM   19  C   UNL     1       8.126  32.615  63.477  1.00  0.00     0.005 A 
HETATM   20  C   UNL     1       8.142  31.695  62.425  1.00  0.00     0.029 A 
BRANCH  17  21
HETATM   21  O   UNL     1       5.183  34.573  62.651  1.00  0.00    -0.361 OA
HETATM   22  H   UNL     1       4.394  34.173  63.057  1.00  0.00     0.217 HD
ENDBRANCH  17  21
ENDBRANCH  12  15
ENDBRANCH   7  11
BRANCH   1  23
HETATM   23  C   UNL     1       4.508  28.616  55.398  1.00  0.00    -0.033 A 
HETATM   24  C   UNL     1       4.728  27.856  54.234  1.00  0.00     0.046 A 
HETATM   25  C   UNL     1       4.573  28.408  52.960  1.00  0.00     0.068 A 
HETATM   26  C   UNL     1       4.260  29.757  52.821  1.00  0.00     0.037 A 
HETATM   27  C   UNL     1       4.087  30.543  53.958  1.00  0.00     0.003 A 
HETATM   28  C   UNL     1       4.217  29.981  55.233  1.00  0.00     0.009 A 
BRANCH  25  29
HETATM   29  O   UNL     1       4.800  27.559  51.911  1.00  0.00    -0.356 OA
HETATM   30  C   UNL     1       5.111  26.225  52.302  1.00  0.00     0.210 C 
ENDBRANCH  25  29
ENDBRANCH   1  23
BRANCH   8  31
HETATM   31  C   UNL     1       7.597  25.531  56.771  1.00  0.00     0.409 C 
HETATM   32  F   UNL     1       8.272  25.637  57.940  1.00  0.00    -0.169 F 
HETATM   33  F   UNL     1       6.704  24.515  56.936  1.00  0.00    -0.169 F 
HETATM   34  F   UNL     1       8.455  25.121  55.817  1.00  0.00    -0.169 F 
ENDBRANCH   8  31
TORSDOF 6
ENDMDL
MODEL 10
REMARK VINA RESULT:      -8.7     10.282     14.219
REMARK  6 active torsions:
REMARK  status: ('A' for Active; 'I' for Inactive)
REMARK    1  A    between atoms: O_2  and  C_3 
REMARK    2  A    between atoms: C_5  and  C_6 
REMARK    3  A    between atoms: C_12  and  C_13 
REMARK       I    between atoms: C_13  and  N_14 
REMARK    4  A    between atoms: N_14  and  C_15 
REMARK    5  A    between atoms: C_17  and  O_18 
REMARK    6  A    between atoms: C_23  and  C_24 
ROOT
HETATM    1  C   UNL     1       4.405  36.171  63.062  1.00  0.00     0.118 C 
HETATM    2  N   UNL     1       4.477  35.521  64.389  1.00  0.00    -0.365 N 
HETATM    3  C   UNL     1       5.529  34.688  64.649  1.00  0.00     0.138 A 
HETATM    4  N   UNL     1       6.319  34.205  63.631  1.00  0.00    -0.240 N 
HETATM    5  N   UNL     1       7.347  33.458  64.056  1.00  0.00    -0.181 NA
HETATM    6  C   UNL     1       7.158  33.394  65.377  1.00  0.00     0.160 A 
HETATM    7  C   UNL     1       6.037  34.145  65.815  1.00  0.00     0.096 A 
HETATM    8  C   UNL     1       6.102  34.476  62.221  1.00  0.00     0.221 C 
HETATM    9  C   UNL     1       4.703  35.092  62.008  1.00  0.00     0.066 C 
HETATM   10  H   UNL     1       3.557  35.215  64.717  1.00  0.00     0.161 HD
ENDROOT
BRANCH   7  11
HETATM   11  C   UNL     1       5.594  34.297  67.192  1.00  0.00     0.261 C 
HETATM   12  N   UNL     1       6.593  34.089  68.123  1.00  0.00    -0.323 N 
HETATM   13  H   UNL     1       7.476  33.768  67.739  1.00  0.00     0.169 HD
HETATM   14  O   UNL     1       4.428  34.582  67.440  1.00  0.00    -0.267 OA
BRANCH  12  15
HETATM   15  C   UNL     1       6.528  34.256  69.520  1.00  0.00     0.037 A 
HETATM   16  C   UNL     1       6.809  35.459  70.173  1.00  0.00     0.066 A 
HETATM   17  C   UNL     1       6.743  35.523  71.565  1.00  0.00     0.067 A 
HETATM   18  C   UNL     1       6.409  34.408  72.321  1.00  0.00     0.036 A 
HETATM   19  C   UNL     1       6.124  33.207  71.678  1.00  0.00     0.005 A 
HETATM   20  C   UNL     1       6.180  33.133  70.282  1.00  0.00     0.029 A 
BRANCH  17  21
HETATM   21  O   UNL     1       7.009  36.684  72.231  1.00  0.00    -0.361 OA
HETATM   22  H   UNL     1       7.416  36.462  73.087  1.00  0.00     0.217 HD
ENDBRANCH  17  21
ENDBRANCH  12  15
ENDBRANCH   7  11
BRANCH   1  23
HETATM   23  C   UNL     1       5.299  37.409  62.985  1.00  0.00    -0.033 A 
HETATM   24  C   UNL     1       5.868  37.823  61.767  1.00  0.00     0.046 A 
HETATM   25  C   UNL     1       6.653  38.975  61.681  1.00  0.00     0.068 A 
HETATM   26  C   UNL     1       6.941  39.706  62.829  1.00  0.00     0.037 A 
HETATM   27  C   UNL     1       6.431  39.289  64.056  1.00  0.00     0.003 A 
HETATM   28  C   UNL     1       5.624  38.148  64.135  1.00  0.00     0.009 A 
BRANCH  25  29
HETATM   29  O   UNL     1       7.134  39.278  60.436  1.00  0.00    -0.356 OA
HETATM   30  C   UNL     1       6.187  39.923  59.590  1.00  0.00     0.210 C 
ENDBRANCH  25  29
ENDBRANCH   1  23
BRANCH   8  31
HETATM   31  C   UNL     1       6.226  33.225  61.376  1.00  0.00     0.409 C 
HETATM   32  F   UNL     1       5.603  33.350  60.181  1.00  0.00    -0.169 F 
HETATM   33  F   UNL     1       7.540  32.998  61.099  1.00  0.00    -0.169 F 
HETATM   34  F   UNL     1       5.774  32.109  61.980  1.00  0.00    -0.169 F 
ENDBRANCH   8  31
TORSDOF 6
ENDMDL
