MODEL 1
REMARK VINA RESULT:     -11.2      0.000      0.000
REMARK  6 active torsions:
REMARK  status: ('A' for Active; 'I' for Inactive)
REMARK    1  A    between atoms: C_2  and  C_3 
REMARK    2  A    between atoms: C_3  and  N_4 
REMARK    3  A    between atoms: C_10  and  S_11 
REMARK    4  A    between atoms: S_11  and  C_12 
REMARK    5  A    between atoms: C_12  and  C_13 
REMARK       I    between atoms: C_13  and  N_14 
REMARK    6  A    between atoms: N_14  and  C_15 
ROOT
HETATM    1  N   UNL     1       6.627  26.077  54.304  1.00  0.00    -0.063 N 
HETATM    2  H   UNL     1       5.993  25.359  54.676  1.00  0.00     0.280 HD
HETATM    3  C   UNL     1       7.283  26.738  55.513  1.00  0.00     0.281 C 
HETATM    4  C   UNL     1       6.427  27.767  56.165  1.00  0.00     0.060 A 
HETATM    5  C   UNL     1       5.257  28.214  55.687  1.00  0.00     0.052 A 
HETATM    6  N   UNL     1       4.510  29.194  56.287  1.00  0.00    -0.228 NA
HETATM    7  C   UNL     1       4.961  29.698  57.386  1.00  0.00     0.169 A 
HETATM    8  N   UNL     1       6.120  29.307  57.980  1.00  0.00    -0.302 N 
HETATM    9  C   UNL     1       6.922  28.358  57.424  1.00  0.00     0.257 A 
HETATM   10  O   UNL     1       7.994  28.004  57.896  1.00  0.00    -0.267 OA
HETATM   11  C   UNL     1       4.710  27.678  54.390  1.00  0.00     0.088 C 
HETATM   12  C   UNL     1       5.794  27.060  53.509  1.00  0.00     0.241 C 
HETATM   13  H   UNL     1       6.415  29.748  58.839  1.00  0.00     0.171 HD
ENDROOT
BRANCH   7  14
HETATM   14  S   UNL     1       4.142  30.964  58.247  1.00  0.00    -0.083 SA
BRANCH  14  15
HETATM   15  C   UNL     1       5.573  32.015  58.650  1.00  0.00     0.185 C 
BRANCH  15  16
HETATM   16  C   UNL     1       5.495  32.670  60.017  1.00  0.00     0.232 C 
HETATM   17  N   UNL     1       6.085  31.956  61.045  1.00  0.00    -0.324 N 
HETATM   18  H   UNL     1       6.115  30.951  60.913  1.00  0.00     0.169 HD
HETATM   19  O   UNL     1       4.968  33.775  60.131  1.00  0.00    -0.272 OA
BRANCH  17  20
HETATM   20  C   UNL     1       6.342  32.448  62.344  1.00  0.00     0.076 A 
HETATM   21  C   UNL     1       7.628  32.689  62.855  1.00  0.00     0.143 A 
HETATM   22  F   UNL     1       8.725  32.361  62.157  1.00  0.00    -0.204 F 
HETATM   23  C   UNL     1       7.813  33.176  64.149  1.00  0.00     0.047 A 
HETATM   24  C   UNL     1       6.709  33.416  64.964  1.00  0.00     0.045 A 
HETATM   25  C   UNL     1       5.436  33.145  64.474  1.00  0.00     0.118 A 
HETATM   26  F   UNL     1       4.371  33.358  65.260  1.00  0.00    -0.206 F 
HETATM   27  C   UNL     1       5.242  32.654  63.184  1.00  0.00     0.074 A 
ENDBRANCH  17  20
ENDBRANCH  15  16
ENDBRANCH  14  15
ENDBRANCH   7  14
BRANCH   1  28
HETATM   28  C   UNL     1       7.620  25.360  53.419  1.00  0.00     0.273 C 
BRANCH  28  29
HETATM   29  C   UNL     1       7.830  23.918  53.787  1.00  0.00    -0.030 A 
HETATM   30  C   UNL     1       7.842  22.917  52.786  1.00  0.00     0.012 A 
HETATM   31  C   UNL     1       8.015  21.570  53.117  1.00  0.00     0.040 A 
HETATM   32  C   UNL     1       8.171  21.249  54.447  1.00  0.00     0.105 A 
HETATM   33  C   UNL     1       8.168  22.213  55.425  1.00  0.00     0.105 A 
HETATM   34  O   UNL     1       8.334  19.999  54.951  1.00  0.00    -0.323 OA
HETATM   35  C   UNL     1       8.003  23.551  55.133  1.00  0.00     0.048 A 
HETATM   36  O   UNL     1       8.330  21.691  56.669  1.00  0.00    -0.323 OA
HETATM   37  C   UNL     1       8.400  20.277  56.367  1.00  0.00     0.352 A 
ENDBRANCH  28  29
ENDBRANCH   1  28
TORSDOF 6
ENDMDL
MODEL 2
REMARK VINA RESULT:     -11.1      3.880     11.326
REMARK  6 active torsions:
REMARK  status: ('A' for Active; 'I' for Inactive)
REMARK    1  A    between atoms: C_2  and  C_3 
REMARK    2  A    between atoms: C_3  and  N_4 
REMARK    3  A    between atoms: C_10  and  S_11 
REMARK    4  A    between atoms: S_11  and  C_12 
REMARK    5  A    between atoms: C_12  and  C_13 
REMARK       I    between atoms: C_13  and  N_14 
REMARK    6  A    between atoms: N_14  and  C_15 
ROOT
HETATM    1  N   UNL     1       7.582  31.092  59.506  1.00  0.00    -0.063 N 
HETATM    2  H   UNL     1       7.061  30.564  60.217  1.00  0.00     0.280 HD
HETATM    3  C   UNL     1       6.553  31.570  58.486  1.00  0.00     0.281 C 
HETATM    4  C   UNL     1       6.171  30.527  57.494  1.00  0.00     0.060 A 
HETATM    5  C   UNL     1       6.755  29.326  57.372  1.00  0.00     0.052 A 
HETATM    6  N   UNL     1       6.411  28.401  56.422  1.00  0.00    -0.228 NA
HETATM    7  C   UNL     1       5.454  28.708  55.611  1.00  0.00     0.169 A 
HETATM    8  N   UNL     1       4.770  29.882  55.656  1.00  0.00    -0.302 N 
HETATM    9  C   UNL     1       5.078  30.855  56.557  1.00  0.00     0.257 A 
HETATM   10  O   UNL     1       4.523  31.943  56.607  1.00  0.00    -0.267 OA
HETATM   11  C   UNL     1       7.897  28.941  58.275  1.00  0.00     0.088 C 
HETATM   12  C   UNL     1       8.596  30.154  58.886  1.00  0.00     0.241 C 
HETATM   13  H   UNL     1       4.034  30.057  54.987  1.00  0.00     0.171 HD
ENDROOT
BRANCH   7  14
HETATM   14  S   UNL     1       4.923  27.652  54.339  1.00  0.00    -0.083 SA
BRANCH  14  15
HETATM   15  C   UNL     1       6.504  26.830  53.966  1.00  0.00     0.185 C 
BRANCH  15  16
HETATM   16  C   UNL     1       6.408  25.317  53.868  1.00  0.00     0.232 C 
HETATM   17  N   UNL     1       7.586  24.637  54.114  1.00  0.00    -0.324 N 
HETATM   18  H   UNL     1       8.436  25.153  53.911  1.00  0.00     0.169 HD
HETATM   19  O   UNL     1       5.323  24.793  53.624  1.00  0.00    -0.272 OA
BRANCH  17  20
HETATM   20  C   UNL     1       7.705  23.242  54.306  1.00  0.00     0.076 A 
HETATM   21  C   UNL     1       7.608  22.608  55.556  1.00  0.00     0.143 A 
HETATM   22  F   UNL     1       7.497  23.317  56.688  1.00  0.00    -0.204 F 
HETATM   23  C   UNL     1       7.735  21.223  55.676  1.00  0.00     0.047 A 
HETATM   24  C   UNL     1       7.976  20.449  54.544  1.00  0.00     0.045 A 
HETATM   25  C   UNL     1       8.108  21.076  53.311  1.00  0.00     0.118 A 
HETATM   26  F   UNL     1       8.358  20.337  52.222  1.00  0.00    -0.206 F 
HETATM   27  C   UNL     1       7.988  22.459  53.182  1.00  0.00     0.074 A 
ENDBRANCH  17  20
ENDBRANCH  15  16
ENDBRANCH  14  15
ENDBRANCH   7  14
BRANCH   1  28
HETATM   28  C   UNL     1       8.262  32.232  60.228  1.00  0.00     0.273 C 
BRANCH  28  29
HETATM   29  C   UNL     1       7.635  32.574  61.551  1.00  0.00    -0.030 A 
HETATM   30  C   UNL     1       8.342  32.354  62.757  1.00  0.00     0.012 A 
HETATM   31  C   UNL     1       7.761  32.647  63.995  1.00  0.00     0.040 A 
HETATM   32  C   UNL     1       6.480  33.153  64.002  1.00  0.00     0.105 A 
HETATM   33  C   UNL     1       5.789  33.376  62.837  1.00  0.00     0.105 A 
HETATM   34  O   UNL     1       5.758  33.479  65.104  1.00  0.00    -0.323 OA
HETATM   35  C   UNL     1       6.332  33.102  61.599  1.00  0.00     0.048 A 
HETATM   36  O   UNL     1       4.543  33.871  63.059  1.00  0.00    -0.323 OA
HETATM   37  C   UNL     1       4.514  33.902  64.505  1.00  0.00     0.352 A 
ENDBRANCH  28  29
ENDBRANCH   1  28
TORSDOF 6
ENDMDL
MODEL 3
REMARK VINA RESULT:     -11.0      2.398      3.232
REMARK  6 active torsions:
REMARK  status: ('A' for Active; 'I' for Inactive)
REMARK    1  A    between atoms: C_2  and  C_3 
REMARK    2  A    between atoms: C_3  and  N_4 
REMARK    3  A    between atoms: C_10  and  S_11 
REMARK    4  A    between atoms: S_11  and  C_12 
REMARK    5  A    between atoms: C_12  and  C_13 
REMARK       I    between atoms: C_13  and  N_14 
REMARK    6  A    between atoms: N_14  and  C_15 
ROOT
HETATM    1  N   UNL     1       7.359  27.965  55.412  1.00  0.00    -0.063 N 
HETATM    2  H   UNL     1       7.387  27.117  55.991  1.00  0.00     0.280 HD
HETATM    3  C   UNL     1       8.698  28.667  55.613  1.00  0.00     0.281 C 
HETATM    4  C   UNL     1       8.766  29.471  56.865  1.00  0.00     0.060 A 
HETATM    5  C   UNL     1       7.732  29.710  57.685  1.00  0.00     0.052 A 
HETATM    6  N   UNL     1       7.813  30.490  58.809  1.00  0.00    -0.228 NA
HETATM    7  C   UNL     1       8.962  31.005  59.096  1.00  0.00     0.169 A 
HETATM    8  N   UNL     1      10.085  30.812  58.354  1.00  0.00    -0.302 N 
HETATM    9  C   UNL     1      10.069  30.071  57.213  1.00  0.00     0.257 A 
HETATM   10  O   UNL     1      11.041  29.904  56.489  1.00  0.00    -0.267 OA
HETATM   11  C   UNL     1       6.367  29.155  57.372  1.00  0.00     0.088 C 
HETATM   12  C   UNL     1       6.200  28.813  55.893  1.00  0.00     0.241 C 
HETATM   13  H   UNL     1      10.951  31.249  58.635  1.00  0.00     0.171 HD
ENDROOT
BRANCH   7  14
HETATM   14  S   UNL     1       9.215  32.036  60.470  1.00  0.00    -0.083 SA
BRANCH  14  15
HETATM   15  C   UNL     1       7.495  32.551  60.768  1.00  0.00     0.185 C 
BRANCH  15  16
HETATM   16  C   UNL     1       7.048  32.414  62.213  1.00  0.00     0.232 C 
HETATM   17  N   UNL     1       6.867  33.607  62.887  1.00  0.00    -0.324 N 
HETATM   18  H   UNL     1       7.425  34.384  62.551  1.00  0.00     0.169 HD
HETATM   19  O   UNL     1       6.841  31.295  62.679  1.00  0.00    -0.272 OA
BRANCH  17  20
HETATM   20  C   UNL     1       6.246  33.752  64.148  1.00  0.00     0.076 A 
HETATM   21  C   UNL     1       4.855  33.773  64.343  1.00  0.00     0.143 A 
HETATM   22  F   UNL     1       4.007  33.760  63.305  1.00  0.00    -0.204 F 
HETATM   23  C   UNL     1       4.305  33.919  65.618  1.00  0.00     0.047 A 
HETATM   24  C   UNL     1       5.143  34.062  66.721  1.00  0.00     0.045 A 
HETATM   25  C   UNL     1       6.520  34.077  66.528  1.00  0.00     0.118 A 
HETATM   26  F   UNL     1       7.329  34.231  67.584  1.00  0.00    -0.206 F 
HETATM   27  C   UNL     1       7.077  33.936  65.258  1.00  0.00     0.074 A 
ENDBRANCH  17  20
ENDBRANCH  15  16
ENDBRANCH  14  15
ENDBRANCH   7  14
BRANCH   1  28
HETATM   28  C   UNL     1       7.146  27.508  53.987  1.00  0.00     0.273 C 
BRANCH  28  29
HETATM   29  C   UNL     1       7.385  26.038  53.779  1.00  0.00    -0.030 A 
HETATM   30  C   UNL     1       7.603  25.525  52.478  1.00  0.00     0.012 A 
HETATM   31  C   UNL     1       7.805  24.157  52.269  1.00  0.00     0.040 A 
HETATM   32  C   UNL     1       7.783  23.328  53.368  1.00  0.00     0.105 A 
HETATM   33  C   UNL     1       7.580  23.817  54.635  1.00  0.00     0.105 A 
HETATM   34  O   UNL     1       7.945  21.979  53.352  1.00  0.00    -0.323 OA
HETATM   35  C   UNL     1       7.382  25.160  54.877  1.00  0.00     0.048 A 
HETATM   36  O   UNL     1       7.589  22.838  55.577  1.00  0.00    -0.323 OA
HETATM   37  C   UNL     1       7.787  21.665  54.752  1.00  0.00     0.352 A 
ENDBRANCH  28  29
ENDBRANCH   1  28
TORSDOF 6
ENDMDL
MODEL 4
REMARK VINA RESULT:     -10.9      1.551      1.880
REMARK  6 active torsions:
REMARK  status: ('A' for Active; 'I' for Inactive)
REMARK    1  A    between atoms: C_2  and  C_3 
REMARK    2  A    between atoms: C_3  and  N_4 
REMARK    3  A    between atoms: C_10  and  S_11 
REMARK    4  A    between atoms: S_11  and  C_12 
REMARK    5  A    between atoms: C_12  and  C_13 
REMARK       I    between atoms: C_13  and  N_14 
REMARK    6  A    between atoms: N_14  and  C_15 
ROOT
HETATM    1  N   UNL     1       6.997  26.757  55.451  1.00  0.00    -0.063 N 
HETATM    2  H   UNL     1       6.953  26.057  56.202  1.00  0.00     0.280 HD
HETATM    3  C   UNL     1       8.276  27.555  55.683  1.00  0.00     0.281 C 
HETATM    4  C   UNL     1       8.137  28.613  56.723  1.00  0.00     0.060 A 
HETATM    5  C   UNL     1       6.986  28.969  57.311  1.00  0.00     0.052 A 
HETATM    6  N   UNL     1       6.880  29.976  58.235  1.00  0.00    -0.228 NA
HETATM    7  C   UNL     1       7.962  30.601  58.563  1.00  0.00     0.169 A 
HETATM    8  N   UNL     1       9.188  30.310  58.053  1.00  0.00    -0.302 N 
HETATM    9  C   UNL     1       9.360  29.340  57.114  1.00  0.00     0.257 A 
HETATM   10  O   UNL     1      10.434  29.073  56.594  1.00  0.00    -0.267 OA
HETATM   11  C   UNL     1       5.696  28.289  56.935  1.00  0.00     0.088 C 
HETATM   12  C   UNL     1       5.763  27.627  55.560  1.00  0.00     0.241 C 
HETATM   13  H   UNL     1       9.992  30.843  58.353  1.00  0.00     0.171 HD
ENDROOT
BRANCH   7  14
HETATM   14  S   UNL     1       7.982  31.915  59.697  1.00  0.00    -0.083 SA
BRANCH  14  15
HETATM   15  C   UNL     1       6.193  32.226  59.814  1.00  0.00     0.185 C 
BRANCH  15  16
HETATM   16  C   UNL     1       5.771  32.948  61.083  1.00  0.00     0.232 C 
HETATM   17  N   UNL     1       6.188  32.356  62.261  1.00  0.00    -0.324 N 
HETATM   18  H   UNL     1       6.333  31.354  62.216  1.00  0.00     0.169 HD
HETATM   19  O   UNL     1       5.138  33.998  61.000  1.00  0.00    -0.272 OA
BRANCH  17  20
HETATM   20  C   UNL     1       6.121  32.945  63.544  1.00  0.00     0.076 A 
HETATM   21  C   UNL     1       7.245  33.267  64.322  1.00  0.00     0.143 A 
HETATM   22  F   UNL     1       8.482  32.933  63.929  1.00  0.00    -0.204 F 
HETATM   23  C   UNL     1       7.109  33.848  65.584  1.00  0.00     0.047 A 
HETATM   24  C   UNL     1       5.839  34.103  66.096  1.00  0.00     0.045 A 
HETATM   25  C   UNL     1       4.724  33.753  65.343  1.00  0.00     0.118 A 
HETATM   26  F   UNL     1       3.499  33.980  65.838  1.00  0.00    -0.206 F 
HETATM   27  C   UNL     1       4.850  33.168  64.084  1.00  0.00     0.074 A 
ENDBRANCH  17  20
ENDBRANCH  15  16
ENDBRANCH  14  15
ENDBRANCH   7  14
BRANCH   1  28
HETATM   28  C   UNL     1       7.013  25.993  54.148  1.00  0.00     0.273 C 
BRANCH  28  29
HETATM   29  C   UNL     1       7.418  24.552  54.294  1.00  0.00    -0.030 A 
HETATM   30  C   UNL     1       7.566  23.730  53.151  1.00  0.00     0.012 A 
HETATM   31  C   UNL     1       7.921  22.383  53.275  1.00  0.00     0.040 A 
HETATM   32  C   UNL     1       8.119  21.883  54.543  1.00  0.00     0.105 A 
HETATM   33  C   UNL     1       7.985  22.674  55.657  1.00  0.00     0.105 A 
HETATM   34  O   UNL     1       8.451  20.603  54.852  1.00  0.00    -0.323 OA
HETATM   35  C   UNL     1       7.640  24.007  55.571  1.00  0.00     0.048 A 
HETATM   36  O   UNL     1       8.216  21.992  56.809  1.00  0.00    -0.323 OA
HETATM   37  C   UNL     1       8.478  20.665  56.294  1.00  0.00     0.352 A 
ENDBRANCH  28  29
ENDBRANCH   1  28
TORSDOF 6
ENDMDL
MODEL 5
REMARK VINA RESULT:     -10.8      5.015      7.275
REMARK  6 active torsions:
REMARK  status: ('A' for Active; 'I' for Inactive)
REMARK    1  A    between atoms: C_2  and  C_3 
REMARK    2  A    between atoms: C_3  and  N_4 
REMARK    3  A    between atoms: C_10  and  S_11 
REMARK    4  A    between atoms: S_11  and  C_12 
REMARK    5  A    between atoms: C_12  and  C_13 
REMARK       I    between atoms: C_13  and  N_14 
REMARK    6  A    between atoms: N_14  and  C_15 
ROOT
HETATM    1  N   UNL     1       7.588  25.041  57.557  1.00  0.00    -0.063 N 
HETATM    2  H   UNL     1       7.106  24.775  58.425  1.00  0.00     0.280 HD
HETATM    3  C   UNL     1       7.962  26.512  57.707  1.00  0.00     0.281 C 
HETATM    4  C   UNL     1       6.837  27.443  57.419  1.00  0.00     0.060 A 
HETATM    5  C   UNL     1       5.643  27.082  56.925  1.00  0.00     0.052 A 
HETATM    6  N   UNL     1       4.639  27.967  56.629  1.00  0.00    -0.228 NA
HETATM    7  C   UNL     1       4.860  29.218  56.859  1.00  0.00     0.169 A 
HETATM    8  N   UNL     1       6.019  29.699  57.382  1.00  0.00    -0.302 N 
HETATM    9  C   UNL     1       7.066  28.879  57.674  1.00  0.00     0.257 A 
HETATM   10  O   UNL     1       8.143  29.268  58.103  1.00  0.00    -0.267 OA
HETATM   11  C   UNL     1       5.354  25.638  56.612  1.00  0.00     0.088 C 
HETATM   12  C   UNL     1       6.627  24.818  56.410  1.00  0.00     0.241 C 
HETATM   13  H   UNL     1       6.125  30.692  57.533  1.00  0.00     0.171 HD
ENDROOT
BRANCH   7  14
HETATM   14  S   UNL     1       3.696  30.459  56.512  1.00  0.00    -0.083 SA
BRANCH  14  15
HETATM   15  C   UNL     1       4.383  31.069  54.940  1.00  0.00     0.185 C 
BRANCH  15  16
HETATM   16  C   UNL     1       4.205  30.114  53.773  1.00  0.00     0.232 C 
HETATM   17  N   UNL     1       5.261  29.248  53.557  1.00  0.00    -0.324 N 
HETATM   18  H   UNL     1       6.167  29.583  53.865  1.00  0.00     0.169 HD
HETATM   19  O   UNL     1       3.157  30.132  53.130  1.00  0.00    -0.272 OA
BRANCH  17  20
HETATM   20  C   UNL     1       5.242  28.130  52.692  1.00  0.00     0.076 A 
HETATM   21  C   UNL     1       5.455  28.204  51.306  1.00  0.00     0.143 A 
HETATM   22  F   UNL     1       5.589  29.384  50.685  1.00  0.00    -0.204 F 
HETATM   23  C   UNL     1       5.423  27.060  50.507  1.00  0.00     0.047 A 
HETATM   24  C   UNL     1       5.163  25.819  51.084  1.00  0.00     0.045 A 
HETATM   25  C   UNL     1       4.917  25.747  52.451  1.00  0.00     0.118 A 
HETATM   26  F   UNL     1       4.649  24.559  53.008  1.00  0.00    -0.206 F 
HETATM   27  C   UNL     1       4.942  26.886  53.255  1.00  0.00     0.074 A 
ENDBRANCH  17  20
ENDBRANCH  15  16
ENDBRANCH  14  15
ENDBRANCH   7  14
BRANCH   1  28
HETATM   28  C   UNL     1       8.796  24.139  57.441  1.00  0.00     0.273 C 
BRANCH  28  29
HETATM   29  C   UNL     1       8.588  22.959  56.533  1.00  0.00    -0.030 A 
HETATM   30  C   UNL     1       8.244  21.695  57.069  1.00  0.00     0.012 A 
HETATM   31  C   UNL     1       8.069  20.585  56.237  1.00  0.00     0.040 A 
HETATM   32  C   UNL     1       8.243  20.761  54.883  1.00  0.00     0.105 A 
HETATM   33  C   UNL     1       8.569  21.985  54.353  1.00  0.00     0.105 A 
HETATM   34  O   UNL     1       8.129  19.798  53.932  1.00  0.00    -0.323 OA
HETATM   35  C   UNL     1       8.746  23.101  55.143  1.00  0.00     0.048 A 
HETATM   36  O   UNL     1       8.701  21.947  53.000  1.00  0.00    -0.323 OA
HETATM   37  C   UNL     1       8.454  20.545  52.740  1.00  0.00     0.352 A 
ENDBRANCH  28  29
ENDBRANCH   1  28
TORSDOF 6
ENDMDL
MODEL 6
REMARK VINA RESULT:     -10.4      4.748     12.980
REMARK  6 active torsions:
REMARK  status: ('A' for Active; 'I' for Inactive)
REMARK    1  A    between atoms: C_2  and  C_3 
REMARK    2  A    between atoms: C_3  and  N_4 
REMARK    3  A    between atoms: C_10  and  S_11 
REMARK    4  A    between atoms: S_11  and  C_12 
REMARK    5  A    between atoms: C_12  and  C_13 
REMARK       I    between atoms: C_13  and  N_14 
REMARK    6  A    between atoms: N_14  and  C_15 
ROOT
HETATM    1  N   UNL     1       5.615  33.878  66.596  1.00  0.00    -0.063 N 
HETATM    2  H   UNL     1       5.646  32.893  66.889  1.00  0.00     0.280 HD
HETATM    3  C   UNL     1       4.461  33.996  65.606  1.00  0.00     0.281 C 
HETATM    4  C   UNL     1       4.813  33.551  64.228  1.00  0.00     0.060 A 
HETATM    5  C   UNL     1       6.045  33.219  63.815  1.00  0.00     0.052 A 
HETATM    6  N   UNL     1       6.347  32.854  62.529  1.00  0.00    -0.228 NA
HETATM    7  C   UNL     1       5.378  32.813  61.678  1.00  0.00     0.169 A 
HETATM    8  N   UNL     1       4.085  33.102  61.986  1.00  0.00    -0.302 N 
HETATM    9  C   UNL     1       3.720  33.497  63.237  1.00  0.00     0.257 A 
HETATM   10  O   UNL     1       2.581  33.809  63.552  1.00  0.00    -0.267 OA
HETATM   11  C   UNL     1       7.210  33.284  64.767  1.00  0.00     0.088 C 
HETATM   12  C   UNL     1       6.945  34.209  65.954  1.00  0.00     0.241 C 
HETATM   13  H   UNL     1       3.377  33.053  61.268  1.00  0.00     0.171 HD
ENDROOT
BRANCH   7  14
HETATM   14  S   UNL     1       5.608  32.395  60.008  1.00  0.00    -0.083 SA
BRANCH  14  15
HETATM   15  C   UNL     1       7.420  32.217  60.001  1.00  0.00     0.185 C 
BRANCH  15  16
HETATM   16  C   UNL     1       7.939  31.208  58.991  1.00  0.00     0.232 C 
HETATM   17  N   UNL     1       7.046  30.211  58.645  1.00  0.00    -0.324 N 
HETATM   18  H   UNL     1       6.356  29.982  59.352  1.00  0.00     0.169 HD
HETATM   19  O   UNL     1       9.067  31.346  58.522  1.00  0.00    -0.272 OA
BRANCH  17  20
HETATM   20  C   UNL     1       7.205  29.301  57.576  1.00  0.00     0.076 A 
HETATM   21  C   UNL     1       6.758  29.541  56.265  1.00  0.00     0.143 A 
HETATM   22  F   UNL     1       6.042  30.634  55.964  1.00  0.00    -0.204 F 
HETATM   23  C   UNL     1       6.946  28.599  55.253  1.00  0.00     0.047 A 
HETATM   24  C   UNL     1       7.575  27.390  55.540  1.00  0.00     0.045 A 
HETATM   25  C   UNL     1       7.987  27.134  56.843  1.00  0.00     0.118 A 
HETATM   26  F   UNL     1       8.576  25.965  57.128  1.00  0.00    -0.206 F 
HETATM   27  C   UNL     1       7.798  28.067  57.862  1.00  0.00     0.074 A 
ENDBRANCH  17  20
ENDBRANCH  15  16
ENDBRANCH  14  15
ENDBRANCH   7  14
BRANCH   1  28
HETATM   28  C   UNL     1       5.396  34.694  67.849  1.00  0.00     0.273 C 
BRANCH  28  29
HETATM   29  C   UNL     1       6.292  34.305  68.992  1.00  0.00    -0.030 A 
HETATM   30  C   UNL     1       7.461  35.053  69.272  1.00  0.00     0.012 A 
HETATM   31  C   UNL     1       8.314  34.688  70.319  1.00  0.00     0.040 A 
HETATM   32  C   UNL     1       7.981  33.579  71.064  1.00  0.00     0.105 A 
HETATM   33  C   UNL     1       6.846  32.852  70.805  1.00  0.00     0.105 A 
HETATM   34  O   UNL     1       8.696  33.073  72.102  1.00  0.00    -0.323 OA
HETATM   35  C   UNL     1       5.981  33.185  69.783  1.00  0.00     0.048 A 
HETATM   36  O   UNL     1       6.702  31.795  71.647  1.00  0.00    -0.323 OA
HETATM   37  C   UNL     1       7.900  31.919  72.449  1.00  0.00     0.352 A 
ENDBRANCH  28  29
ENDBRANCH   1  28
TORSDOF 6
ENDMDL
MODEL 7
REMARK VINA RESULT:     -10.2      2.646      3.588
REMARK  6 active torsions:
REMARK  status: ('A' for Active; 'I' for Inactive)
REMARK    1  A    between atoms: C_2  and  C_3 
REMARK    2  A    between atoms: C_3  and  N_4 
REMARK    3  A    between atoms: C_10  and  S_11 
REMARK    4  A    between atoms: S_11  and  C_12 
REMARK    5  A    between atoms: C_12  and  C_13 
REMARK       I    between atoms: C_13  and  N_14 
REMARK    6  A    between atoms: N_14  and  C_15 
ROOT
HETATM    1  N   UNL     1       7.325  27.936  55.524  1.00  0.00    -0.063 N 
HETATM    2  H   UNL     1       7.426  27.057  56.046  1.00  0.00     0.280 HD
HETATM    3  C   UNL     1       8.649  28.679  55.673  1.00  0.00     0.281 C 
HETATM    4  C   UNL     1       8.779  29.409  56.965  1.00  0.00     0.060 A 
HETATM    5  C   UNL     1       7.800  29.557  57.869  1.00  0.00     0.052 A 
HETATM    6  N   UNL     1       7.934  30.271  59.031  1.00  0.00    -0.228 NA
HETATM    7  C   UNL     1       9.081  30.815  59.267  1.00  0.00     0.169 A 
HETATM    8  N   UNL     1      10.154  30.711  58.438  1.00  0.00    -0.302 N 
HETATM    9  C   UNL     1      10.081  30.039  57.257  1.00  0.00     0.257 A 
HETATM   10  O   UNL     1      11.003  29.956  56.458  1.00  0.00    -0.267 OA
HETATM   11  C   UNL     1       6.437  28.967  57.620  1.00  0.00     0.088 C 
HETATM   12  C   UNL     1       6.175  28.706  56.137  1.00  0.00     0.241 C 
HETATM   13  H   UNL     1      11.021  31.166  58.684  1.00  0.00     0.171 HD
ENDROOT
BRANCH   7  14
HETATM   14  S   UNL     1       9.396  31.772  60.682  1.00  0.00    -0.083 SA
BRANCH  14  15
HETATM   15  C   UNL     1       7.896  31.382  61.636  1.00  0.00     0.185 C 
BRANCH  15  16
HETATM   16  C   UNL     1       6.839  32.472  61.601  1.00  0.00     0.232 C 
HETATM   17  N   UNL     1       5.703  32.164  60.875  1.00  0.00    -0.324 N 
HETATM   18  H   UNL     1       5.835  31.496  60.124  1.00  0.00     0.169 HD
HETATM   19  O   UNL     1       7.022  33.515  62.225  1.00  0.00    -0.272 OA
BRANCH  17  20
HETATM   20  C   UNL     1       4.500  32.907  60.878  1.00  0.00     0.076 A 
HETATM   21  C   UNL     1       4.010  33.615  59.769  1.00  0.00     0.143 A 
HETATM   22  F   UNL     1       4.724  33.719  58.639  1.00  0.00    -0.204 F 
HETATM   23  C   UNL     1       2.813  34.329  59.838  1.00  0.00     0.047 A 
HETATM   24  C   UNL     1       2.091  34.358  61.030  1.00  0.00     0.045 A 
HETATM   25  C   UNL     1       2.592  33.687  62.140  1.00  0.00     0.118 A 
HETATM   26  F   UNL     1       1.910  33.726  63.293  1.00  0.00    -0.206 F 
HETATM   27  C   UNL     1       3.789  32.975  62.080  1.00  0.00     0.074 A 
ENDBRANCH  17  20
ENDBRANCH  15  16
ENDBRANCH  14  15
ENDBRANCH   7  14
BRANCH   1  28
HETATM   28  C   UNL     1       7.026  27.556  54.092  1.00  0.00     0.273 C 
BRANCH  28  29
HETATM   29  C   UNL     1       7.317  26.116  53.773  1.00  0.00    -0.030 A 
HETATM   30  C   UNL     1       7.642  25.727  52.452  1.00  0.00     0.012 A 
HETATM   31  C   UNL     1       7.894  24.387  52.138  1.00  0.00     0.040 A 
HETATM   32  C   UNL     1       7.814  23.462  53.154  1.00  0.00     0.105 A 
HETATM   33  C   UNL     1       7.507  23.830  54.440  1.00  0.00     0.105 A 
HETATM   34  O   UNL     1       8.010  22.124  53.031  1.00  0.00    -0.323 OA
HETATM   35  C   UNL     1       7.256  25.142  54.786  1.00  0.00     0.048 A 
HETATM   36  O   UNL     1       7.472  22.770  55.290  1.00  0.00    -0.323 OA
HETATM   37  C   UNL     1       7.759  21.681  54.382  1.00  0.00     0.352 A 
ENDBRANCH  28  29
ENDBRANCH   1  28
TORSDOF 6
ENDMDL
MODEL 8
REMARK VINA RESULT:     -10.1      4.050     11.093
REMARK  6 active torsions:
REMARK  status: ('A' for Active; 'I' for Inactive)
REMARK    1  A    between atoms: C_2  and  C_3 
REMARK    2  A    between atoms: C_3  and  N_4 
REMARK    3  A    between atoms: C_10  and  S_11 
REMARK    4  A    between atoms: S_11  and  C_12 
REMARK    5  A    between atoms: C_12  and  C_13 
REMARK       I    between atoms: C_13  and  N_14 
REMARK    6  A    between atoms: N_14  and  C_15 
ROOT
HETATM    1  N   UNL     1       7.009  30.930  59.208  1.00  0.00    -0.063 N 
HETATM    2  H   UNL     1       6.677  30.310  59.957  1.00  0.00     0.280 HD
HETATM    3  C   UNL     1       5.855  31.069  58.220  1.00  0.00     0.281 C 
HETATM    4  C   UNL     1       5.737  29.921  57.279  1.00  0.00     0.060 A 
HETATM    5  C   UNL     1       6.623  28.920  57.168  1.00  0.00     0.052 A 
HETATM    6  N   UNL     1       6.511  27.897  56.262  1.00  0.00    -0.228 NA
HETATM    7  C   UNL     1       5.480  27.899  55.486  1.00  0.00     0.169 A 
HETATM    8  N   UNL     1       4.504  28.845  55.524  1.00  0.00    -0.302 N 
HETATM    9  C   UNL     1       4.566  29.901  56.381  1.00  0.00     0.257 A 
HETATM   10  O   UNL     1       3.737  30.799  56.423  1.00  0.00    -0.267 OA
HETATM   11  C   UNL     1       7.857  28.896  58.031  1.00  0.00     0.088 C 
HETATM   12  C   UNL     1       8.218  30.278  58.573  1.00  0.00     0.241 C 
HETATM   13  H   UNL     1       3.725  28.785  54.884  1.00  0.00     0.171 HD
ENDROOT
BRANCH   7  14
HETATM   14  S   UNL     1       5.214  26.687  54.271  1.00  0.00    -0.083 SA
BRANCH  14  15
HETATM   15  C   UNL     1       6.863  26.682  53.501  1.00  0.00     0.185 C 
BRANCH  15  16
HETATM   16  C   UNL     1       7.588  25.350  53.596  1.00  0.00     0.232 C 
HETATM   17  N   UNL     1       7.213  24.553  54.662  1.00  0.00    -0.324 N 
HETATM   18  H   UNL     1       6.858  25.050  55.472  1.00  0.00     0.169 HD
HETATM   19  O   UNL     1       8.410  25.044  52.735  1.00  0.00    -0.272 OA
BRANCH  17  20
HETATM   20  C   UNL     1       7.568  23.197  54.839  1.00  0.00     0.076 A 
HETATM   21  C   UNL     1       7.547  22.238  53.813  1.00  0.00     0.143 A 
HETATM   22  F   UNL     1       7.076  22.535  52.593  1.00  0.00    -0.204 F 
HETATM   23  C   UNL     1       7.910  20.912  54.054  1.00  0.00     0.047 A 
HETATM   24  C   UNL     1       8.289  20.520  55.336  1.00  0.00     0.045 A 
HETATM   25  C   UNL     1       8.277  21.458  56.361  1.00  0.00     0.118 A 
HETATM   26  F   UNL     1       8.623  21.082  57.600  1.00  0.00    -0.206 F 
HETATM   27  C   UNL     1       7.911  22.784  56.130  1.00  0.00     0.074 A 
ENDBRANCH  17  20
ENDBRANCH  15  16
ENDBRANCH  14  15
ENDBRANCH   7  14
BRANCH   1  28
HETATM   28  C   UNL     1       7.377  32.241  59.864  1.00  0.00     0.273 C 
BRANCH  28  29
HETATM   29  C   UNL     1       6.705  32.466  61.190  1.00  0.00    -0.030 A 
HETATM   30  C   UNL     1       5.305  32.297  61.321  1.00  0.00     0.012 A 
HETATM   31  C   UNL     1       4.665  32.524  62.543  1.00  0.00     0.040 A 
HETATM   32  C   UNL     1       5.438  32.919  63.612  1.00  0.00     0.105 A 
HETATM   33  C   UNL     1       6.797  33.079  63.497  1.00  0.00     0.105 A 
HETATM   34  O   UNL     1       4.987  33.197  64.862  1.00  0.00    -0.323 OA
HETATM   35  C   UNL     1       7.461  32.860  62.308  1.00  0.00     0.048 A 
HETATM   36  O   UNL     1       7.374  33.477  64.661  1.00  0.00    -0.323 OA
HETATM   37  C   UNL     1       6.213  33.585  65.519  1.00  0.00     0.352 A 
ENDBRANCH  28  29
ENDBRANCH   1  28
TORSDOF 6
ENDMDL
MODEL 9
REMARK VINA RESULT:      -9.9      1.977      2.792
REMARK  6 active torsions:
REMARK  status: ('A' for Active; 'I' for Inactive)
REMARK    1  A    between atoms: C_2  and  C_3 
REMARK    2  A    between atoms: C_3  and  N_4 
REMARK    3  A    between atoms: C_10  and  S_11 
REMARK    4  A    between atoms: S_11  and  C_12 
REMARK    5  A    between atoms: C_12  and  C_13 
REMARK       I    between atoms: C_13  and  N_14 
REMARK    6  A    between atoms: N_14  and  C_15 
ROOT
HETATM    1  N   UNL     1       7.720  25.483  57.625  1.00  0.00    -0.063 N 
HETATM    2  H   UNL     1       7.650  25.636  58.639  1.00  0.00     0.280 HD
HETATM    3  C   UNL     1       8.272  26.776  57.034  1.00  0.00     0.281 C 
HETATM    4  C   UNL     1       7.240  27.834  56.848  1.00  0.00     0.060 A 
HETATM    5  C   UNL     1       5.921  27.663  57.022  1.00  0.00     0.052 A 
HETATM    6  N   UNL     1       4.989  28.644  56.802  1.00  0.00    -0.228 NA
HETATM    7  C   UNL     1       5.418  29.800  56.422  1.00  0.00     0.169 A 
HETATM    8  N   UNL     1       6.732  30.098  56.239  1.00  0.00    -0.302 N 
HETATM    9  C   UNL     1       7.707  29.165  56.413  1.00  0.00     0.257 A 
HETATM   10  O   UNL     1       8.896  29.371  56.218  1.00  0.00    -0.267 OA
HETATM   11  C   UNL     1       5.374  26.322  57.433  1.00  0.00     0.088 C 
HETATM   12  C   UNL     1       6.331  25.176  57.109  1.00  0.00     0.241 C 
HETATM   13  H   UNL     1       6.996  31.025  55.936  1.00  0.00     0.171 HD
ENDROOT
BRANCH   7  14
HETATM   14  S   UNL     1       4.357  31.132  56.079  1.00  0.00    -0.083 SA
BRANCH  14  15
HETATM   15  C   UNL     1       5.162  32.413  57.091  1.00  0.00     0.185 C 
BRANCH  15  16
HETATM   16  C   UNL     1       5.399  32.004  58.535  1.00  0.00     0.232 C 
HETATM   17  N   UNL     1       6.703  32.132  58.975  1.00  0.00    -0.324 N 
HETATM   18  H   UNL     1       7.413  32.058  58.254  1.00  0.00     0.169 HD
HETATM   19  O   UNL     1       4.450  31.633  59.222  1.00  0.00    -0.272 OA
BRANCH  17  20
HETATM   20  C   UNL     1       7.130  32.036  60.318  1.00  0.00     0.076 A 
HETATM   21  C   UNL     1       6.681  32.877  61.349  1.00  0.00     0.143 A 
HETATM   22  F   UNL     1       5.875  33.919  61.096  1.00  0.00    -0.204 F 
HETATM   23  C   UNL     1       7.143  32.728  62.658  1.00  0.00     0.047 A 
HETATM   24  C   UNL     1       8.078  31.740  62.954  1.00  0.00     0.045 A 
HETATM   25  C   UNL     1       8.551  30.928  61.929  1.00  0.00     0.118 A 
HETATM   26  F   UNL     1       9.464  29.986  62.206  1.00  0.00    -0.206 F 
HETATM   27  C   UNL     1       8.099  31.072  60.619  1.00  0.00     0.074 A 
ENDBRANCH  17  20
ENDBRANCH  15  16
ENDBRANCH  14  15
ENDBRANCH   7  14
BRANCH   1  28
HETATM   28  C   UNL     1       8.649  24.307  57.429  1.00  0.00     0.273 C 
BRANCH  28  29
HETATM   29  C   UNL     1       8.475  23.611  56.108  1.00  0.00    -0.030 A 
HETATM   30  C   UNL     1       8.230  24.358  54.931  1.00  0.00     0.012 A 
HETATM   31  C   UNL     1       8.044  23.720  53.700  1.00  0.00     0.040 A 
HETATM   32  C   UNL     1       8.106  22.345  53.672  1.00  0.00     0.105 A 
HETATM   33  C   UNL     1       8.350  21.612  54.807  1.00  0.00     0.105 A 
HETATM   34  O   UNL     1       7.935  21.562  52.575  1.00  0.00    -0.323 OA
HETATM   35  C   UNL     1       8.541  22.208  56.036  1.00  0.00     0.048 A 
HETATM   36  O   UNL     1       8.365  20.274  54.568  1.00  0.00    -0.323 OA
HETATM   37  C   UNL     1       8.066  20.245  53.152  1.00  0.00     0.352 A 
ENDBRANCH  28  29
ENDBRANCH   1  28
TORSDOF 6
ENDMDL
MODEL 10
REMARK VINA RESULT:      -9.6      6.074      9.304
REMARK  6 active torsions:
REMARK  status: ('A' for Active; 'I' for Inactive)
REMARK    1  A    between atoms: C_2  and  C_3 
REMARK    2  A    between atoms: C_3  and  N_4 
REMARK    3  A    between atoms: C_10  and  S_11 
REMARK    4  A    between atoms: S_11  and  C_12 
REMARK    5  A    between atoms: C_12  and  C_13 
REMARK       I    between atoms: C_13  and  N_14 
REMARK    6  A    between atoms: N_14  and  C_15 
ROOT
HETATM    1  N   UNL     1       6.889  25.456  56.141  1.00  0.00    -0.063 N 
HETATM    2  H   UNL     1       6.107  25.255  56.776  1.00  0.00     0.280 HD
HETATM    3  C   UNL     1       7.093  26.968  56.174  1.00  0.00     0.281 C 
HETATM    4  C   UNL     1       6.139  27.715  55.309  1.00  0.00     0.060 A 
HETATM    5  C   UNL     1       5.275  27.156  54.450  1.00  0.00     0.052 A 
HETATM    6  N   UNL     1       4.438  27.870  53.633  1.00  0.00    -0.228 NA
HETATM    7  C   UNL     1       4.480  29.158  53.716  1.00  0.00     0.169 A 
HETATM    8  N   UNL     1       5.295  29.836  54.567  1.00  0.00    -0.302 N 
HETATM    9  C   UNL     1       6.170  29.189  55.386  1.00  0.00     0.257 A 
HETATM   10  O   UNL     1       6.953  29.755  56.136  1.00  0.00    -0.267 OA
HETATM   11  C   UNL     1       5.215  25.658  54.297  1.00  0.00     0.088 C 
HETATM   12  C   UNL     1       6.498  24.972  54.761  1.00  0.00     0.241 C 
HETATM   13  H   UNL     1       5.279  30.845  54.577  1.00  0.00     0.171 HD
ENDROOT
BRANCH   7  14
HETATM   14  S   UNL     1       3.501  30.198  52.729  1.00  0.00    -0.083 SA
BRANCH  14  15
HETATM   15  C   UNL     1       4.680  30.511  51.378  1.00  0.00     0.185 C 
BRANCH  15  16
HETATM   16  C   UNL     1       4.605  29.503  50.244  1.00  0.00     0.232 C 
HETATM   17  N   UNL     1       3.608  28.554  50.367  1.00  0.00    -0.324 N 
HETATM   18  H   UNL     1       3.327  28.340  51.318  1.00  0.00     0.169 HD
HETATM   19  O   UNL     1       5.379  29.602  49.294  1.00  0.00    -0.272 OA
BRANCH  17  20
HETATM   20  C   UNL     1       3.192  27.662  49.353  1.00  0.00     0.076 A 
HETATM   21  C   UNL     1       3.956  26.574  48.900  1.00  0.00     0.143 A 
HETATM   22  F   UNL     1       5.205  26.369  49.343  1.00  0.00    -0.204 F 
HETATM   23  C   UNL     1       3.487  25.730  47.893  1.00  0.00     0.047 A 
HETATM   24  C   UNL     1       2.246  25.971  47.309  1.00  0.00     0.045 A 
HETATM   25  C   UNL     1       1.502  27.068  47.730  1.00  0.00     0.118 A 
HETATM   26  F   UNL     1       0.315  27.315  47.160  1.00  0.00    -0.206 F 
HETATM   27  C   UNL     1       1.965  27.919  48.732  1.00  0.00     0.074 A 
ENDBRANCH  17  20
ENDBRANCH  15  16
ENDBRANCH  14  15
ENDBRANCH   7  14
BRANCH   1  28
HETATM   28  C   UNL     1       8.082  24.694  56.670  1.00  0.00     0.273 C 
BRANCH  28  29
HETATM   29  C   UNL     1       8.228  23.316  56.087  1.00  0.00    -0.030 A 
HETATM   30  C   UNL     1       8.262  22.180  56.932  1.00  0.00     0.012 A 
HETATM   31  C   UNL     1       8.419  20.895  56.405  1.00  0.00     0.040 A 
HETATM   32  C   UNL     1       8.542  20.770  55.039  1.00  0.00     0.105 A 
HETATM   33  C   UNL     1       8.504  21.864  54.210  1.00  0.00     0.105 A 
HETATM   34  O   UNL     1       8.716  19.609  54.357  1.00  0.00    -0.323 OA
HETATM   35  C   UNL     1       8.346  23.145  54.696  1.00  0.00     0.048 A 
HETATM   36  O   UNL     1       8.648  21.530  52.901  1.00  0.00    -0.323 OA
HETATM   37  C   UNL     1       8.818  20.096  53.001  1.00  0.00     0.352 A 
ENDBRANCH  28  29
ENDBRANCH   1  28
TORSDOF 6
ENDMDL
