MODEL 1
REMARK VINA RESULT:     -10.1      0.000      0.000
REMARK  3 active torsions:
REMARK  status: ('A' for Active; 'I' for Inactive)
REMARK    1  A    between atoms: N_4  and  C_5 
REMARK    2  A    between atoms: C_16  and  C_17 
REMARK       I    between atoms: C_17  and  N_18 
REMARK    3  A    between atoms: N_18  and  C_19 
ROOT
HETATM    1  C   UNL     1       4.098  28.984  54.545  1.00  0.00     0.073 C 
HETATM    2  C   UNL     1       5.243  28.101  54.876  1.00  0.00     0.069 A 
HETATM    3  N   UNL     1       5.322  26.868  54.354  1.00  0.00    -0.170 NA
HETATM    4  N   UNL     1       6.502  26.352  54.818  1.00  0.00    -0.216 N 
HETATM    5  C   UNL     1       7.073  27.217  55.738  1.00  0.00     0.145 A 
HETATM    6  C   UNL     1       6.309  28.361  55.754  1.00  0.00     0.087 A 
HETATM    7  N   UNL     1       8.136  27.041  56.559  1.00  0.00    -0.349 N 
HETATM    8  C   UNL     1       8.446  28.056  57.450  1.00  0.00     0.111 A 
HETATM    9  C   UNL     1       7.799  29.242  57.531  1.00  0.00     0.098 A 
HETATM   10  C   UNL     1       6.639  29.486  56.605  1.00  0.00     0.205 A 
HETATM   11  O   UNL     1       6.024  30.548  56.591  1.00  0.00    -0.286 OA
HETATM   12  H   UNL     1       8.558  26.133  56.750  1.00  0.00     0.167 HD
ENDROOT
BRANCH   9  13
HETATM   13  C   UNL     1       8.255  30.222  58.566  1.00  0.00     0.261 C 
HETATM   14  N   UNL     1       7.341  30.463  59.571  1.00  0.00    -0.323 N 
HETATM   15  H   UNL     1       6.443  29.984  59.502  1.00  0.00     0.169 HD
HETATM   16  O   UNL     1       9.365  30.739  58.468  1.00  0.00    -0.267 OA
BRANCH  14  17
HETATM   17  C   UNL     1       7.493  31.290  60.704  1.00  0.00     0.035 A 
HETATM   18  C   UNL     1       8.302  30.980  61.798  1.00  0.00     0.029 A 
HETATM   19  C   UNL     1       8.381  31.851  62.889  1.00  0.00     0.002 A 
HETATM   20  C   UNL     1       7.655  33.041  62.893  1.00  0.00     0.000 A 
HETATM   21  C   UNL     1       6.848  33.360  61.806  1.00  0.00     0.002 A 
HETATM   22  C   UNL     1       6.765  32.487  60.719  1.00  0.00     0.029 A 
ENDBRANCH  14  17
ENDBRANCH   9  13
BRANCH   4  23
HETATM   23  C   UNL     1       6.965  25.097  54.327  1.00  0.00     0.060 A 
HETATM   24  C   UNL     1       7.033  23.963  55.148  1.00  0.00     0.034 A 
HETATM   25  C   UNL     1       7.496  22.749  54.629  1.00  0.00     0.044 A 
HETATM   26  C   UNL     1       7.896  22.673  53.300  1.00  0.00     0.116 A 
HETATM   27  F   UNL     1       8.338  21.507  52.811  1.00  0.00    -0.206 F 
HETATM   28  C   UNL     1       7.858  23.791  52.478  1.00  0.00     0.044 A 
HETATM   29  C   UNL     1       7.402  25.007  52.992  1.00  0.00     0.034 A 
ENDBRANCH   4  23
TORSDOF 3
ENDMDL
MODEL 2
REMARK VINA RESULT:      -9.5      3.459      8.774
REMARK  3 active torsions:
REMARK  status: ('A' for Active; 'I' for Inactive)
REMARK    1  A    between atoms: N_4  and  C_5 
REMARK    2  A    between atoms: C_16  and  C_17 
REMARK       I    between atoms: C_17  and  N_18 
REMARK    3  A    between atoms: N_18  and  C_19 
ROOT
HETATM    1  C   UNL     1       4.502  30.936  55.142  1.00  0.00     0.073 C 
HETATM    2  C   UNL     1       5.420  30.347  56.148  1.00  0.00     0.069 A 
HETATM    3  N   UNL     1       6.022  31.127  57.057  1.00  0.00    -0.170 NA
HETATM    4  N   UNL     1       6.747  30.276  57.845  1.00  0.00    -0.216 N 
HETATM    5  C   UNL     1       6.700  28.991  57.328  1.00  0.00     0.145 A 
HETATM    6  C   UNL     1       5.819  29.005  56.272  1.00  0.00     0.087 A 
HETATM    7  N   UNL     1       7.394  27.881  57.681  1.00  0.00    -0.349 N 
HETATM    8  C   UNL     1       7.207  26.730  56.931  1.00  0.00     0.111 A 
HETATM    9  C   UNL     1       6.340  26.608  55.900  1.00  0.00     0.098 A 
HETATM   10  C   UNL     1       5.523  27.809  55.510  1.00  0.00     0.205 A 
HETATM   11  O   UNL     1       4.689  27.770  54.610  1.00  0.00    -0.286 OA
HETATM   12  H   UNL     1       8.220  27.898  58.277  1.00  0.00     0.167 HD
ENDROOT
BRANCH   9  13
HETATM   13  C   UNL     1       6.276  25.294  55.187  1.00  0.00     0.261 C 
HETATM   14  N   UNL     1       7.419  24.529  55.290  1.00  0.00    -0.323 N 
HETATM   15  H   UNL     1       8.201  24.934  55.806  1.00  0.00     0.169 HD
HETATM   16  O   UNL     1       5.259  24.983  54.573  1.00  0.00    -0.267 OA
BRANCH  14  17
HETATM   17  C   UNL     1       7.649  23.236  54.774  1.00  0.00     0.035 A 
HETATM   18  C   UNL     1       7.874  22.958  53.425  1.00  0.00     0.029 A 
HETATM   19  C   UNL     1       8.075  21.641  52.998  1.00  0.00     0.002 A 
HETATM   20  C   UNL     1       8.058  20.593  53.916  1.00  0.00     0.000 A 
HETATM   21  C   UNL     1       7.836  20.861  55.263  1.00  0.00     0.002 A 
HETATM   22  C   UNL     1       7.630  22.175  55.689  1.00  0.00     0.029 A 
ENDBRANCH  14  17
ENDBRANCH   9  13
BRANCH   4  23
HETATM   23  C   UNL     1       7.397  30.773  59.012  1.00  0.00     0.060 A 
HETATM   24  C   UNL     1       8.610  30.236  59.467  1.00  0.00     0.034 A 
HETATM   25  C   UNL     1       9.215  30.751  60.617  1.00  0.00     0.044 A 
HETATM   26  C   UNL     1       8.607  31.789  61.314  1.00  0.00     0.116 A 
HETATM   27  F   UNL     1       9.193  32.276  62.415  1.00  0.00    -0.206 F 
HETATM   28  C   UNL     1       7.394  32.317  60.892  1.00  0.00     0.044 A 
HETATM   29  C   UNL     1       6.782  31.804  59.746  1.00  0.00     0.034 A 
ENDBRANCH   4  23
TORSDOF 3
ENDMDL
MODEL 3
REMARK VINA RESULT:      -9.5      3.514      8.886
REMARK  3 active torsions:
REMARK  status: ('A' for Active; 'I' for Inactive)
REMARK    1  A    between atoms: N_4  and  C_5 
REMARK    2  A    between atoms: C_16  and  C_17 
REMARK       I    between atoms: C_17  and  N_18 
REMARK    3  A    between atoms: N_18  and  C_19 
ROOT
HETATM    1  C   UNL     1       4.555  33.080  55.924  1.00  0.00     0.073 C 
HETATM    2  C   UNL     1       5.311  32.260  56.902  1.00  0.00     0.069 A 
HETATM    3  N   UNL     1       5.846  32.827  57.994  1.00  0.00    -0.170 NA
HETATM    4  N   UNL     1       6.422  31.800  58.691  1.00  0.00    -0.216 N 
HETATM    5  C   UNL     1       6.362  30.629  57.954  1.00  0.00     0.145 A 
HETATM    6  C   UNL     1       5.615  30.890  56.829  1.00  0.00     0.087 A 
HETATM    7  N   UNL     1       6.945  29.425  58.176  1.00  0.00    -0.349 N 
HETATM    8  C   UNL     1       6.782  28.436  57.219  1.00  0.00     0.111 A 
HETATM    9  C   UNL     1       6.037  28.558  56.096  1.00  0.00     0.098 A 
HETATM   10  C   UNL     1       5.342  29.867  55.840  1.00  0.00     0.205 A 
HETATM   11  O   UNL     1       4.619  30.046  54.864  1.00  0.00    -0.286 OA
HETATM   12  H   UNL     1       7.694  29.277  58.850  1.00  0.00     0.167 HD
ENDROOT
BRANCH   9  13
HETATM   13  C   UNL     1       5.982  27.392  55.159  1.00  0.00     0.261 C 
HETATM   14  N   UNL     1       7.150  26.664  55.079  1.00  0.00    -0.323 N 
HETATM   15  H   UNL     1       7.941  26.998  55.632  1.00  0.00     0.169 HD
HETATM   16  O   UNL     1       4.949  27.159  54.537  1.00  0.00    -0.267 OA
BRANCH  14  17
HETATM   17  C   UNL     1       7.396  25.494  54.330  1.00  0.00     0.035 A 
HETATM   18  C   UNL     1       7.377  24.204  54.861  1.00  0.00     0.029 A 
HETATM   19  C   UNL     1       7.650  23.099  54.048  1.00  0.00     0.002 A 
HETATM   20  C   UNL     1       7.939  23.275  52.696  1.00  0.00     0.000 A 
HETATM   21  C   UNL     1       7.958  24.558  52.157  1.00  0.00     0.002 A 
HETATM   22  C   UNL     1       7.691  25.661  52.970  1.00  0.00     0.029 A 
ENDBRANCH  14  17
ENDBRANCH   9  13
BRANCH   4  23
HETATM   23  C   UNL     1       6.957  32.041  59.990  1.00  0.00     0.060 A 
HETATM   24  C   UNL     1       8.323  31.882  60.267  1.00  0.00     0.034 A 
HETATM   25  C   UNL     1       8.808  32.127  61.555  1.00  0.00     0.044 A 
HETATM   26  C   UNL     1       7.933  32.518  62.562  1.00  0.00     0.116 A 
HETATM   27  F   UNL     1       8.407  32.750  63.793  1.00  0.00    -0.206 F 
HETATM   28  C   UNL     1       6.575  32.658  62.312  1.00  0.00     0.044 A 
HETATM   29  C   UNL     1       6.083  32.410  61.029  1.00  0.00     0.034 A 
ENDBRANCH   4  23
TORSDOF 3
ENDMDL
MODEL 4
REMARK VINA RESULT:      -9.3      3.633      9.247
REMARK  3 active torsions:
REMARK  status: ('A' for Active; 'I' for Inactive)
REMARK    1  A    between atoms: N_4  and  C_5 
REMARK    2  A    between atoms: C_16  and  C_17 
REMARK       I    between atoms: C_17  and  N_18 
REMARK    3  A    between atoms: N_18  and  C_19 
ROOT
HETATM    1  C   UNL     1      10.608  30.781  57.559  1.00  0.00     0.073 C 
HETATM    2  C   UNL     1       9.178  30.809  57.953  1.00  0.00     0.069 A 
HETATM    3  N   UNL     1       8.755  31.643  58.915  1.00  0.00    -0.170 NA
HETATM    4  N   UNL     1       7.403  31.451  58.994  1.00  0.00    -0.216 N 
HETATM    5  C   UNL     1       7.022  30.397  58.180  1.00  0.00     0.145 A 
HETATM    6  C   UNL     1       8.133  30.004  57.470  1.00  0.00     0.087 A 
HETATM    7  N   UNL     1       5.830  29.760  58.074  1.00  0.00    -0.349 N 
HETATM    8  C   UNL     1       5.747  28.668  57.226  1.00  0.00     0.111 A 
HETATM    9  C   UNL     1       6.755  28.214  56.445  1.00  0.00     0.098 A 
HETATM   10  C   UNL     1       8.079  28.924  56.506  1.00  0.00     0.205 A 
HETATM   11  O   UNL     1       9.031  28.597  55.804  1.00  0.00    -0.286 OA
HETATM   12  H   UNL     1       5.076  29.857  58.753  1.00  0.00     0.167 HD
ENDROOT
BRANCH   9  13
HETATM   13  C   UNL     1       6.498  27.007  55.597  1.00  0.00     0.261 C 
HETATM   14  N   UNL     1       7.550  26.117  55.533  1.00  0.00    -0.323 N 
HETATM   15  H   UNL     1       8.401  26.372  56.035  1.00  0.00     0.169 HD
HETATM   16  O   UNL     1       5.418  26.883  55.026  1.00  0.00    -0.267 OA
BRANCH  14  17
HETATM   17  C   UNL     1       7.598  24.877  54.863  1.00  0.00     0.035 A 
HETATM   18  C   UNL     1       7.780  24.736  53.486  1.00  0.00     0.029 A 
HETATM   19  C   UNL     1       7.797  23.465  52.901  1.00  0.00     0.002 A 
HETATM   20  C   UNL     1       7.637  22.326  53.687  1.00  0.00     0.000 A 
HETATM   21  C   UNL     1       7.457  22.456  55.060  1.00  0.00     0.002 A 
HETATM   22  C   UNL     1       7.434  23.725  55.644  1.00  0.00     0.029 A 
ENDBRANCH  14  17
ENDBRANCH   9  13
BRANCH   4  23
HETATM   23  C   UNL     1       6.616  32.299  59.828  1.00  0.00     0.060 A 
HETATM   24  C   UNL     1       5.422  32.877  59.374  1.00  0.00     0.034 A 
HETATM   25  C   UNL     1       4.680  33.705  60.222  1.00  0.00     0.044 A 
HETATM   26  C   UNL     1       5.133  33.960  61.511  1.00  0.00     0.116 A 
HETATM   27  F   UNL     1       4.416  34.754  62.317  1.00  0.00    -0.206 F 
HETATM   28  C   UNL     1       6.325  33.415  61.969  1.00  0.00     0.044 A 
HETATM   29  C   UNL     1       7.074  32.592  61.126  1.00  0.00     0.034 A 
ENDBRANCH   4  23
TORSDOF 3
ENDMDL
MODEL 5
REMARK VINA RESULT:      -9.3      3.941      9.247
REMARK  3 active torsions:
REMARK  status: ('A' for Active; 'I' for Inactive)
REMARK    1  A    between atoms: N_4  and  C_5 
REMARK    2  A    between atoms: C_16  and  C_17 
REMARK       I    between atoms: C_17  and  N_18 
REMARK    3  A    between atoms: N_18  and  C_19 
ROOT
HETATM    1  C   UNL     1      11.064  29.660  56.999  1.00  0.00     0.073 C 
HETATM    2  C   UNL     1       9.784  29.971  57.683  1.00  0.00     0.069 A 
HETATM    3  N   UNL     1       9.782  30.461  58.931  1.00  0.00    -0.170 NA
HETATM    4  N   UNL     1       8.466  30.676  59.236  1.00  0.00    -0.216 N 
HETATM    5  C   UNL     1       7.655  30.183  58.226  1.00  0.00     0.145 A 
HETATM    6  C   UNL     1       8.478  29.772  57.203  1.00  0.00     0.087 A 
HETATM    7  N   UNL     1       6.309  30.032  58.181  1.00  0.00    -0.349 N 
HETATM    8  C   UNL     1       5.758  29.428  57.062  1.00  0.00     0.111 A 
HETATM    9  C   UNL     1       6.456  29.022  55.976  1.00  0.00     0.098 A 
HETATM   10  C   UNL     1       7.948  29.214  55.976  1.00  0.00     0.205 A 
HETATM   11  O   UNL     1       8.648  28.905  55.016  1.00  0.00    -0.286 OA
HETATM   12  H   UNL     1       5.707  30.088  59.001  1.00  0.00     0.167 HD
ENDROOT
BRANCH   9  13
HETATM   13  C   UNL     1       5.703  28.371  54.858  1.00  0.00     0.261 C 
HETATM   14  N   UNL     1       6.254  28.560  53.609  1.00  0.00    -0.323 N 
HETATM   15  H   UNL     1       7.091  29.141  53.557  1.00  0.00     0.169 HD
HETATM   16  O   UNL     1       4.680  27.737  55.103  1.00  0.00    -0.267 OA
BRANCH  14  17
HETATM   17  C   UNL     1       5.809  28.039  52.376  1.00  0.00     0.035 A 
HETATM   18  C   UNL     1       5.263  28.811  51.349  1.00  0.00     0.029 A 
HETATM   19  C   UNL     1       4.831  28.207  50.163  1.00  0.00     0.002 A 
HETATM   20  C   UNL     1       4.945  26.829  49.992  1.00  0.00     0.000 A 
HETATM   21  C   UNL     1       5.490  26.052  51.009  1.00  0.00     0.002 A 
HETATM   22  C   UNL     1       5.917  26.653  52.196  1.00  0.00     0.029 A 
ENDBRANCH  14  17
ENDBRANCH   9  13
BRANCH   4  23
HETATM   23  C   UNL     1       8.121  31.338  60.450  1.00  0.00     0.060 A 
HETATM   24  C   UNL     1       7.259  32.444  60.468  1.00  0.00     0.034 A 
HETATM   25  C   UNL     1       6.946  33.067  61.680  1.00  0.00     0.044 A 
HETATM   26  C   UNL     1       7.498  32.594  62.865  1.00  0.00     0.116 A 
HETATM   27  F   UNL     1       7.193  33.196  64.021  1.00  0.00    -0.206 F 
HETATM   28  C   UNL     1       8.371  31.514  62.863  1.00  0.00     0.044 A 
HETATM   29  C   UNL     1       8.693  30.891  61.656  1.00  0.00     0.034 A 
ENDBRANCH   4  23
TORSDOF 3
ENDMDL
MODEL 6
REMARK VINA RESULT:      -9.1      4.870      9.588
REMARK  3 active torsions:
REMARK  status: ('A' for Active; 'I' for Inactive)
REMARK    1  A    between atoms: N_4  and  C_5 
REMARK    2  A    between atoms: C_16  and  C_17 
REMARK       I    between atoms: C_17  and  N_18 
REMARK    3  A    between atoms: N_18  and  C_19 
ROOT
HETATM    1  C   UNL     1       6.888  23.977  54.339  1.00  0.00     0.073 C 
HETATM    2  C   UNL     1       6.989  25.452  54.459  1.00  0.00     0.069 A 
HETATM    3  N   UNL     1       7.396  26.014  55.607  1.00  0.00    -0.170 NA
HETATM    4  N   UNL     1       7.421  27.360  55.365  1.00  0.00    -0.216 N 
HETATM    5  C   UNL     1       6.891  27.630  54.113  1.00  0.00     0.145 A 
HETATM    6  C   UNL     1       6.654  26.422  53.499  1.00  0.00     0.087 A 
HETATM    7  N   UNL     1       6.571  28.814  53.536  1.00  0.00    -0.349 N 
HETATM    8  C   UNL     1       5.971  28.789  52.287  1.00  0.00     0.111 A 
HETATM    9  C   UNL     1       5.726  27.671  51.566  1.00  0.00     0.098 A 
HETATM   10  C   UNL     1       6.108  26.342  52.160  1.00  0.00     0.205 A 
HETATM   11  O   UNL     1       5.953  25.285  51.555  1.00  0.00    -0.286 OA
HETATM   12  H   UNL     1       6.498  29.691  54.051  1.00  0.00     0.167 HD
ENDROOT
BRANCH   9  13
HETATM   13  C   UNL     1       5.054  27.824  50.237  1.00  0.00     0.261 C 
HETATM   14  N   UNL     1       3.921  27.054  50.076  1.00  0.00    -0.323 N 
HETATM   15  H   UNL     1       3.667  26.439  50.849  1.00  0.00     0.169 HD
HETATM   16  O   UNL     1       5.528  28.587  49.400  1.00  0.00    -0.267 OA
BRANCH  14  17
HETATM   17  C   UNL     1       3.050  27.013  48.967  1.00  0.00     0.035 A 
HETATM   18  C   UNL     1       1.954  27.862  48.799  1.00  0.00     0.029 A 
HETATM   19  C   UNL     1       1.131  27.740  47.675  1.00  0.00     0.002 A 
HETATM   20  C   UNL     1       1.399  26.773  46.708  1.00  0.00     0.000 A 
HETATM   21  C   UNL     1       2.490  25.925  46.865  1.00  0.00     0.002 A 
HETATM   22  C   UNL     1       3.309  26.042  47.990  1.00  0.00     0.029 A 
ENDBRANCH  14  17
ENDBRANCH   9  13
BRANCH   4  23
HETATM   23  C   UNL     1       7.956  28.245  56.346  1.00  0.00     0.060 A 
HETATM   24  C   UNL     1       7.306  28.474  57.567  1.00  0.00     0.034 A 
HETATM   25  C   UNL     1       7.864  29.351  58.502  1.00  0.00     0.044 A 
HETATM   26  C   UNL     1       9.058  30.002  58.215  1.00  0.00     0.116 A 
HETATM   27  F   UNL     1       9.584  30.841  59.116  1.00  0.00    -0.206 F 
HETATM   28  C   UNL     1       9.703  29.806  57.002  1.00  0.00     0.044 A 
HETATM   29  C   UNL     1       9.149  28.935  56.061  1.00  0.00     0.034 A 
ENDBRANCH   4  23
TORSDOF 3
ENDMDL
MODEL 7
REMARK VINA RESULT:      -9.1      2.369      3.620
REMARK  3 active torsions:
REMARK  status: ('A' for Active; 'I' for Inactive)
REMARK    1  A    between atoms: N_4  and  C_5 
REMARK    2  A    between atoms: C_16  and  C_17 
REMARK       I    between atoms: C_17  and  N_18 
REMARK    3  A    between atoms: N_18  and  C_19 
ROOT
HETATM    1  C   UNL     1      10.804  29.616  56.633  1.00  0.00     0.073 C 
HETATM    2  C   UNL     1       9.356  29.370  56.421  1.00  0.00     0.069 A 
HETATM    3  N   UNL     1       8.934  28.681  55.350  1.00  0.00    -0.170 NA
HETATM    4  N   UNL     1       7.575  28.598  55.483  1.00  0.00    -0.216 N 
HETATM    5  C   UNL     1       7.154  29.359  56.562  1.00  0.00     0.145 A 
HETATM    6  C   UNL     1       8.280  29.822  57.203  1.00  0.00     0.087 A 
HETATM    7  N   UNL     1       5.902  29.697  56.958  1.00  0.00    -0.349 N 
HETATM    8  C   UNL     1       5.769  30.550  58.042  1.00  0.00     0.111 A 
HETATM    9  C   UNL     1       6.795  31.035  58.778  1.00  0.00     0.098 A 
HETATM   10  C   UNL     1       8.196  30.645  58.391  1.00  0.00     0.205 A 
HETATM   11  O   UNL     1       9.178  31.014  59.029  1.00  0.00    -0.286 OA
HETATM   12  H   UNL     1       5.075  29.585  56.372  1.00  0.00     0.167 HD
ENDROOT
BRANCH   9  13
HETATM   13  C   UNL     1       6.473  31.961  59.909  1.00  0.00     0.261 C 
HETATM   14  N   UNL     1       6.887  31.518  61.148  1.00  0.00    -0.323 N 
HETATM   15  H   UNL     1       7.339  30.604  61.184  1.00  0.00     0.169 HD
HETATM   16  O   UNL     1       5.882  33.013  59.684  1.00  0.00    -0.267 OA
BRANCH  14  17
HETATM   17  C   UNL     1       6.775  32.180  62.388  1.00  0.00     0.035 A 
HETATM   18  C   UNL     1       7.860  32.673  63.115  1.00  0.00     0.029 A 
HETATM   19  C   UNL     1       7.659  33.302  64.349  1.00  0.00     0.002 A 
HETATM   20  C   UNL     1       6.371  33.448  64.862  1.00  0.00     0.000 A 
HETATM   21  C   UNL     1       5.284  32.962  64.144  1.00  0.00     0.002 A 
HETATM   22  C   UNL     1       5.485  32.329  62.915  1.00  0.00     0.029 A 
ENDBRANCH  14  17
ENDBRANCH   9  13
BRANCH   4  23
HETATM   23  C   UNL     1       6.824  27.794  54.577  1.00  0.00     0.060 A 
HETATM   24  C   UNL     1       6.528  28.227  53.277  1.00  0.00     0.034 A 
HETATM   25  C   UNL     1       5.787  27.408  52.419  1.00  0.00     0.044 A 
HETATM   26  C   UNL     1       5.336  26.170  52.861  1.00  0.00     0.116 A 
HETATM   27  F   UNL     1       4.627  25.393  52.033  1.00  0.00    -0.206 F 
HETATM   28  C   UNL     1       5.600  25.735  54.153  1.00  0.00     0.044 A 
HETATM   29  C   UNL     1       6.335  26.549  55.017  1.00  0.00     0.034 A 
ENDBRANCH   4  23
TORSDOF 3
ENDMDL
MODEL 8
REMARK VINA RESULT:      -9.1      4.743      8.398
REMARK  3 active torsions:
REMARK  status: ('A' for Active; 'I' for Inactive)
REMARK    1  A    between atoms: N_4  and  C_5 
REMARK    2  A    between atoms: C_16  and  C_17 
REMARK       I    between atoms: C_17  and  N_18 
REMARK    3  A    between atoms: N_18  and  C_19 
ROOT
HETATM    1  C   UNL     1       5.127  27.134  56.311  1.00  0.00     0.073 C 
HETATM    2  C   UNL     1       5.587  26.219  55.237  1.00  0.00     0.069 A 
HETATM    3  N   UNL     1       6.356  25.160  55.530  1.00  0.00    -0.170 NA
HETATM    4  N   UNL     1       6.556  24.515  54.340  1.00  0.00    -0.216 N 
HETATM    5  C   UNL     1       6.027  25.261  53.299  1.00  0.00     0.145 A 
HETATM    6  C   UNL     1       5.362  26.329  53.855  1.00  0.00     0.087 A 
HETATM    7  N   UNL     1       6.139  25.092  51.959  1.00  0.00    -0.349 N 
HETATM    8  C   UNL     1       5.568  26.047  51.132  1.00  0.00     0.111 A 
HETATM    9  C   UNL     1       4.855  27.115  51.557  1.00  0.00     0.098 A 
HETATM   10  C   UNL     1       4.675  27.308  53.038  1.00  0.00     0.205 A 
HETATM   11  O   UNL     1       4.012  28.231  53.502  1.00  0.00    -0.286 OA
HETATM   12  H   UNL     1       6.820  24.472  51.522  1.00  0.00     0.167 HD
ENDROOT
BRANCH   9  13
HETATM   13  C   UNL     1       4.321  28.060  50.526  1.00  0.00     0.261 C 
HETATM   14  N   UNL     1       2.953  28.009  50.355  1.00  0.00    -0.323 N 
HETATM   15  H   UNL     1       2.443  27.324  50.914  1.00  0.00     0.169 HD
HETATM   16  O   UNL     1       5.093  28.791  49.913  1.00  0.00    -0.267 OA
BRANCH  14  17
HETATM   17  C   UNL     1       2.155  28.801  49.503  1.00  0.00     0.035 A 
HETATM   18  C   UNL     1       1.675  30.069  49.832  1.00  0.00     0.029 A 
HETATM   19  C   UNL     1       0.873  30.778  48.932  1.00  0.00     0.002 A 
HETATM   20  C   UNL     1       0.548  30.228  47.694  1.00  0.00     0.000 A 
HETATM   21  C   UNL     1       1.024  28.965  47.356  1.00  0.00     0.002 A 
HETATM   22  C   UNL     1       1.820  28.254  48.256  1.00  0.00     0.029 A 
ENDBRANCH  14  17
ENDBRANCH   9  13
BRANCH   4  23
HETATM   23  C   UNL     1       7.217  23.253  54.323  1.00  0.00     0.060 A 
HETATM   24  C   UNL     1       7.663  22.670  53.128  1.00  0.00     0.034 A 
HETATM   25  C   UNL     1       8.307  21.429  53.153  1.00  0.00     0.044 A 
HETATM   26  C   UNL     1       8.496  20.771  54.363  1.00  0.00     0.116 A 
HETATM   27  F   UNL     1       9.113  19.583  54.378  1.00  0.00    -0.206 F 
HETATM   28  C   UNL     1       8.041  21.323  55.553  1.00  0.00     0.044 A 
HETATM   29  C   UNL     1       7.392  22.559  55.535  1.00  0.00     0.034 A 
ENDBRANCH   4  23
TORSDOF 3
ENDMDL
MODEL 9
REMARK VINA RESULT:      -9.0      4.369      9.150
REMARK  3 active torsions:
REMARK  status: ('A' for Active; 'I' for Inactive)
REMARK    1  A    between atoms: N_4  and  C_5 
REMARK    2  A    between atoms: C_16  and  C_17 
REMARK       I    between atoms: C_17  and  N_18 
REMARK    3  A    between atoms: N_18  and  C_19 
ROOT
HETATM    1  C   UNL     1       7.915  24.082  56.881  1.00  0.00     0.073 C 
HETATM    2  C   UNL     1       7.910  25.521  56.523  1.00  0.00     0.069 A 
HETATM    3  N   UNL     1       8.397  26.435  57.376  1.00  0.00    -0.170 NA
HETATM    4  N   UNL     1       8.287  27.634  56.726  1.00  0.00    -0.216 N 
HETATM    5  C   UNL     1       7.601  27.470  55.534  1.00  0.00     0.145 A 
HETATM    6  C   UNL     1       7.393  26.121  55.362  1.00  0.00     0.087 A 
HETATM    7  N   UNL     1       7.124  28.395  54.665  1.00  0.00    -0.349 N 
HETATM    8  C   UNL     1       6.392  27.949  53.576  1.00  0.00     0.111 A 
HETATM    9  C   UNL     1       6.158  26.651  53.277  1.00  0.00     0.098 A 
HETATM   10  C   UNL     1       6.710  25.597  54.198  1.00  0.00     0.205 A 
HETATM   11  O   UNL     1       6.572  24.397  53.977  1.00  0.00    -0.286 OA
HETATM   12  H   UNL     1       7.040  29.386  54.886  1.00  0.00     0.167 HD
ENDROOT
BRANCH   9  13
HETATM   13  C   UNL     1       5.332  26.346  52.066  1.00  0.00     0.261 C 
HETATM   14  N   UNL     1       5.165  27.408  51.203  1.00  0.00    -0.323 N 
HETATM   15  H   UNL     1       5.586  28.296  51.477  1.00  0.00     0.169 HD
HETATM   16  O   UNL     1       4.864  25.220  51.917  1.00  0.00    -0.267 OA
BRANCH  14  17
HETATM   17  C   UNL     1       4.487  27.424  49.966  1.00  0.00     0.035 A 
HETATM   18  C   UNL     1       4.856  26.657  48.859  1.00  0.00     0.029 A 
HETATM   19  C   UNL     1       4.136  26.748  47.664  1.00  0.00     0.002 A 
HETATM   20  C   UNL     1       3.038  27.601  47.566  1.00  0.00     0.000 A 
HETATM   21  C   UNL     1       2.661  28.368  48.664  1.00  0.00     0.002 A 
HETATM   22  C   UNL     1       3.383  28.281  49.857  1.00  0.00     0.029 A 
ENDBRANCH  14  17
ENDBRANCH   9  13
BRANCH   4  23
HETATM   23  C   UNL     1       8.857  28.806  57.304  1.00  0.00     0.060 A 
HETATM   24  C   UNL     1      10.104  29.298  56.895  1.00  0.00     0.034 A 
HETATM   25  C   UNL     1      10.629  30.451  57.489  1.00  0.00     0.044 A 
HETATM   26  C   UNL     1       9.917  31.100  58.490  1.00  0.00     0.116 A 
HETATM   27  F   UNL     1      10.428  32.202  59.053  1.00  0.00    -0.206 F 
HETATM   28  C   UNL     1       8.692  30.613  58.924  1.00  0.00     0.044 A 
HETATM   29  C   UNL     1       8.164  29.460  58.340  1.00  0.00     0.034 A 
ENDBRANCH   4  23
TORSDOF 3
ENDMDL
MODEL 10
REMARK VINA RESULT:      -9.0      2.585      3.471
REMARK  3 active torsions:
REMARK  status: ('A' for Active; 'I' for Inactive)
REMARK    1  A    between atoms: N_4  and  C_5 
REMARK    2  A    between atoms: C_16  and  C_17 
REMARK       I    between atoms: C_17  and  N_18 
REMARK    3  A    between atoms: N_18  and  C_19 
ROOT
HETATM    1  C   UNL     1       7.466  24.075  56.258  1.00  0.00     0.073 C 
HETATM    2  C   UNL     1       7.178  25.297  55.467  1.00  0.00     0.069 A 
HETATM    3  N   UNL     1       6.739  25.200  54.203  1.00  0.00    -0.170 NA
HETATM    4  N   UNL     1       6.531  26.487  53.790  1.00  0.00    -0.216 N 
HETATM    5  C   UNL     1       6.977  27.376  54.754  1.00  0.00     0.145 A 
HETATM    6  C   UNL     1       7.350  26.636  55.853  1.00  0.00     0.087 A 
HETATM    7  N   UNL     1       7.120  28.723  54.703  1.00  0.00    -0.349 N 
HETATM    8  C   UNL     1       7.675  29.362  55.800  1.00  0.00     0.111 A 
HETATM    9  C   UNL     1       8.040  28.752  56.951  1.00  0.00     0.098 A 
HETATM   10  C   UNL     1       7.855  27.263  57.057  1.00  0.00     0.205 A 
HETATM   11  O   UNL     1       8.128  26.641  58.080  1.00  0.00    -0.286 OA
HETATM   12  H   UNL     1       7.095  29.260  53.837  1.00  0.00     0.167 HD
ENDROOT
BRANCH   9  13
HETATM   13  C   UNL     1       8.641  29.594  58.033  1.00  0.00     0.261 C 
HETATM   14  N   UNL     1       7.739  30.055  58.969  1.00  0.00    -0.323 N 
HETATM   15  H   UNL     1       6.758  29.811  58.824  1.00  0.00     0.169 HD
HETATM   16  O   UNL     1       9.848  29.821  58.028  1.00  0.00    -0.267 OA
BRANCH  14  17
HETATM   17  C   UNL     1       8.001  30.823  60.123  1.00  0.00     0.035 A 
HETATM   18  C   UNL     1       8.965  30.498  61.079  1.00  0.00     0.029 A 
HETATM   19  C   UNL     1       9.146  31.308  62.205  1.00  0.00     0.002 A 
HETATM   20  C   UNL     1       8.369  32.451  62.381  1.00  0.00     0.000 A 
HETATM   21  C   UNL     1       7.407  32.784  61.433  1.00  0.00     0.002 A 
HETATM   22  C   UNL     1       7.222  31.972  60.312  1.00  0.00     0.029 A 
ENDBRANCH  14  17
ENDBRANCH   9  13
BRANCH   4  23
HETATM   23  C   UNL     1       5.917  26.734  52.527  1.00  0.00     0.060 A 
HETATM   24  C   UNL     1       5.556  25.688  51.666  1.00  0.00     0.034 A 
HETATM   25  C   UNL     1       4.958  25.972  50.434  1.00  0.00     0.044 A 
HETATM   26  C   UNL     1       4.730  27.292  50.063  1.00  0.00     0.116 A 
HETATM   27  F   UNL     1       4.157  27.555  48.881  1.00  0.00    -0.206 F 
HETATM   28  C   UNL     1       5.103  28.341  50.893  1.00  0.00     0.044 A 
HETATM   29  C   UNL     1       5.706  28.065  52.122  1.00  0.00     0.034 A 
ENDBRANCH   4  23
TORSDOF 3
ENDMDL
