MODEL 1
REMARK VINA RESULT:     -12.2      0.000      0.000
REMARK  8 active torsions:
REMARK  status: ('A' for Active; 'I' for Inactive)
REMARK    1  A    between atoms: C_6  and  N_7 
REMARK       I    between atoms: N_7  and  C_8 
REMARK    2  A    between atoms: C_8  and  C_9 
REMARK    3  A    between atoms: C_9  and  N_10 
REMARK    4  A    between atoms: N_14  and  C_15 
REMARK    5  A    between atoms: C_17  and  N_18 
REMARK    6  A    between atoms: N_18  and  C_19 
REMARK    7  A    between atoms: C_26  and  N_27 
REMARK    8  A    between atoms: N_27  and  C_28 
ROOT
HETATM    1  C   UNL     1       6.301  26.621  55.122  1.00  0.00     0.756 A 
HETATM    2  N   UNL     1       7.192  25.665  54.930  1.00  0.00     0.131 NA
HETATM    3  C   UNL     1       7.180  25.090  53.729  1.00  0.00     0.758 A 
HETATM    4  N   UNL     1       6.354  25.439  52.749  1.00  0.00     0.131 NA
HETATM    5  C   UNL     1       5.484  26.399  53.030  1.00  0.00     0.758 A 
HETATM    6  N   UNL     1       5.404  26.976  54.220  1.00  0.00     0.131 NA
ENDROOT
BRANCH   1   7
HETATM    7  N   UNL     1       6.293  27.329  56.320  1.00  0.00    -0.210 N 
HETATM    8  C   UNL     1       5.969  28.758  56.234  1.00  0.00     0.169 C 
HETATM    9  C   UNL     1       7.226  29.640  56.107  1.00  0.00     0.256 C 
HETATM   10  N   UNL     1       8.206  29.270  57.230  1.00  0.00    -0.060 N 
HETATM   11  H   UNL     1       7.667  29.309  58.103  1.00  0.00     0.280 HD
HETATM   12  C   UNL     1       8.625  27.808  57.067  1.00  0.00     0.256 C 
HETATM   13  C   UNL     1       7.369  26.916  57.233  1.00  0.00     0.169 C 
BRANCH  10  14
HETATM   14  C   UNL     1       9.363  30.242  57.407  1.00  0.00     0.337 C 
BRANCH  14  15
HETATM   15  C   UNL     1       9.317  31.166  58.631  1.00  0.00     0.248 C 
HETATM   16  N   UNL     1       8.352  30.771  59.547  1.00  0.00    -0.325 N 
HETATM   17  H   UNL     1       7.664  30.105  59.220  1.00  0.00     0.169 HD
HETATM   18  O   UNL     1      10.042  32.151  58.694  1.00  0.00    -0.271 OA
BRANCH  16  19
HETATM   19  C   UNL     1       7.972  31.451  60.735  1.00  0.00     0.046 A 
HETATM   20  C   UNL     1       6.857  32.324  60.638  1.00  0.00    -0.034 A 
HETATM   21  C   UNL     1       6.460  33.080  61.755  1.00  0.00     0.015 A 
HETATM   22  C   UNL     1       6.075  32.519  59.363  1.00  0.00     0.050 C 
HETATM   23  C   UNL     1       7.127  32.971  62.973  1.00  0.00    -0.061 A 
HETATM   24  C   UNL     1       6.732  33.820  64.144  1.00  0.00     0.048 C 
HETATM   25  C   UNL     1       8.195  32.077  63.073  1.00  0.00     0.015 A 
HETATM   26  C   UNL     1       8.604  31.281  61.983  1.00  0.00    -0.034 A 
HETATM   27  C   UNL     1       9.661  30.253  62.283  1.00  0.00     0.050 C 
ENDBRANCH  16  19
ENDBRANCH  14  15
ENDBRANCH  10  14
ENDBRANCH   1   7
BRANCH   3  28
HETATM   28  N   UNL     1       8.107  24.103  53.406  1.00  0.00    -0.187 N 
HETATM   29  H   UNL     1       8.547  24.312  52.519  1.00  0.00     0.184 HD
BRANCH  28  30
HETATM   30  C   UNL     1       8.287  22.794  53.869  1.00  0.00     0.049 A 
HETATM   31  C   UNL     1       8.875  22.488  55.101  1.00  0.00     0.030 A 
HETATM   32  C   UNL     1       9.057  21.161  55.505  1.00  0.00     0.002 A 
HETATM   33  C   UNL     1       8.673  20.118  54.666  1.00  0.00     0.000 A 
HETATM   34  C   UNL     1       8.107  20.402  53.427  1.00  0.00     0.002 A 
HETATM   35  C   UNL     1       7.919  21.729  53.034  1.00  0.00     0.030 A 
ENDBRANCH  28  30
ENDBRANCH   3  28
BRANCH   5  36
HETATM   36  N   UNL     1       4.614  26.758  52.002  1.00  0.00    -0.187 N 
HETATM   37  H   UNL     1       3.689  26.390  52.185  1.00  0.00     0.184 HD
BRANCH  36  38
HETATM   38  C   UNL     1       4.843  27.174  50.682  1.00  0.00     0.049 A 
HETATM   39  C   UNL     1       5.336  28.439  50.338  1.00  0.00     0.030 A 
HETATM   40  C   UNL     1       5.511  28.812  49.001  1.00  0.00     0.002 A 
HETATM   41  C   UNL     1       5.172  27.931  47.980  1.00  0.00     0.000 A 
HETATM   42  C   UNL     1       4.657  26.678  48.297  1.00  0.00     0.002 A 
HETATM   43  C   UNL     1       4.489  26.308  49.635  1.00  0.00     0.030 A 
ENDBRANCH  36  38
ENDBRANCH   5  36
TORSDOF 8
ENDMDL
MODEL 2
REMARK VINA RESULT:     -12.0      0.437      5.268
REMARK  8 active torsions:
REMARK  status: ('A' for Active; 'I' for Inactive)
REMARK    1  A    between atoms: C_6  and  N_7 
REMARK       I    between atoms: N_7  and  C_8 
REMARK    2  A    between atoms: C_8  and  C_9 
REMARK    3  A    between atoms: C_9  and  N_10 
REMARK    4  A    between atoms: N_14  and  C_15 
REMARK    5  A    between atoms: C_17  and  N_18 
REMARK    6  A    between atoms: N_18  and  C_19 
REMARK    7  A    between atoms: C_26  and  N_27 
REMARK    8  A    between atoms: N_27  and  C_28 
ROOT
HETATM    1  C   UNL     1       6.054  26.936  54.779  1.00  0.00     0.756 A 
HETATM    2  N   UNL     1       5.213  27.274  53.818  1.00  0.00     0.131 NA
HETATM    3  C   UNL     1       5.295  26.563  52.696  1.00  0.00     0.758 A 
HETATM    4  N   UNL     1       6.141  25.555  52.518  1.00  0.00     0.131 NA
HETATM    5  C   UNL     1       6.959  25.291  53.527  1.00  0.00     0.758 A 
HETATM    6  N   UNL     1       6.969  25.991  54.651  1.00  0.00     0.131 NA
ENDROOT
BRANCH   1   7
HETATM    7  N   UNL     1       5.987  27.574  56.014  1.00  0.00    -0.210 N 
HETATM    8  C   UNL     1       5.907  29.040  55.989  1.00  0.00     0.169 C 
HETATM    9  C   UNL     1       7.293  29.707  56.092  1.00  0.00     0.256 C 
HETATM   10  N   UNL     1       8.033  29.125  57.305  1.00  0.00    -0.060 N 
HETATM   11  H   UNL     1       7.389  29.209  58.100  1.00  0.00     0.280 HD
HETATM   12  C   UNL     1       8.236  27.623  57.093  1.00  0.00     0.256 C 
HETATM   13  C   UNL     1       6.844  26.944  57.029  1.00  0.00     0.169 C 
BRANCH  10  14
HETATM   14  C   UNL     1       9.292  29.882  57.702  1.00  0.00     0.337 C 
BRANCH  14  15
HETATM   15  C   UNL     1       9.142  30.973  58.769  1.00  0.00     0.248 C 
HETATM   16  N   UNL     1       8.275  30.594  59.785  1.00  0.00    -0.325 N 
HETATM   17  H   UNL     1       7.687  29.792  59.601  1.00  0.00     0.169 HD
HETATM   18  O   UNL     1       9.711  32.050  58.642  1.00  0.00    -0.271 OA
BRANCH  16  19
HETATM   19  C   UNL     1       7.831  31.394  60.872  1.00  0.00     0.046 A 
HETATM   20  C   UNL     1       8.579  31.303  62.075  1.00  0.00    -0.034 A 
HETATM   21  C   UNL     1       8.165  32.016  63.214  1.00  0.00     0.015 A 
HETATM   22  C   UNL     1       9.805  30.434  62.216  1.00  0.00     0.050 C 
HETATM   23  C   UNL     1       7.041  32.837  63.180  1.00  0.00    -0.061 A 
HETATM   24  C   UNL     1       6.574  33.552  64.413  1.00  0.00     0.048 C 
HETATM   25  C   UNL     1       6.336  32.957  61.981  1.00  0.00     0.015 A 
HETATM   26  C   UNL     1       6.737  32.280  60.811  1.00  0.00    -0.034 A 
HETATM   27  C   UNL     1       5.978  32.629  59.559  1.00  0.00     0.050 C 
ENDBRANCH  16  19
ENDBRANCH  14  15
ENDBRANCH  10  14
ENDBRANCH   1   7
BRANCH   3  28
HETATM   28  N   UNL     1       4.423  26.806  51.638  1.00  0.00    -0.187 N 
HETATM   29  H   UNL     1       3.501  26.452  51.855  1.00  0.00     0.184 HD
BRANCH  28  30
HETATM   30  C   UNL     1       4.644  27.112  50.289  1.00  0.00     0.049 A 
HETATM   31  C   UNL     1       4.322  26.245  49.240  1.00  0.00     0.030 A 
HETATM   32  C   UNL     1       4.590  26.588  47.910  1.00  0.00     0.002 A 
HETATM   33  C   UNL     1       5.209  27.800  47.614  1.00  0.00     0.000 A 
HETATM   34  C   UNL     1       5.557  28.667  48.646  1.00  0.00     0.002 A 
HETATM   35  C   UNL     1       5.278  28.323  49.971  1.00  0.00     0.030 A 
ENDBRANCH  28  30
ENDBRANCH   3  28
BRANCH   5  36
HETATM   36  N   UNL     1       7.851  24.237  53.334  1.00  0.00    -0.187 N 
HETATM   37  H   UNL     1       8.380  24.381  52.485  1.00  0.00     0.184 HD
BRANCH  36  38
HETATM   38  C   UNL     1       7.886  22.932  53.849  1.00  0.00     0.049 A 
HETATM   39  C   UNL     1       7.883  22.634  55.217  1.00  0.00     0.030 A 
HETATM   40  C   UNL     1       7.956  21.313  55.673  1.00  0.00     0.002 A 
HETATM   41  C   UNL     1       8.058  20.265  54.764  1.00  0.00     0.000 A 
HETATM   42  C   UNL     1       8.089  20.539  53.401  1.00  0.00     0.002 A 
HETATM   43  C   UNL     1       8.010  21.860  52.950  1.00  0.00     0.030 A 
ENDBRANCH  36  38
ENDBRANCH   5  36
TORSDOF 8
ENDMDL
MODEL 3
REMARK VINA RESULT:     -12.0      0.355      5.131
REMARK  8 active torsions:
REMARK  status: ('A' for Active; 'I' for Inactive)
REMARK    1  A    between atoms: C_6  and  N_7 
REMARK       I    between atoms: N_7  and  C_8 
REMARK    2  A    between atoms: C_8  and  C_9 
REMARK    3  A    between atoms: C_9  and  N_10 
REMARK    4  A    between atoms: N_14  and  C_15 
REMARK    5  A    between atoms: C_17  and  N_18 
REMARK    6  A    between atoms: N_18  and  C_19 
REMARK    7  A    between atoms: C_26  and  N_27 
REMARK    8  A    between atoms: N_27  and  C_28 
ROOT
HETATM    1  C   UNL     1       6.305  26.763  54.906  1.00  0.00     0.756 A 
HETATM    2  N   UNL     1       5.446  27.150  53.980  1.00  0.00     0.131 NA
HETATM    3  C   UNL     1       5.449  26.443  52.852  1.00  0.00     0.758 A 
HETATM    4  N   UNL     1       6.235  25.394  52.637  1.00  0.00     0.131 NA
HETATM    5  C   UNL     1       7.075  25.081  53.614  1.00  0.00     0.758 A 
HETATM    6  N   UNL     1       7.164  25.774  54.740  1.00  0.00     0.131 NA
ENDROOT
BRANCH   1   7
HETATM    7  N   UNL     1       6.318  27.397  56.145  1.00  0.00    -0.210 N 
HETATM    8  C   UNL     1       6.062  28.843  56.143  1.00  0.00     0.169 C 
HETATM    9  C   UNL     1       7.360  29.671  56.077  1.00  0.00     0.256 C 
HETATM   10  N   UNL     1       8.311  29.188  57.182  1.00  0.00    -0.060 N 
HETATM   11  H   UNL     1       7.767  29.200  58.053  1.00  0.00     0.280 HD
HETATM   12  C   UNL     1       8.662  27.721  56.934  1.00  0.00     0.256 C 
HETATM   13  C   UNL     1       7.365  26.880  57.039  1.00  0.00     0.169 C 
BRANCH  10  14
HETATM   14  C   UNL     1       9.510  30.093  57.425  1.00  0.00     0.337 C 
BRANCH  14  15
HETATM   15  C   UNL     1       9.441  31.032  58.635  1.00  0.00     0.248 C 
HETATM   16  N   UNL     1       8.426  30.680  59.514  1.00  0.00    -0.325 N 
HETATM   17  H   UNL     1       7.732  30.032  59.165  1.00  0.00     0.169 HD
HETATM   18  O   UNL     1      10.195  31.995  58.719  1.00  0.00    -0.271 OA
BRANCH  16  19
HETATM   19  C   UNL     1       8.018  31.386  60.677  1.00  0.00     0.046 A 
HETATM   20  C   UNL     1       6.915  32.269  60.530  1.00  0.00    -0.034 A 
HETATM   21  C   UNL     1       6.492  33.050  61.619  1.00  0.00     0.015 A 
HETATM   22  C   UNL     1       6.174  32.447  59.228  1.00  0.00     0.050 C 
HETATM   23  C   UNL     1       7.121  32.957  62.859  1.00  0.00    -0.061 A 
HETATM   24  C   UNL     1       6.700  33.833  64.001  1.00  0.00     0.048 C 
HETATM   25  C   UNL     1       8.176  32.055  63.008  1.00  0.00     0.015 A 
HETATM   26  C   UNL     1       8.610  31.234  61.946  1.00  0.00    -0.034 A 
HETATM   27  C   UNL     1       9.647  30.202  62.297  1.00  0.00     0.050 C 
ENDBRANCH  16  19
ENDBRANCH  14  15
ENDBRANCH  10  14
ENDBRANCH   1   7
BRANCH   3  28
HETATM   28  N   UNL     1       4.552  26.737  51.829  1.00  0.00    -0.187 N 
HETATM   29  H   UNL     1       3.642  26.346  52.037  1.00  0.00     0.184 HD
BRANCH  28  30
HETATM   30  C   UNL     1       4.739  27.142  50.501  1.00  0.00     0.049 A 
HETATM   31  C   UNL     1       4.448  26.329  49.400  1.00  0.00     0.030 A 
HETATM   32  C   UNL     1       4.681  26.772  48.094  1.00  0.00     0.002 A 
HETATM   33  C   UNL     1       5.233  28.030  47.872  1.00  0.00     0.000 A 
HETATM   34  C   UNL     1       5.551  28.846  48.956  1.00  0.00     0.002 A 
HETATM   35  C   UNL     1       5.307  28.401  50.257  1.00  0.00     0.030 A 
ENDBRANCH  28  30
ENDBRANCH   3  28
BRANCH   5  36
HETATM   36  N   UNL     1       7.903  23.985  53.383  1.00  0.00    -0.187 N 
HETATM   37  H   UNL     1       8.339  24.063  52.473  1.00  0.00     0.184 HD
BRANCH  36  38
HETATM   38  C   UNL     1       7.952  22.708  53.962  1.00  0.00     0.049 A 
HETATM   39  C   UNL     1       7.725  22.460  55.321  1.00  0.00     0.030 A 
HETATM   40  C   UNL     1       7.822  21.168  55.851  1.00  0.00     0.002 A 
HETATM   41  C   UNL     1       8.172  20.101  55.030  1.00  0.00     0.000 A 
HETATM   42  C   UNL     1       8.428  20.328  53.682  1.00  0.00     0.002 A 
HETATM   43  C   UNL     1       8.323  21.619  53.156  1.00  0.00     0.030 A 
ENDBRANCH  36  38
ENDBRANCH   5  36
TORSDOF 8
ENDMDL
MODEL 4
REMARK VINA RESULT:     -11.2      3.080     10.321
REMARK  8 active torsions:
REMARK  status: ('A' for Active; 'I' for Inactive)
REMARK    1  A    between atoms: C_6  and  N_7 
REMARK       I    between atoms: N_7  and  C_8 
REMARK    2  A    between atoms: C_8  and  C_9 
REMARK    3  A    between atoms: C_9  and  N_10 
REMARK    4  A    between atoms: N_14  and  C_15 
REMARK    5  A    between atoms: C_17  and  N_18 
REMARK    6  A    between atoms: N_18  and  C_19 
REMARK    7  A    between atoms: C_26  and  N_27 
REMARK    8  A    between atoms: N_27  and  C_28 
ROOT
HETATM    1  C   UNL     1       5.780  26.484  55.126  1.00  0.00     0.756 A 
HETATM    2  N   UNL     1       6.068  27.438  55.994  1.00  0.00     0.131 NA
HETATM    3  C   UNL     1       7.039  27.162  56.862  1.00  0.00     0.758 A 
HETATM    4  N   UNL     1       7.716  26.020  56.877  1.00  0.00     0.131 NA
HETATM    5  C   UNL     1       7.355  25.112  55.981  1.00  0.00     0.758 A 
HETATM    6  N   UNL     1       6.362  25.298  55.124  1.00  0.00     0.131 NA
ENDROOT
BRANCH   1   7
HETATM    7  N   UNL     1       4.832  26.714  54.135  1.00  0.00    -0.210 N 
HETATM    8  C   UNL     1       5.034  26.014  52.860  1.00  0.00     0.169 C 
HETATM    9  C   UNL     1       5.820  26.862  51.841  1.00  0.00     0.256 C 
HETATM   10  N   UNL     1       5.148  28.237  51.719  1.00  0.00    -0.060 N 
HETATM   11  H   UNL     1       4.153  28.054  51.539  1.00  0.00     0.280 HD
HETATM   12  C   UNL     1       5.201  28.942  53.075  1.00  0.00     0.256 C 
HETATM   13  C   UNL     1       4.379  28.113  54.093  1.00  0.00     0.169 C 
BRANCH  10  14
HETATM   14  C   UNL     1       5.636  29.079  50.549  1.00  0.00     0.337 C 
BRANCH  14  15
HETATM   15  C   UNL     1       4.726  29.157  49.317  1.00  0.00     0.248 C 
HETATM   16  N   UNL     1       3.520  28.499  49.516  1.00  0.00    -0.325 N 
HETATM   17  H   UNL     1       3.473  27.873  50.310  1.00  0.00     0.169 HD
HETATM   18  O   UNL     1       5.111  29.708  48.293  1.00  0.00    -0.271 OA
BRANCH  16  19
HETATM   19  C   UNL     1       2.493  28.288  48.558  1.00  0.00     0.046 A 
HETATM   20  C   UNL     1       2.476  27.023  47.913  1.00  0.00    -0.034 A 
HETATM   21  C   UNL     1       1.528  26.761  46.908  1.00  0.00     0.015 A 
HETATM   22  C   UNL     1       3.463  25.927  48.228  1.00  0.00     0.050 C 
HETATM   23  C   UNL     1       0.581  27.716  46.545  1.00  0.00    -0.061 A 
HETATM   24  C   UNL     1      -0.391  27.450  45.435  1.00  0.00     0.048 C 
HETATM   25  C   UNL     1       0.576  28.942  47.214  1.00  0.00     0.015 A 
HETATM   26  C   UNL     1       1.492  29.229  48.247  1.00  0.00    -0.034 A 
HETATM   27  C   UNL     1       1.265  30.523  48.982  1.00  0.00     0.050 C 
ENDBRANCH  16  19
ENDBRANCH  14  15
ENDBRANCH  10  14
ENDBRANCH   1   7
BRANCH   3  28
HETATM   28  N   UNL     1       7.454  28.115  57.788  1.00  0.00    -0.187 N 
HETATM   29  H   UNL     1       6.727  28.279  58.473  1.00  0.00     0.184 HD
BRANCH  28  30
HETATM   30  C   UNL     1       8.474  29.074  57.758  1.00  0.00     0.049 A 
HETATM   31  C   UNL     1       9.528  29.046  56.839  1.00  0.00     0.030 A 
HETATM   32  C   UNL     1      10.539  30.014  56.869  1.00  0.00     0.002 A 
HETATM   33  C   UNL     1      10.519  31.012  57.839  1.00  0.00     0.000 A 
HETATM   34  C   UNL     1       9.490  31.044  58.776  1.00  0.00     0.002 A 
HETATM   35  C   UNL     1       8.479  30.081  58.735  1.00  0.00     0.030 A 
ENDBRANCH  28  30
ENDBRANCH   3  28
BRANCH   5  36
HETATM   36  N   UNL     1       8.062  23.911  56.005  1.00  0.00    -0.187 N 
HETATM   37  H   UNL     1       8.872  23.997  56.604  1.00  0.00     0.184 HD
BRANCH  36  38
HETATM   38  C   UNL     1       8.077  22.814  55.130  1.00  0.00     0.049 A 
HETATM   39  C   UNL     1       8.089  22.931  53.735  1.00  0.00     0.030 A 
HETATM   40  C   UNL     1       8.066  21.800  52.910  1.00  0.00     0.002 A 
HETATM   41  C   UNL     1       8.006  20.528  53.471  1.00  0.00     0.000 A 
HETATM   42  C   UNL     1       7.967  20.389  54.854  1.00  0.00     0.002 A 
HETATM   43  C   UNL     1       7.996  21.522  55.674  1.00  0.00     0.030 A 
ENDBRANCH  36  38
ENDBRANCH   5  36
TORSDOF 8
ENDMDL
MODEL 5
REMARK VINA RESULT:     -11.2      1.337      1.990
REMARK  8 active torsions:
REMARK  status: ('A' for Active; 'I' for Inactive)
REMARK    1  A    between atoms: C_6  and  N_7 
REMARK       I    between atoms: N_7  and  C_8 
REMARK    2  A    between atoms: C_8  and  C_9 
REMARK    3  A    between atoms: C_9  and  N_10 
REMARK    4  A    between atoms: N_14  and  C_15 
REMARK    5  A    between atoms: C_17  and  N_18 
REMARK    6  A    between atoms: N_18  and  C_19 
REMARK    7  A    between atoms: C_26  and  N_27 
REMARK    8  A    between atoms: N_27  and  C_28 
ROOT
HETATM    1  C   UNL     1       6.837  27.831  54.819  1.00  0.00     0.756 A 
HETATM    2  N   UNL     1       7.214  26.720  55.427  1.00  0.00     0.131 NA
HETATM    3  C   UNL     1       6.677  25.593  54.966  1.00  0.00     0.758 A 
HETATM    4  N   UNL     1       5.827  25.541  53.947  1.00  0.00     0.131 NA
HETATM    5  C   UNL     1       5.492  26.702  53.403  1.00  0.00     0.758 A 
HETATM    6  N   UNL     1       5.945  27.865  53.846  1.00  0.00     0.131 NA
ENDROOT
BRANCH   1   7
HETATM    7  N   UNL     1       7.406  29.047  55.185  1.00  0.00    -0.210 N 
HETATM    8  C   UNL     1       8.809  29.010  55.617  1.00  0.00     0.169 C 
HETATM    9  C   UNL     1       8.951  28.863  57.144  1.00  0.00     0.256 C 
HETATM   10  N   UNL     1       8.097  29.941  57.828  1.00  0.00    -0.060 N 
HETATM   11  H   UNL     1       8.364  30.833  57.395  1.00  0.00     0.280 HD
HETATM   12  C   UNL     1       6.628  29.725  57.457  1.00  0.00     0.256 C 
HETATM   13  C   UNL     1       6.475  29.911  55.927  1.00  0.00     0.169 C 
BRANCH  10  14
HETATM   14  C   UNL     1       8.355  30.103  59.318  1.00  0.00     0.337 C 
BRANCH  14  15
HETATM   15  C   UNL     1       8.124  31.495  59.919  1.00  0.00     0.248 C 
HETATM   16  N   UNL     1       7.012  31.528  60.749  1.00  0.00    -0.325 N 
HETATM   17  H   UNL     1       6.375  30.744  60.683  1.00  0.00     0.169 HD
HETATM   18  O   UNL     1       8.847  32.434  59.610  1.00  0.00    -0.271 OA
BRANCH  16  19
HETATM   19  C   UNL     1       6.453  32.669  61.385  1.00  0.00     0.046 A 
HETATM   20  C   UNL     1       5.318  33.251  60.762  1.00  0.00    -0.034 A 
HETATM   21  C   UNL     1       4.746  34.419  61.297  1.00  0.00     0.015 A 
HETATM   22  C   UNL     1       4.694  32.693  59.506  1.00  0.00     0.050 C 
HETATM   23  C   UNL     1       5.259  35.009  62.449  1.00  0.00    -0.061 A 
HETATM   24  C   UNL     1       4.679  36.285  62.983  1.00  0.00     0.048 C 
HETATM   25  C   UNL     1       6.349  34.406  63.082  1.00  0.00     0.015 A 
HETATM   26  C   UNL     1       6.930  33.218  62.592  1.00  0.00    -0.034 A 
HETATM   27  C   UNL     1       7.990  32.599  63.463  1.00  0.00     0.050 C 
ENDBRANCH  16  19
ENDBRANCH  14  15
ENDBRANCH  10  14
ENDBRANCH   1   7
BRANCH   3  28
HETATM   28  N   UNL     1       7.042  24.362  55.504  1.00  0.00    -0.187 N 
HETATM   29  H   UNL     1       7.286  24.464  56.480  1.00  0.00     0.184 HD
BRANCH  28  30
HETATM   30  C   UNL     1       7.441  23.158  54.910  1.00  0.00     0.049 A 
HETATM   31  C   UNL     1       7.658  23.013  53.536  1.00  0.00     0.030 A 
HETATM   32  C   UNL     1       8.028  21.779  52.989  1.00  0.00     0.002 A 
HETATM   33  C   UNL     1       8.163  20.665  53.812  1.00  0.00     0.000 A 
HETATM   34  C   UNL     1       7.930  20.783  55.179  1.00  0.00     0.002 A 
HETATM   35  C   UNL     1       7.570  22.020  55.720  1.00  0.00     0.030 A 
ENDBRANCH  28  30
ENDBRANCH   3  28
BRANCH   5  36
HETATM   36  N   UNL     1       4.593  26.644  52.339  1.00  0.00    -0.187 N 
HETATM   37  H   UNL     1       3.914  25.912  52.496  1.00  0.00     0.184 HD
BRANCH  36  38
HETATM   38  C   UNL     1       4.671  27.115  51.019  1.00  0.00     0.049 A 
HETATM   39  C   UNL     1       4.626  28.470  50.672  1.00  0.00     0.030 A 
HETATM   40  C   UNL     1       4.671  28.881  49.335  1.00  0.00     0.002 A 
HETATM   41  C   UNL     1       4.740  27.936  48.317  1.00  0.00     0.000 A 
HETATM   42  C   UNL     1       4.760  26.582  48.637  1.00  0.00     0.002 A 
HETATM   43  C   UNL     1       4.721  26.178  49.974  1.00  0.00     0.030 A 
ENDBRANCH  36  38
ENDBRANCH   5  36
TORSDOF 8
ENDMDL
MODEL 6
REMARK VINA RESULT:     -11.0      3.043      9.858
REMARK  8 active torsions:
REMARK  status: ('A' for Active; 'I' for Inactive)
REMARK    1  A    between atoms: C_6  and  N_7 
REMARK       I    between atoms: N_7  and  C_8 
REMARK    2  A    between atoms: C_8  and  C_9 
REMARK    3  A    between atoms: C_9  and  N_10 
REMARK    4  A    between atoms: N_14  and  C_15 
REMARK    5  A    between atoms: C_17  and  N_18 
REMARK    6  A    between atoms: N_18  and  C_19 
REMARK    7  A    between atoms: C_26  and  N_27 
REMARK    8  A    between atoms: N_27  and  C_28 
ROOT
HETATM    1  C   UNL     1       5.985  26.370  55.010  1.00  0.00     0.756 A 
HETATM    2  N   UNL     1       6.552  25.179  55.072  1.00  0.00     0.131 NA
HETATM    3  C   UNL     1       7.427  25.001  56.058  1.00  0.00     0.758 A 
HETATM    4  N   UNL     1       7.726  25.929  56.960  1.00  0.00     0.131 NA
HETATM    5  C   UNL     1       7.122  27.100  56.818  1.00  0.00     0.758 A 
HETATM    6  N   UNL     1       6.282  27.364  55.828  1.00  0.00     0.131 NA
ENDROOT
BRANCH   1   7
HETATM    7  N   UNL     1       5.002  26.621  54.057  1.00  0.00    -0.210 N 
HETATM    8  C   UNL     1       5.145  25.927  52.771  1.00  0.00     0.169 C 
HETATM    9  C   UNL     1       5.903  26.770  51.728  1.00  0.00     0.256 C 
HETATM   10  N   UNL     1       5.246  28.155  51.640  1.00  0.00    -0.060 N 
HETATM   11  H   UNL     1       4.243  27.988  51.499  1.00  0.00     0.280 HD
HETATM   12  C   UNL     1       5.362  28.851  52.998  1.00  0.00     0.256 C 
HETATM   13  C   UNL     1       4.568  28.026  54.042  1.00  0.00     0.169 C 
BRANCH  10  14
HETATM   14  C   UNL     1       5.701  28.998  50.458  1.00  0.00     0.337 C 
BRANCH  14  15
HETATM   15  C   UNL     1       4.728  29.132  49.281  1.00  0.00     0.248 C 
HETATM   16  N   UNL     1       3.589  28.358  49.455  1.00  0.00    -0.325 N 
HETATM   17  H   UNL     1       3.630  27.649  50.176  1.00  0.00     0.169 HD
HETATM   18  O   UNL     1       5.017  29.820  48.309  1.00  0.00    -0.271 OA
BRANCH  16  19
HETATM   19  C   UNL     1       2.535  28.166  48.521  1.00  0.00     0.046 A 
HETATM   20  C   UNL     1       2.520  26.929  47.825  1.00  0.00    -0.034 A 
HETATM   21  C   UNL     1       1.545  26.690  46.841  1.00  0.00     0.015 A 
HETATM   22  C   UNL     1       3.537  25.841  48.063  1.00  0.00     0.050 C 
HETATM   23  C   UNL     1       0.570  27.640  46.548  1.00  0.00    -0.061 A 
HETATM   24  C   UNL     1      -0.433  27.401  45.459  1.00  0.00     0.048 C 
HETATM   25  C   UNL     1       0.564  28.837  47.267  1.00  0.00     0.015 A 
HETATM   26  C   UNL     1       1.507  29.100  48.282  1.00  0.00    -0.034 A 
HETATM   27  C   UNL     1       1.281  30.357  49.077  1.00  0.00     0.050 C 
ENDBRANCH  16  19
ENDBRANCH  14  15
ENDBRANCH  10  14
ENDBRANCH   1   7
BRANCH   3  28
HETATM   28  N   UNL     1       8.047  23.767  56.243  1.00  0.00    -0.187 N 
HETATM   29  H   UNL     1       8.727  23.825  56.989  1.00  0.00     0.184 HD
BRANCH  28  30
HETATM   30  C   UNL     1       8.150  22.636  55.424  1.00  0.00     0.049 A 
HETATM   31  C   UNL     1       8.467  22.698  54.062  1.00  0.00     0.030 A 
HETATM   32  C   UNL     1       8.529  21.539  53.281  1.00  0.00     0.002 A 
HETATM   33  C   UNL     1       8.251  20.299  53.851  1.00  0.00     0.000 A 
HETATM   34  C   UNL     1       7.912  20.219  55.199  1.00  0.00     0.002 A 
HETATM   35  C   UNL     1       7.860  21.379  55.975  1.00  0.00     0.030 A 
ENDBRANCH  28  30
ENDBRANCH   3  28
BRANCH   5  36
HETATM   36  N   UNL     1       7.444  28.075  57.760  1.00  0.00    -0.187 N 
HETATM   37  H   UNL     1       6.658  28.236  58.376  1.00  0.00     0.184 HD
BRANCH  36  38
HETATM   38  C   UNL     1       8.435  29.068  57.781  1.00  0.00     0.049 A 
HETATM   39  C   UNL     1       9.525  29.099  56.903  1.00  0.00     0.030 A 
HETATM   40  C   UNL     1      10.504  30.095  56.994  1.00  0.00     0.002 A 
HETATM   41  C   UNL     1      10.420  31.068  57.985  1.00  0.00     0.000 A 
HETATM   42  C   UNL     1       9.360  31.042  58.885  1.00  0.00     0.002 A 
HETATM   43  C   UNL     1       8.381  30.048  58.786  1.00  0.00     0.030 A 
ENDBRANCH  36  38
ENDBRANCH   5  36
TORSDOF 8
ENDMDL
MODEL 7
REMARK VINA RESULT:     -10.8      1.775      5.709
REMARK  8 active torsions:
REMARK  status: ('A' for Active; 'I' for Inactive)
REMARK    1  A    between atoms: C_6  and  N_7 
REMARK       I    between atoms: N_7  and  C_8 
REMARK    2  A    between atoms: C_8  and  C_9 
REMARK    3  A    between atoms: C_9  and  N_10 
REMARK    4  A    between atoms: N_14  and  C_15 
REMARK    5  A    between atoms: C_17  and  N_18 
REMARK    6  A    between atoms: N_18  and  C_19 
REMARK    7  A    between atoms: C_26  and  N_27 
REMARK    8  A    between atoms: N_27  and  C_28 
ROOT
HETATM    1  C   UNL     1       5.317  27.073  55.115  1.00  0.00     0.756 A 
HETATM    2  N   UNL     1       4.692  27.439  54.010  1.00  0.00     0.131 NA
HETATM    3  C   UNL     1       5.128  26.881  52.883  1.00  0.00     0.758 A 
HETATM    4  N   UNL     1       6.112  25.991  52.830  1.00  0.00     0.131 NA
HETATM    5  C   UNL     1       6.694  25.689  53.982  1.00  0.00     0.758 A 
HETATM    6  N   UNL     1       6.348  26.247  55.133  1.00  0.00     0.131 NA
ENDROOT
BRANCH   1   7
HETATM    7  N   UNL     1       4.879  27.548  56.348  1.00  0.00    -0.210 N 
HETATM    8  C   UNL     1       3.942  28.678  56.318  1.00  0.00     0.169 C 
HETATM    9  C   UNL     1       4.656  30.039  56.420  1.00  0.00     0.256 C 
HETATM   10  N   UNL     1       5.594  30.015  57.636  1.00  0.00    -0.060 N 
HETATM   11  H   UNL     1       5.025  29.701  58.430  1.00  0.00     0.280 HD
HETATM   12  C   UNL     1       6.652  28.930  57.430  1.00  0.00     0.256 C 
HETATM   13  C   UNL     1       5.940  27.555  57.366  1.00  0.00     0.169 C 
BRANCH  10  14
HETATM   14  C   UNL     1       6.152  31.374  58.032  1.00  0.00     0.337 C 
BRANCH  14  15
HETATM   15  C   UNL     1       5.775  31.905  59.420  1.00  0.00     0.248 C 
HETATM   16  N   UNL     1       6.879  32.375  60.118  1.00  0.00    -0.325 N 
HETATM   17  H   UNL     1       7.787  32.111  59.757  1.00  0.00     0.169 HD
HETATM   18  O   UNL     1       4.618  31.838  59.819  1.00  0.00    -0.271 OA
BRANCH  16  19
HETATM   19  C   UNL     1       6.908  32.840  61.460  1.00  0.00     0.046 A 
HETATM   20  C   UNL     1       7.889  32.265  62.311  1.00  0.00    -0.034 A 
HETATM   21  C   UNL     1       7.939  32.627  63.668  1.00  0.00     0.015 A 
HETATM   22  C   UNL     1       8.883  31.233  61.837  1.00  0.00     0.050 C 
HETATM   23  C   UNL     1       7.056  33.566  64.195  1.00  0.00    -0.061 A 
HETATM   24  C   UNL     1       7.081  33.908  65.656  1.00  0.00     0.048 C 
HETATM   25  C   UNL     1       6.124  34.160  63.343  1.00  0.00     0.015 A 
HETATM   26  C   UNL     1       6.061  33.844  61.971  1.00  0.00    -0.034 A 
HETATM   27  C   UNL     1       5.117  34.677  61.148  1.00  0.00     0.050 C 
ENDBRANCH  16  19
ENDBRANCH  14  15
ENDBRANCH  10  14
ENDBRANCH   1   7
BRANCH   3  28
HETATM   28  N   UNL     1       4.509  27.161  51.668  1.00  0.00    -0.187 N 
HETATM   29  H   UNL     1       4.205  26.305  51.223  1.00  0.00     0.184 HD
BRANCH  28  30
HETATM   30  C   UNL     1       4.532  28.290  50.840  1.00  0.00     0.049 A 
HETATM   31  C   UNL     1       5.584  29.212  50.825  1.00  0.00     0.030 A 
HETATM   32  C   UNL     1       5.545  30.340  49.998  1.00  0.00     0.002 A 
HETATM   33  C   UNL     1       4.436  30.573  49.190  1.00  0.00     0.000 A 
HETATM   34  C   UNL     1       3.368  29.679  49.206  1.00  0.00     0.002 A 
HETATM   35  C   UNL     1       3.418  28.550  50.027  1.00  0.00     0.030 A 
ENDBRANCH  28  30
ENDBRANCH   3  28
BRANCH   5  36
HETATM   36  N   UNL     1       7.731  24.761  53.922  1.00  0.00    -0.187 N 
HETATM   37  H   UNL     1       8.514  25.147  53.411  1.00  0.00     0.184 HD
BRANCH  36  38
HETATM   38  C   UNL     1       7.754  23.368  54.090  1.00  0.00     0.049 A 
HETATM   39  C   UNL     1       7.760  22.734  55.338  1.00  0.00     0.030 A 
HETATM   40  C   UNL     1       7.821  21.340  55.446  1.00  0.00     0.002 A 
HETATM   41  C   UNL     1       7.900  20.554  54.301  1.00  0.00     0.000 A 
HETATM   42  C   UNL     1       7.921  21.163  53.051  1.00  0.00     0.002 A 
HETATM   43  C   UNL     1       7.855  22.556  52.948  1.00  0.00     0.030 A 
ENDBRANCH  36  38
ENDBRANCH   5  36
TORSDOF 8
ENDMDL
MODEL 8
REMARK VINA RESULT:     -10.4      2.666     10.343
REMARK  8 active torsions:
REMARK  status: ('A' for Active; 'I' for Inactive)
REMARK    1  A    between atoms: C_6  and  N_7 
REMARK       I    between atoms: N_7  and  C_8 
REMARK    2  A    between atoms: C_8  and  C_9 
REMARK    3  A    between atoms: C_9  and  N_10 
REMARK    4  A    between atoms: N_14  and  C_15 
REMARK    5  A    between atoms: C_17  and  N_18 
REMARK    6  A    between atoms: N_18  and  C_19 
REMARK    7  A    between atoms: C_26  and  N_27 
REMARK    8  A    between atoms: N_27  and  C_28 
ROOT
HETATM    1  C   UNL     1       4.873  32.020  58.552  1.00  0.00     0.756 A 
HETATM    2  N   UNL     1       5.987  31.312  58.503  1.00  0.00     0.131 NA
HETATM    3  C   UNL     1       6.850  31.512  59.496  1.00  0.00     0.758 A 
HETATM    4  N   UNL     1       6.635  32.347  60.507  1.00  0.00     0.131 NA
HETATM    5  C   UNL     1       5.498  33.029  60.473  1.00  0.00     0.758 A 
HETATM    6  N   UNL     1       4.620  32.919  59.487  1.00  0.00     0.131 NA
ENDROOT
BRANCH   1   7
HETATM    7  N   UNL     1       3.882  31.820  57.596  1.00  0.00    -0.210 N 
HETATM    8  C   UNL     1       3.254  30.493  57.573  1.00  0.00     0.169 C 
HETATM    9  C   UNL     1       3.940  29.534  56.582  1.00  0.00     0.256 C 
HETATM   10  N   UNL     1       4.036  30.223  55.213  1.00  0.00    -0.060 N 
HETATM   11  H   UNL     1       3.091  30.558  54.994  1.00  0.00     0.280 HD
HETATM   12  C   UNL     1       4.900  31.479  55.344  1.00  0.00     0.256 C 
HETATM   13  C   UNL     1       4.193  32.462  56.310  1.00  0.00     0.169 C 
BRANCH  10  14
HETATM   14  C   UNL     1       4.430  29.303  54.066  1.00  0.00     0.337 C 
BRANCH  14  15
HETATM   15  C   UNL     1       5.612  28.356  54.306  1.00  0.00     0.248 C 
HETATM   16  N   UNL     1       5.243  27.022  54.200  1.00  0.00    -0.325 N 
HETATM   17  H   UNL     1       4.251  26.826  54.215  1.00  0.00     0.169 HD
HETATM   18  O   UNL     1       6.714  28.800  54.607  1.00  0.00    -0.271 OA
BRANCH  16  19
HETATM   19  C   UNL     1       6.057  25.887  54.459  1.00  0.00     0.046 A 
HETATM   20  C   UNL     1       6.024  25.370  55.782  1.00  0.00    -0.034 A 
HETATM   21  C   UNL     1       6.849  24.287  56.131  1.00  0.00     0.015 A 
HETATM   22  C   UNL     1       5.158  25.954  56.870  1.00  0.00     0.050 C 
HETATM   23  C   UNL     1       7.687  23.688  55.194  1.00  0.00    -0.061 A 
HETATM   24  C   UNL     1       8.604  22.568  55.588  1.00  0.00     0.048 C 
HETATM   25  C   UNL     1       7.681  24.173  53.885  1.00  0.00     0.015 A 
HETATM   26  C   UNL     1       6.847  25.239  53.489  1.00  0.00    -0.034 A 
HETATM   27  C   UNL     1       6.831  25.547  52.017  1.00  0.00     0.050 C 
ENDBRANCH  16  19
ENDBRANCH  14  15
ENDBRANCH  10  14
ENDBRANCH   1   7
BRANCH   3  28
HETATM   28  N   UNL     1       8.034  30.782  59.566  1.00  0.00    -0.187 N 
HETATM   29  H   UNL     1       8.424  30.836  60.497  1.00  0.00     0.184 HD
BRANCH  28  30
HETATM   30  C   UNL     1       8.905  30.309  58.577  1.00  0.00     0.049 A 
HETATM   31  C   UNL     1       8.673  29.141  57.843  1.00  0.00     0.030 A 
HETATM   32  C   UNL     1       9.590  28.695  56.885  1.00  0.00     0.002 A 
HETATM   33  C   UNL     1      10.768  29.404  56.666  1.00  0.00     0.000 A 
HETATM   34  C   UNL     1      11.028  30.557  57.402  1.00  0.00     0.002 A 
HETATM   35  C   UNL     1      10.104  31.001  58.350  1.00  0.00     0.030 A 
ENDBRANCH  28  30
ENDBRANCH   3  28
BRANCH   5  36
HETATM   36  N   UNL     1       5.279  33.910  61.530  1.00  0.00    -0.187 N 
HETATM   37  H   UNL     1       5.163  34.851  61.179  1.00  0.00     0.184 HD
BRANCH  36  38
HETATM   38  C   UNL     1       5.546  33.811  62.904  1.00  0.00     0.049 A 
HETATM   39  C   UNL     1       4.553  33.743  63.887  1.00  0.00     0.030 A 
HETATM   40  C   UNL     1       4.878  33.682  65.247  1.00  0.00     0.002 A 
HETATM   41  C   UNL     1       6.210  33.711  65.648  1.00  0.00     0.000 A 
HETATM   42  C   UNL     1       7.213  33.804  64.690  1.00  0.00     0.002 A 
HETATM   43  C   UNL     1       6.883  33.859  63.332  1.00  0.00     0.030 A 
ENDBRANCH  36  38
ENDBRANCH   5  36
TORSDOF 8
ENDMDL
MODEL 9
REMARK VINA RESULT:     -10.4      1.633      2.207
REMARK  8 active torsions:
REMARK  status: ('A' for Active; 'I' for Inactive)
REMARK    1  A    between atoms: C_6  and  N_7 
REMARK       I    between atoms: N_7  and  C_8 
REMARK    2  A    between atoms: C_8  and  C_9 
REMARK    3  A    between atoms: C_9  and  N_10 
REMARK    4  A    between atoms: N_14  and  C_15 
REMARK    5  A    between atoms: C_17  and  N_18 
REMARK    6  A    between atoms: N_18  and  C_19 
REMARK    7  A    between atoms: C_26  and  N_27 
REMARK    8  A    between atoms: N_27  and  C_28 
ROOT
HETATM    1  C   UNL     1       5.301  27.264  54.882  1.00  0.00     0.756 A 
HETATM    2  N   UNL     1       6.348  26.463  54.797  1.00  0.00     0.131 NA
HETATM    3  C   UNL     1       6.621  25.987  53.585  1.00  0.00     0.758 A 
HETATM    4  N   UNL     1       5.923  26.290  52.496  1.00  0.00     0.131 NA
HETATM    5  C   UNL     1       4.881  27.089  52.671  1.00  0.00     0.758 A 
HETATM    6  N   UNL     1       4.519  27.556  53.857  1.00  0.00     0.131 NA
ENDROOT
BRANCH   1   7
HETATM    7  N   UNL     1       4.987  27.867  56.096  1.00  0.00    -0.210 N 
HETATM    8  C   UNL     1       3.715  28.599  56.154  1.00  0.00     0.169 C 
HETATM    9  C   UNL     1       3.882  30.096  55.831  1.00  0.00     0.256 C 
HETATM   10  N   UNL     1       4.995  30.672  56.719  1.00  0.00    -0.060 N 
HETATM   11  H   UNL     1       4.762  30.402  57.681  1.00  0.00     0.280 HD
HETATM   12  C   UNL     1       6.310  29.961  56.397  1.00  0.00     0.256 C 
HETATM   13  C   UNL     1       6.159  28.461  56.756  1.00  0.00     0.169 C 
BRANCH  10  14
HETATM   14  C   UNL     1       5.083  32.191  56.720  1.00  0.00     0.337 C 
BRANCH  14  15
HETATM   15  C   UNL     1       5.509  32.865  58.030  1.00  0.00     0.248 C 
HETATM   16  N   UNL     1       6.099  31.968  58.910  1.00  0.00    -0.325 N 
HETATM   17  H   UNL     1       5.973  30.985  58.706  1.00  0.00     0.169 HD
HETATM   18  O   UNL     1       5.273  34.051  58.225  1.00  0.00    -0.271 OA
BRANCH  16  19
HETATM   19  C   UNL     1       6.516  32.228  60.243  1.00  0.00     0.046 A 
HETATM   20  C   UNL     1       5.491  32.338  61.220  1.00  0.00    -0.034 A 
HETATM   21  C   UNL     1       5.821  32.656  62.549  1.00  0.00     0.015 A 
HETATM   22  C   UNL     1       4.028  32.164  60.897  1.00  0.00     0.050 C 
HETATM   23  C   UNL     1       7.145  32.842  62.937  1.00  0.00    -0.061 A 
HETATM   24  C   UNL     1       7.484  33.235  64.345  1.00  0.00     0.048 C 
HETATM   25  C   UNL     1       8.151  32.689  61.982  1.00  0.00     0.015 A 
HETATM   26  C   UNL     1       7.862  32.342  60.646  1.00  0.00    -0.034 A 
HETATM   27  C   UNL     1       9.052  32.055  59.771  1.00  0.00     0.050 C 
ENDBRANCH  16  19
ENDBRANCH  14  15
ENDBRANCH  10  14
ENDBRANCH   1   7
BRANCH   3  28
HETATM   28  N   UNL     1       7.730  25.171  53.376  1.00  0.00    -0.187 N 
HETATM   29  H   UNL     1       8.321  25.561  52.653  1.00  0.00     0.184 HD
BRANCH  28  30
HETATM   30  C   UNL     1       7.990  23.836  53.707  1.00  0.00     0.049 A 
HETATM   31  C   UNL     1       8.622  23.446  54.892  1.00  0.00     0.030 A 
HETATM   32  C   UNL     1       8.884  22.098  55.162  1.00  0.00     0.002 A 
HETATM   33  C   UNL     1       8.537  21.121  54.232  1.00  0.00     0.000 A 
HETATM   34  C   UNL     1       7.927  21.491  53.036  1.00  0.00     0.002 A 
HETATM   35  C   UNL     1       7.660  22.837  52.778  1.00  0.00     0.030 A 
ENDBRANCH  28  30
ENDBRANCH   3  28
BRANCH   5  36
HETATM   36  N   UNL     1       4.146  27.399  51.528  1.00  0.00    -0.187 N 
HETATM   37  H   UNL     1       3.158  27.292  51.711  1.00  0.00     0.184 HD
BRANCH  36  38
HETATM   38  C   UNL     1       4.502  27.457  50.172  1.00  0.00     0.049 A 
HETATM   39  C   UNL     1       4.252  26.428  49.256  1.00  0.00     0.030 A 
HETATM   40  C   UNL     1       4.662  26.527  47.921  1.00  0.00     0.002 A 
HETATM   41  C   UNL     1       5.354  27.652  47.485  1.00  0.00     0.000 A 
HETATM   42  C   UNL     1       5.637  28.675  48.383  1.00  0.00     0.002 A 
HETATM   43  C   UNL     1       5.219  28.574  49.714  1.00  0.00     0.030 A 
ENDBRANCH  36  38
ENDBRANCH   5  36
TORSDOF 8
ENDMDL
MODEL 10
REMARK VINA RESULT:     -10.3      2.804      5.851
REMARK  8 active torsions:
REMARK  status: ('A' for Active; 'I' for Inactive)
REMARK    1  A    between atoms: C_6  and  N_7 
REMARK       I    between atoms: N_7  and  C_8 
REMARK    2  A    between atoms: C_8  and  C_9 
REMARK    3  A    between atoms: C_9  and  N_10 
REMARK    4  A    between atoms: N_14  and  C_15 
REMARK    5  A    between atoms: C_17  and  N_18 
REMARK    6  A    between atoms: N_18  and  C_19 
REMARK    7  A    between atoms: C_26  and  N_27 
REMARK    8  A    between atoms: N_27  and  C_28 
ROOT
HETATM    1  C   UNL     1       4.375  29.273  56.468  1.00  0.00     0.756 A 
HETATM    2  N   UNL     1       4.197  28.358  55.532  1.00  0.00     0.131 NA
HETATM    3  C   UNL     1       5.180  27.472  55.389  1.00  0.00     0.758 A 
HETATM    4  N   UNL     1       6.279  27.458  56.134  1.00  0.00     0.131 NA
HETATM    5  C   UNL     1       6.383  28.418  57.042  1.00  0.00     0.758 A 
HETATM    6  N   UNL     1       5.470  29.364  57.202  1.00  0.00     0.131 NA
ENDROOT
BRANCH   1   7
HETATM    7  N   UNL     1       3.366  30.192  56.738  1.00  0.00    -0.210 N 
HETATM    8  C   UNL     1       3.316  31.381  55.877  1.00  0.00     0.169 C 
HETATM    9  C   UNL     1       4.100  32.568  56.468  1.00  0.00     0.256 C 
HETATM   10  N   UNL     1       3.633  32.802  57.912  1.00  0.00    -0.060 N 
HETATM   11  H   UNL     1       2.609  32.862  57.874  1.00  0.00     0.280 HD
HETATM   12  C   UNL     1       3.944  31.557  58.745  1.00  0.00     0.256 C 
HETATM   13  C   UNL     1       3.127  30.369  58.178  1.00  0.00     0.169 C 
BRANCH  10  14
HETATM   14  C   UNL     1       4.108  34.109  58.528  1.00  0.00     0.337 C 
BRANCH  14  15
HETATM   15  C   UNL     1       4.137  34.189  60.059  1.00  0.00     0.248 C 
HETATM   16  N   UNL     1       5.431  34.283  60.553  1.00  0.00    -0.325 N 
HETATM   17  H   UNL     1       6.178  34.060  59.908  1.00  0.00     0.169 HD
HETATM   18  O   UNL     1       3.099  34.116  60.706  1.00  0.00    -0.271 OA
BRANCH  16  19
HETATM   19  C   UNL     1       5.828  34.273  61.917  1.00  0.00     0.046 A 
HETATM   20  C   UNL     1       6.508  33.112  62.372  1.00  0.00    -0.034 A 
HETATM   21  C   UNL     1       6.877  33.001  63.724  1.00  0.00     0.015 A 
HETATM   22  C   UNL     1       6.833  31.946  61.472  1.00  0.00     0.050 C 
HETATM   23  C   UNL     1       6.611  34.025  64.629  1.00  0.00    -0.061 A 
HETATM   24  C   UNL     1       6.960  33.877  66.081  1.00  0.00     0.048 C 
HETATM   25  C   UNL     1       5.983  35.182  64.165  1.00  0.00     0.015 A 
HETATM   26  C   UNL     1       5.623  35.342  62.811  1.00  0.00    -0.034 A 
HETATM   27  C   UNL     1       5.101  36.700  62.428  1.00  0.00     0.050 C 
ENDBRANCH  16  19
ENDBRANCH  14  15
ENDBRANCH  10  14
ENDBRANCH   1   7
BRANCH   3  28
HETATM   28  N   UNL     1       5.073  26.438  54.463  1.00  0.00    -0.187 N 
HETATM   29  H   UNL     1       4.129  26.073  54.452  1.00  0.00     0.184 HD
BRANCH  28  30
HETATM   30  C   UNL     1       6.033  25.633  53.838  1.00  0.00     0.049 A 
HETATM   31  C   UNL     1       6.749  26.030  52.703  1.00  0.00     0.030 A 
HETATM   32  C   UNL     1       7.678  25.175  52.099  1.00  0.00     0.002 A 
HETATM   33  C   UNL     1       7.886  23.898  52.613  1.00  0.00     0.000 A 
HETATM   34  C   UNL     1       7.168  23.476  53.729  1.00  0.00     0.002 A 
HETATM   35  C   UNL     1       6.249  24.338  54.332  1.00  0.00     0.030 A 
ENDBRANCH  28  30
ENDBRANCH   3  28
BRANCH   5  36
HETATM   36  N   UNL     1       7.541  28.406  57.817  1.00  0.00    -0.187 N 
HETATM   37  H   UNL     1       7.400  27.841  58.644  1.00  0.00     0.184 HD
BRANCH  36  38
HETATM   38  C   UNL     1       8.650  29.265  57.861  1.00  0.00     0.049 A 
HETATM   39  C   UNL     1       8.710  30.420  58.650  1.00  0.00     0.030 A 
HETATM   40  C   UNL     1       9.829  31.260  58.625  1.00  0.00     0.002 A 
HETATM   41  C   UNL     1      10.902  30.970  57.789  1.00  0.00     0.000 A 
HETATM   42  C   UNL     1      10.854  29.841  56.978  1.00  0.00     0.002 A 
HETATM   43  C   UNL     1       9.736  29.002  57.010  1.00  0.00     0.030 A 
ENDBRANCH  36  38
ENDBRANCH   5  36
TORSDOF 8
ENDMDL
