MODEL 1
REMARK VINA RESULT:      -9.5      0.000      0.000
REMARK  8 active torsions:
REMARK  status: ('A' for Active; 'I' for Inactive)
REMARK    1  A    between atoms: C_7  and  C_8 
REMARK       I    between atoms: C_8  and  N_9 
REMARK    2  A    between atoms: N_9  and  N_10 
REMARK    3  A    between atoms: N_10  and  C_11 
REMARK    4  A    between atoms: C_11  and  N_12 
REMARK    5  A    between atoms: N_12  and  C_13 
REMARK    6  A    between atoms: N_15  and  C_16 
REMARK    7  A    between atoms: C_16  and  C_17 
REMARK    8  A    between atoms: C_29  and  C_30 
ROOT
HETATM    1  C   UNL     1       4.949  25.696  52.689  1.00  0.00     0.290 C 
HETATM    2  N   UNL     1       4.176  26.518  53.486  1.00  0.00    -0.262 N 
HETATM    3  O   UNL     1       4.883  25.646  51.464  1.00  0.00    -0.264 OA
HETATM    4  H   UNL     1       4.372  26.550  54.486  1.00  0.00     0.190 HD
ENDROOT
BRANCH   2   5
HETATM    5  N   UNL     1       3.327  27.478  52.939  1.00  0.00    -0.273 N 
HETATM    6  H   UNL     1       2.317  27.298  52.963  1.00  0.00     0.189 HD
BRANCH   5   7
HETATM    7  C   UNL     1       3.759  28.752  52.686  1.00  0.00     0.192 C 
HETATM    8  S   UNL     1       4.427  29.260  51.231  1.00  0.00    -0.039 SA
BRANCH   7   9
HETATM    9  N   UNL     1       3.650  29.671  53.689  1.00  0.00    -0.315 N 
HETATM   10  H   UNL     1       2.910  30.351  53.575  1.00  0.00     0.170 HD
BRANCH   9  11
HETATM   11  C   UNL     1       4.471  29.828  54.784  1.00  0.00     0.151 A 
HETATM   12  N   UNL     1       5.239  28.864  55.302  1.00  0.00    -0.154 NA
HETATM   13  N   UNL     1       5.879  29.463  56.328  1.00  0.00    -0.275 N 
HETATM   14  C   UNL     1       5.533  30.775  56.484  1.00  0.00     0.116 A 
HETATM   15  C   UNL     1       4.614  31.041  55.498  1.00  0.00     0.071 A 
BRANCH  13  16
HETATM   16  C   UNL     1       6.769  28.693  57.186  1.00  0.00     0.192 C 
BRANCH  16  17
HETATM   17  C   UNL     1       8.152  29.279  57.223  1.00  0.00     0.000 A 
HETATM   18  C   UNL     1       8.974  29.221  56.095  1.00  0.00     0.124 A 
HETATM   19  F   UNL     1       8.520  28.647  54.971  1.00  0.00    -0.205 F 
HETATM   20  C   UNL     1      10.259  29.755  56.105  1.00  0.00     0.043 A 
HETATM   21  C   UNL     1      10.743  30.361  57.264  1.00  0.00     0.003 A 
HETATM   22  C   UNL     1       9.941  30.419  58.403  1.00  0.00     0.001 A 
HETATM   23  C   UNL     1       8.653  29.877  58.387  1.00  0.00     0.012 A 
ENDBRANCH  16  17
ENDBRANCH  13  16
ENDBRANCH   9  11
ENDBRANCH   7   9
ENDBRANCH   5   7
ENDBRANCH   2   5
BRANCH   1  24
HETATM   24  C   UNL     1       5.871  24.869  53.486  1.00  0.00     0.150 A 
HETATM   25  N   UNL     1       5.952  24.997  54.831  1.00  0.00    -0.165 NA
HETATM   26  N   UNL     1       6.884  24.098  55.180  1.00  0.00    -0.240 N 
HETATM   27  C   UNL     1       7.382  23.374  54.133  1.00  0.00     0.123 A 
HETATM   28  C   UNL     1       7.266  23.897  56.565  1.00  0.00     0.221 C 
HETATM   29  N   UNL     1       8.282  22.382  54.325  1.00  0.00    -0.371 N 
HETATM   30  C   UNL     1       6.759  23.863  53.013  1.00  0.00     0.089 A 
HETATM   31  C   UNL     1       8.900  22.182  55.635  1.00  0.00     0.081 C 
HETATM   32  H   UNL     1       8.792  22.005  53.527  1.00  0.00     0.161 HD
HETATM   33  C   UNL     1       9.388  20.741  55.746  1.00  0.00     0.032 C 
HETATM   34  C   UNL     1       7.875  22.492  56.739  1.00  0.00     0.061 C 
BRANCH  28  35
HETATM   35  C   UNL     1       8.213  24.992  57.006  1.00  0.00     0.409 C 
HETATM   36  F   UNL     1       8.438  25.909  56.041  1.00  0.00    -0.169 F 
HETATM   37  F   UNL     1       7.675  25.666  58.058  1.00  0.00    -0.169 F 
HETATM   38  F   UNL     1       9.411  24.526  57.420  1.00  0.00    -0.169 F 
ENDBRANCH  28  35
ENDBRANCH   1  24
TORSDOF 8
ENDMDL
MODEL 2
REMARK VINA RESULT:      -9.4      4.685      8.818
REMARK  8 active torsions:
REMARK  status: ('A' for Active; 'I' for Inactive)
REMARK    1  A    between atoms: C_7  and  C_8 
REMARK       I    between atoms: C_8  and  N_9 
REMARK    2  A    between atoms: N_9  and  N_10 
REMARK    3  A    between atoms: N_10  and  C_11 
REMARK    4  A    between atoms: C_11  and  N_12 
REMARK    5  A    between atoms: N_12  and  C_13 
REMARK    6  A    between atoms: N_15  and  C_16 
REMARK    7  A    between atoms: C_16  and  C_17 
REMARK    8  A    between atoms: C_29  and  C_30 
ROOT
HETATM    1  C   UNL     1       3.783  31.543  58.373  1.00  0.00     0.290 C 
HETATM    2  N   UNL     1       4.109  30.234  58.079  1.00  0.00    -0.262 N 
HETATM    3  O   UNL     1       3.177  32.299  57.618  1.00  0.00    -0.264 OA
HETATM    4  H   UNL     1       4.533  29.663  58.811  1.00  0.00     0.190 HD
ENDROOT
BRANCH   2   5
HETATM    5  N   UNL     1       3.649  29.607  56.923  1.00  0.00    -0.273 N 
HETATM    6  H   UNL     1       2.896  30.061  56.395  1.00  0.00     0.189 HD
BRANCH   5   7
HETATM    7  C   UNL     1       4.371  28.616  56.314  1.00  0.00     0.192 C 
HETATM    8  S   UNL     1       4.874  28.650  54.712  1.00  0.00    -0.039 SA
BRANCH   7   9
HETATM    9  N   UNL     1       4.697  27.519  57.057  1.00  0.00    -0.315 N 
HETATM   10  H   UNL     1       3.994  27.219  57.719  1.00  0.00     0.170 HD
BRANCH   9  11
HETATM   11  C   UNL     1       5.890  26.830  57.069  1.00  0.00     0.151 A 
HETATM   12  N   UNL     1       6.002  25.505  56.932  1.00  0.00    -0.154 NA
HETATM   13  N   UNL     1       7.332  25.276  56.977  1.00  0.00    -0.275 N 
HETATM   14  C   UNL     1       8.066  26.415  57.150  1.00  0.00     0.116 A 
HETATM   15  C   UNL     1       7.156  27.442  57.219  1.00  0.00     0.071 A 
BRANCH  13  16
HETATM   16  C   UNL     1       7.844  23.914  56.926  1.00  0.00     0.192 C 
BRANCH  16  17
HETATM   17  C   UNL     1       7.861  23.378  55.523  1.00  0.00     0.000 A 
HETATM   18  C   UNL     1       7.793  22.002  55.291  1.00  0.00     0.124 A 
HETATM   19  F   UNL     1       7.705  21.157  56.329  1.00  0.00    -0.205 F 
HETATM   20  C   UNL     1       7.809  21.481  54.001  1.00  0.00     0.043 A 
HETATM   21  C   UNL     1       7.894  22.346  52.911  1.00  0.00     0.003 A 
HETATM   22  C   UNL     1       7.972  23.723  53.122  1.00  0.00     0.001 A 
HETATM   23  C   UNL     1       7.961  24.238  54.421  1.00  0.00     0.012 A 
ENDBRANCH  16  17
ENDBRANCH  13  16
ENDBRANCH   9  11
ENDBRANCH   7   9
ENDBRANCH   5   7
ENDBRANCH   2   5
BRANCH   1  24
HETATM   24  C   UNL     1       4.255  31.940  59.710  1.00  0.00     0.150 A 
HETATM   25  N   UNL     1       5.489  32.464  59.897  1.00  0.00    -0.165 NA
HETATM   26  N   UNL     1       5.544  32.685  61.219  1.00  0.00    -0.240 N 
HETATM   27  C   UNL     1       4.395  32.364  61.887  1.00  0.00     0.123 A 
HETATM   28  C   UNL     1       6.715  33.269  61.845  1.00  0.00     0.221 C 
HETATM   29  N   UNL     1       4.265  32.588  63.215  1.00  0.00    -0.371 N 
HETATM   30  C   UNL     1       3.542  31.858  60.939  1.00  0.00     0.089 A 
HETATM   31  C   UNL     1       5.416  32.999  64.016  1.00  0.00     0.081 C 
HETATM   32  H   UNL     1       3.496  32.153  63.725  1.00  0.00     0.161 HD
HETATM   33  C   UNL     1       4.925  33.717  65.270  1.00  0.00     0.032 C 
HETATM   34  C   UNL     1       6.318  33.924  63.182  1.00  0.00     0.061 C 
BRANCH  28  35
HETATM   35  C   UNL     1       7.790  32.218  62.017  1.00  0.00     0.409 C 
HETATM   36  F   UNL     1       8.582  32.098  60.930  1.00  0.00    -0.169 F 
HETATM   37  F   UNL     1       8.606  32.563  63.049  1.00  0.00    -0.169 F 
HETATM   38  F   UNL     1       7.298  30.995  62.307  1.00  0.00    -0.169 F 
ENDBRANCH  28  35
ENDBRANCH   1  24
TORSDOF 8
ENDMDL
MODEL 3
REMARK VINA RESULT:      -9.4      3.621      7.367
REMARK  8 active torsions:
REMARK  status: ('A' for Active; 'I' for Inactive)
REMARK    1  A    between atoms: C_7  and  C_8 
REMARK       I    between atoms: C_8  and  N_9 
REMARK    2  A    between atoms: N_9  and  N_10 
REMARK    3  A    between atoms: N_10  and  C_11 
REMARK    4  A    between atoms: C_11  and  N_12 
REMARK    5  A    between atoms: N_12  and  C_13 
REMARK    6  A    between atoms: N_15  and  C_16 
REMARK    7  A    between atoms: C_16  and  C_17 
REMARK    8  A    between atoms: C_29  and  C_30 
ROOT
HETATM    1  C   UNL     1       6.835  27.408  53.210  1.00  0.00     0.290 C 
HETATM    2  N   UNL     1       6.609  28.594  53.881  1.00  0.00    -0.262 N 
HETATM    3  O   UNL     1       7.658  26.561  53.545  1.00  0.00    -0.264 OA
HETATM    4  H   UNL     1       5.838  29.187  53.573  1.00  0.00     0.190 HD
ENDROOT
BRANCH   2   5
HETATM    5  N   UNL     1       7.222  28.873  55.101  1.00  0.00    -0.273 N 
HETATM    6  H   UNL     1       8.204  29.168  55.090  1.00  0.00     0.189 HD
BRANCH   5   7
HETATM    7  C   UNL     1       6.487  29.080  56.238  1.00  0.00     0.192 C 
HETATM    8  S   UNL     1       5.712  30.519  56.622  1.00  0.00    -0.039 SA
BRANCH   7   9
HETATM    9  N   UNL     1       6.387  28.048  57.125  1.00  0.00    -0.315 N 
HETATM   10  H   UNL     1       6.158  28.312  58.073  1.00  0.00     0.170 HD
BRANCH   9  11
HETATM   11  C   UNL     1       6.640  26.712  56.900  1.00  0.00     0.151 A 
HETATM   12  N   UNL     1       7.860  26.171  56.838  1.00  0.00    -0.154 NA
HETATM   13  N   UNL     1       7.632  24.856  56.632  1.00  0.00    -0.275 N 
HETATM   14  C   UNL     1       6.304  24.550  56.550  1.00  0.00     0.116 A 
HETATM   15  C   UNL     1       5.633  25.737  56.715  1.00  0.00     0.071 A 
BRANCH  13  16
HETATM   16  C   UNL     1       8.748  23.939  56.441  1.00  0.00     0.192 C 
BRANCH  16  17
HETATM   17  C   UNL     1       8.422  22.868  55.440  1.00  0.00     0.000 A 
HETATM   18  C   UNL     1       8.220  21.550  55.856  1.00  0.00     0.124 A 
HETATM   19  F   UNL     1       8.309  21.243  57.159  1.00  0.00    -0.205 F 
HETATM   20  C   UNL     1       7.919  20.539  54.947  1.00  0.00     0.043 A 
HETATM   21  C   UNL     1       7.817  20.843  53.591  1.00  0.00     0.003 A 
HETATM   22  C   UNL     1       8.025  22.151  53.154  1.00  0.00     0.001 A 
HETATM   23  C   UNL     1       8.331  23.160  54.072  1.00  0.00     0.012 A 
ENDBRANCH  16  17
ENDBRANCH  13  16
ENDBRANCH   9  11
ENDBRANCH   7   9
ENDBRANCH   5   7
ENDBRANCH   2   5
BRANCH   1  24
HETATM   24  C   UNL     1       5.969  27.274  52.026  1.00  0.00     0.150 A 
HETATM   25  N   UNL     1       5.620  28.348  51.280  1.00  0.00    -0.165 NA
HETATM   26  N   UNL     1       4.841  27.828  50.320  1.00  0.00    -0.240 N 
HETATM   27  C   UNL     1       4.701  26.470  50.388  1.00  0.00     0.123 A 
HETATM   28  C   UNL     1       4.261  28.656  49.279  1.00  0.00     0.221 C 
HETATM   29  N   UNL     1       4.000  25.785  49.455  1.00  0.00    -0.371 N 
HETATM   30  C   UNL     1       5.405  26.079  51.497  1.00  0.00     0.089 A 
HETATM   31  C   UNL     1       3.207  26.493  48.452  1.00  0.00     0.081 C 
HETATM   32  H   UNL     1       3.732  24.819  49.637  1.00  0.00     0.161 HD
HETATM   33  C   UNL     1       3.010  25.591  47.238  1.00  0.00     0.032 C 
HETATM   34  C   UNL     1       3.929  27.791  48.049  1.00  0.00     0.061 C 
BRANCH  28  35
HETATM   35  C   UNL     1       3.048  29.386  49.814  1.00  0.00     0.409 C 
HETATM   36  F   UNL     1       3.351  30.594  50.335  1.00  0.00    -0.169 F 
HETATM   37  F   UNL     1       2.170  29.616  48.800  1.00  0.00    -0.169 F 
HETATM   38  F   UNL     1       2.376  28.687  50.753  1.00  0.00    -0.169 F 
ENDBRANCH  28  35
ENDBRANCH   1  24
TORSDOF 8
ENDMDL
MODEL 4
REMARK VINA RESULT:      -9.4      5.413      9.792
REMARK  8 active torsions:
REMARK  status: ('A' for Active; 'I' for Inactive)
REMARK    1  A    between atoms: C_7  and  C_8 
REMARK       I    between atoms: C_8  and  N_9 
REMARK    2  A    between atoms: N_9  and  N_10 
REMARK    3  A    between atoms: N_10  and  C_11 
REMARK    4  A    between atoms: C_11  and  N_12 
REMARK    5  A    between atoms: N_12  and  C_13 
REMARK    6  A    between atoms: N_15  and  C_16 
REMARK    7  A    between atoms: C_16  and  C_17 
REMARK    8  A    between atoms: C_29  and  C_30 
ROOT
HETATM    1  C   UNL     1       8.598  30.814  59.747  1.00  0.00     0.290 C 
HETATM    2  N   UNL     1       7.730  29.829  59.317  1.00  0.00    -0.262 N 
HETATM    3  O   UNL     1       9.682  31.065  59.229  1.00  0.00    -0.264 OA
HETATM    4  H   UNL     1       6.813  29.762  59.759  1.00  0.00     0.190 HD
ENDROOT
BRANCH   2   5
HETATM    5  N   UNL     1       7.964  29.107  58.149  1.00  0.00    -0.273 N 
HETATM    6  H   UNL     1       8.849  28.593  58.069  1.00  0.00     0.189 HD
BRANCH   5   7
HETATM    7  C   UNL     1       6.949  28.802  57.283  1.00  0.00     0.192 C 
HETATM    8  S   UNL     1       6.461  29.776  56.005  1.00  0.00    -0.039 SA
BRANCH   7   9
HETATM    9  N   UNL     1       6.279  27.629  57.478  1.00  0.00    -0.315 N 
HETATM   10  H   UNL     1       5.478  27.684  58.092  1.00  0.00     0.170 HD
BRANCH   9  11
HETATM   11  C   UNL     1       6.611  26.377  57.006  1.00  0.00     0.151 A 
HETATM   12  N   UNL     1       7.854  25.888  56.963  1.00  0.00    -0.154 NA
HETATM   13  N   UNL     1       7.705  24.643  56.463  1.00  0.00    -0.275 N 
HETATM   14  C   UNL     1       6.406  24.332  56.177  1.00  0.00     0.116 A 
HETATM   15  C   UNL     1       5.671  25.443  56.514  1.00  0.00     0.071 A 
BRANCH  13  16
HETATM   16  C   UNL     1       8.873  23.812  56.204  1.00  0.00     0.192 C 
BRANCH  16  17
HETATM   17  C   UNL     1       8.568  22.709  55.231  1.00  0.00     0.000 A 
HETATM   18  C   UNL     1       8.525  21.380  55.660  1.00  0.00     0.124 A 
HETATM   19  F   UNL     1       8.750  21.091  56.951  1.00  0.00    -0.205 F 
HETATM   20  C   UNL     1       8.245  20.341  54.777  1.00  0.00     0.043 A 
HETATM   21  C   UNL     1       8.004  20.627  53.434  1.00  0.00     0.003 A 
HETATM   22  C   UNL     1       8.052  21.946  52.985  1.00  0.00     0.001 A 
HETATM   23  C   UNL     1       8.337  22.984  53.877  1.00  0.00     0.012 A 
ENDBRANCH  16  17
ENDBRANCH  13  16
ENDBRANCH   9  11
ENDBRANCH   7   9
ENDBRANCH   5   7
ENDBRANCH   2   5
BRANCH   1  24
HETATM   24  C   UNL     1       8.071  31.538  60.916  1.00  0.00     0.150 A 
HETATM   25  N   UNL     1       6.773  31.915  60.988  1.00  0.00    -0.165 NA
HETATM   26  N   UNL     1       6.688  32.537  62.173  1.00  0.00    -0.240 N 
HETATM   27  C   UNL     1       7.856  32.548  62.883  1.00  0.00     0.123 A 
HETATM   28  C   UNL     1       5.435  33.088  62.655  1.00  0.00     0.221 C 
HETATM   29  N   UNL     1       7.921  33.078  64.126  1.00  0.00    -0.371 N 
HETATM   30  C   UNL     1       8.781  31.924  62.087  1.00  0.00     0.089 A 
HETATM   31  C   UNL     1       6.794  33.832  64.673  1.00  0.00     0.081 C 
HETATM   32  H   UNL     1       8.831  33.266  64.546  1.00  0.00     0.161 HD
HETATM   33  C   UNL     1       6.869  33.815  66.197  1.00  0.00     0.032 C 
HETATM   34  C   UNL     1       5.475  33.206  64.190  1.00  0.00     0.061 C 
BRANCH  28  35
HETATM   35  C   UNL     1       5.161  34.416  61.983  1.00  0.00     0.409 C 
HETATM   36  F   UNL     1       4.705  34.279  60.720  1.00  0.00    -0.169 F 
HETATM   37  F   UNL     1       4.194  35.084  62.669  1.00  0.00    -0.169 F 
HETATM   38  F   UNL     1       6.238  35.229  61.948  1.00  0.00    -0.169 F 
ENDBRANCH  28  35
ENDBRANCH   1  24
TORSDOF 8
ENDMDL
MODEL 5
REMARK VINA RESULT:      -9.3      2.446      3.241
REMARK  8 active torsions:
REMARK  status: ('A' for Active; 'I' for Inactive)
REMARK    1  A    between atoms: C_7  and  C_8 
REMARK       I    between atoms: C_8  and  N_9 
REMARK    2  A    between atoms: N_9  and  N_10 
REMARK    3  A    between atoms: N_10  and  C_11 
REMARK    4  A    between atoms: C_11  and  N_12 
REMARK    5  A    between atoms: N_12  and  C_13 
REMARK    6  A    between atoms: N_15  and  C_16 
REMARK    7  A    between atoms: C_16  and  C_17 
REMARK    8  A    between atoms: C_29  and  C_30 
ROOT
HETATM    1  C   UNL     1       5.656  26.965  53.590  1.00  0.00     0.290 C 
HETATM    2  N   UNL     1       4.524  27.041  54.378  1.00  0.00    -0.262 N 
HETATM    3  O   UNL     1       6.067  27.868  52.867  1.00  0.00    -0.264 OA
HETATM    4  H   UNL     1       4.321  26.267  55.011  1.00  0.00     0.190 HD
ENDROOT
BRANCH   2   5
HETATM    5  N   UNL     1       3.809  28.228  54.519  1.00  0.00    -0.273 N 
HETATM    6  H   UNL     1       2.949  28.341  53.969  1.00  0.00     0.189 HD
BRANCH   5   7
HETATM    7  C   UNL     1       4.028  29.072  55.574  1.00  0.00     0.192 C 
HETATM    8  S   UNL     1       3.665  30.712  55.574  1.00  0.00    -0.039 SA
BRANCH   7   9
HETATM    9  N   UNL     1       4.590  28.546  56.701  1.00  0.00    -0.315 N 
HETATM   10  H   UNL     1       3.978  27.973  57.264  1.00  0.00     0.170 HD
BRANCH   9  11
HETATM   11  C   UNL     1       5.856  28.770  57.197  1.00  0.00     0.151 A 
HETATM   12  N   UNL     1       6.330  29.967  57.554  1.00  0.00    -0.154 NA
HETATM   13  N   UNL     1       7.579  29.713  58.000  1.00  0.00    -0.275 N 
HETATM   14  C   UNL     1       7.914  28.391  57.926  1.00  0.00     0.116 A 
HETATM   15  C   UNL     1       6.816  27.753  57.403  1.00  0.00     0.071 A 
BRANCH  13  16
HETATM   16  C   UNL     1       8.446  30.806  58.419  1.00  0.00     0.192 C 
BRANCH  16  17
HETATM   17  C   UNL     1       8.268  31.130  59.875  1.00  0.00     0.000 A 
HETATM   18  C   UNL     1       7.325  32.079  60.277  1.00  0.00     0.124 A 
HETATM   19  F   UNL     1       6.569  32.696  59.358  1.00  0.00    -0.205 F 
HETATM   20  C   UNL     1       7.143  32.397  61.620  1.00  0.00     0.043 A 
HETATM   21  C   UNL     1       7.918  31.760  62.589  1.00  0.00     0.003 A 
HETATM   22  C   UNL     1       8.871  30.817  62.206  1.00  0.00     0.001 A 
HETATM   23  C   UNL     1       9.051  30.506  60.856  1.00  0.00     0.012 A 
ENDBRANCH  16  17
ENDBRANCH  13  16
ENDBRANCH   9  11
ENDBRANCH   7   9
ENDBRANCH   5   7
ENDBRANCH   2   5
BRANCH   1  24
HETATM   24  C   UNL     1       6.324  25.657  53.712  1.00  0.00     0.150 A 
HETATM   25  N   UNL     1       6.334  24.976  54.882  1.00  0.00    -0.165 NA
HETATM   26  N   UNL     1       7.028  23.864  54.595  1.00  0.00    -0.240 N 
HETATM   27  C   UNL     1       7.433  23.779  53.293  1.00  0.00     0.123 A 
HETATM   28  C   UNL     1       7.260  22.835  55.591  1.00  0.00     0.221 C 
HETATM   29  N   UNL     1       8.086  22.689  52.827  1.00  0.00    -0.371 N 
HETATM   30  C   UNL     1       7.009  24.937  52.694  1.00  0.00     0.089 A 
HETATM   31  C   UNL     1       8.553  21.653  53.745  1.00  0.00     0.081 C 
HETATM   32  H   UNL     1       8.559  22.734  51.925  1.00  0.00     0.161 HD
HETATM   33  C   UNL     1       8.715  20.341  52.984  1.00  0.00     0.032 C 
HETATM   34  C   UNL     1       7.542  21.491  54.893  1.00  0.00     0.061 C 
BRANCH  28  35
HETATM   35  C   UNL     1       8.384  23.250  56.514  1.00  0.00     0.409 C 
HETATM   36  F   UNL     1       8.005  24.185  57.411  1.00  0.00    -0.169 F 
HETATM   37  F   UNL     1       8.804  22.176  57.235  1.00  0.00    -0.169 F 
HETATM   38  F   UNL     1       9.466  23.721  55.858  1.00  0.00    -0.169 F 
ENDBRANCH  28  35
ENDBRANCH   1  24
TORSDOF 8
ENDMDL
MODEL 6
REMARK VINA RESULT:      -9.2      6.318     10.310
REMARK  8 active torsions:
REMARK  status: ('A' for Active; 'I' for Inactive)
REMARK    1  A    between atoms: C_7  and  C_8 
REMARK       I    between atoms: C_8  and  N_9 
REMARK    2  A    between atoms: N_9  and  N_10 
REMARK    3  A    between atoms: N_10  and  C_11 
REMARK    4  A    between atoms: C_11  and  N_12 
REMARK    5  A    between atoms: N_12  and  C_13 
REMARK    6  A    between atoms: N_15  and  C_16 
REMARK    7  A    between atoms: C_16  and  C_17 
REMARK    8  A    between atoms: C_29  and  C_30 
ROOT
HETATM    1  C   UNL     1       8.326  31.019  61.817  1.00  0.00     0.290 C 
HETATM    2  N   UNL     1       7.742  30.757  60.593  1.00  0.00    -0.262 N 
HETATM    3  O   UNL     1       9.388  30.539  62.202  1.00  0.00    -0.264 OA
HETATM    4  H   UNL     1       6.904  31.278  60.334  1.00  0.00     0.190 HD
ENDROOT
BRANCH   2   5
HETATM    5  N   UNL     1       8.394  30.008  59.616  1.00  0.00    -0.273 N 
HETATM    6  H   UNL     1       9.169  29.404  59.910  1.00  0.00     0.189 HD
BRANCH   5   7
HETATM    7  C   UNL     1       7.838  29.809  58.381  1.00  0.00     0.192 C 
HETATM    8  S   UNL     1       6.409  30.514  57.853  1.00  0.00    -0.039 SA
BRANCH   7   9
HETATM    9  N   UNL     1       8.487  28.969  57.522  1.00  0.00    -0.315 N 
HETATM   10  H   UNL     1       9.495  29.025  57.540  1.00  0.00     0.170 HD
BRANCH   9  11
HETATM   11  C   UNL     1       7.931  28.123  56.587  1.00  0.00     0.151 A 
HETATM   12  N   UNL     1       7.310  26.976  56.876  1.00  0.00    -0.154 NA
HETATM   13  N   UNL     1       6.910  26.501  55.677  1.00  0.00    -0.275 N 
HETATM   14  C   UNL     1       7.269  27.308  54.635  1.00  0.00     0.116 A 
HETATM   15  C   UNL     1       7.939  28.369  55.194  1.00  0.00     0.071 A 
BRANCH  13  16
HETATM   16  C   UNL     1       6.244  25.209  55.584  1.00  0.00     0.192 C 
BRANCH  16  17
HETATM   17  C   UNL     1       7.124  24.174  54.943  1.00  0.00     0.000 A 
HETATM   18  C   UNL     1       6.873  23.744  53.638  1.00  0.00     0.124 A 
HETATM   19  F   UNL     1       5.845  24.266  52.952  1.00  0.00    -0.205 F 
HETATM   20  C   UNL     1       7.674  22.785  53.023  1.00  0.00     0.043 A 
HETATM   21  C   UNL     1       8.749  22.238  53.721  1.00  0.00     0.003 A 
HETATM   22  C   UNL     1       9.010  22.648  55.029  1.00  0.00     0.001 A 
HETATM   23  C   UNL     1       8.199  23.607  55.641  1.00  0.00     0.012 A 
ENDBRANCH  16  17
ENDBRANCH  13  16
ENDBRANCH   9  11
ENDBRANCH   7   9
ENDBRANCH   5   7
ENDBRANCH   2   5
BRANCH   1  24
HETATM   24  C   UNL     1       7.516  31.948  62.624  1.00  0.00     0.150 A 
HETATM   25  N   UNL     1       6.210  32.169  62.349  1.00  0.00    -0.165 NA
HETATM   26  N   UNL     1       5.835  33.059  63.280  1.00  0.00    -0.240 N 
HETATM   27  C   UNL     1       6.824  33.394  64.163  1.00  0.00     0.123 A 
HETATM   28  C   UNL     1       4.475  33.558  63.352  1.00  0.00     0.221 C 
HETATM   29  N   UNL     1       6.590  34.229  65.201  1.00  0.00    -0.371 N 
HETATM   30  C   UNL     1       7.937  32.704  63.754  1.00  0.00     0.089 A 
HETATM   31  C   UNL     1       5.326  34.954  65.302  1.00  0.00     0.081 C 
HETATM   32  H   UNL     1       7.377  34.627  65.713  1.00  0.00     0.161 HD
HETATM   33  C   UNL     1       5.080  35.337  66.758  1.00  0.00     0.032 C 
HETATM   34  C   UNL     1       4.183  34.069  64.776  1.00  0.00     0.061 C 
BRANCH  28  35
HETATM   35  C   UNL     1       4.259  34.626  62.302  1.00  0.00     0.409 C 
HETATM   36  F   UNL     1       3.844  34.121  61.121  1.00  0.00    -0.169 F 
HETATM   37  F   UNL     1       3.286  35.483  62.715  1.00  0.00    -0.169 F 
HETATM   38  F   UNL     1       5.357  35.375  62.069  1.00  0.00    -0.169 F 
ENDBRANCH  28  35
ENDBRANCH   1  24
TORSDOF 8
ENDMDL
MODEL 7
REMARK VINA RESULT:      -9.2      6.458     10.465
REMARK  8 active torsions:
REMARK  status: ('A' for Active; 'I' for Inactive)
REMARK    1  A    between atoms: C_7  and  C_8 
REMARK       I    between atoms: C_8  and  N_9 
REMARK    2  A    between atoms: N_9  and  N_10 
REMARK    3  A    between atoms: N_10  and  C_11 
REMARK    4  A    between atoms: C_11  and  N_12 
REMARK    5  A    between atoms: N_12  and  C_13 
REMARK    6  A    between atoms: N_15  and  C_16 
REMARK    7  A    between atoms: C_16  and  C_17 
REMARK    8  A    between atoms: C_29  and  C_30 
ROOT
HETATM    1  C   UNL     1       7.869  31.198  61.507  1.00  0.00     0.290 C 
HETATM    2  N   UNL     1       7.482  30.785  60.248  1.00  0.00    -0.262 N 
HETATM    3  O   UNL     1       8.798  30.712  62.147  1.00  0.00    -0.264 OA
HETATM    4  H   UNL     1       6.756  31.315  59.765  1.00  0.00     0.190 HD
ENDROOT
BRANCH   2   5
HETATM    5  N   UNL     1       8.216  29.845  59.527  1.00  0.00    -0.273 N 
HETATM    6  H   UNL     1       7.865  28.881  59.497  1.00  0.00     0.189 HD
BRANCH   5   7
HETATM    7  C   UNL     1       9.168  30.226  58.620  1.00  0.00     0.192 C 
HETATM    8  S   UNL     1      10.033  31.663  58.694  1.00  0.00    -0.039 SA
BRANCH   7   9
HETATM    9  N   UNL     1       9.424  29.383  57.578  1.00  0.00    -0.315 N 
HETATM   10  H   UNL     1      10.336  29.483  57.154  1.00  0.00     0.170 HD
BRANCH   9  11
HETATM   11  C   UNL     1       8.566  28.479  56.991  1.00  0.00     0.151 A 
HETATM   12  N   UNL     1       8.220  27.304  57.526  1.00  0.00    -0.154 NA
HETATM   13  N   UNL     1       7.356  26.772  56.635  1.00  0.00    -0.275 N 
HETATM   14  C   UNL     1       7.152  27.571  55.546  1.00  0.00     0.116 A 
HETATM   15  C   UNL     1       7.930  28.685  55.746  1.00  0.00     0.071 A 
BRANCH  13  16
HETATM   16  C   UNL     1       6.809  25.440  56.849  1.00  0.00     0.192 C 
BRANCH  16  17
HETATM   17  C   UNL     1       7.388  24.439  55.890  1.00  0.00     0.000 A 
HETATM   18  C   UNL     1       8.621  23.838  56.156  1.00  0.00     0.124 A 
HETATM   19  F   UNL     1       9.284  24.150  57.279  1.00  0.00    -0.205 F 
HETATM   20  C   UNL     1       9.179  22.909  55.282  1.00  0.00     0.043 A 
HETATM   21  C   UNL     1       8.499  22.570  54.113  1.00  0.00     0.003 A 
HETATM   22  C   UNL     1       7.272  23.168  53.825  1.00  0.00     0.001 A 
HETATM   23  C   UNL     1       6.720  24.102  54.705  1.00  0.00     0.012 A 
ENDBRANCH  16  17
ENDBRANCH  13  16
ENDBRANCH   9  11
ENDBRANCH   7   9
ENDBRANCH   5   7
ENDBRANCH   2   5
BRANCH   1  24
HETATM   24  C   UNL     1       7.029  32.299  62.007  1.00  0.00     0.150 A 
HETATM   25  N   UNL     1       7.351  32.979  63.132  1.00  0.00    -0.165 NA
HETATM   26  N   UNL     1       6.362  33.877  63.255  1.00  0.00    -0.240 N 
HETATM   27  C   UNL     1       5.439  33.832  62.248  1.00  0.00     0.123 A 
HETATM   28  C   UNL     1       6.335  34.835  64.344  1.00  0.00     0.221 C 
HETATM   29  N   UNL     1       4.415  34.715  62.189  1.00  0.00    -0.371 N 
HETATM   30  C   UNL     1       5.831  32.805  61.429  1.00  0.00     0.089 A 
HETATM   31  C   UNL     1       4.148  35.619  63.306  1.00  0.00     0.081 C 
HETATM   32  H   UNL     1       3.632  34.535  61.562  1.00  0.00     0.161 HD
HETATM   33  C   UNL     1       3.378  36.834  62.797  1.00  0.00     0.032 C 
HETATM   34  C   UNL     1       5.479  36.052  63.945  1.00  0.00     0.061 C 
BRANCH  28  35
HETATM   35  C   UNL     1       5.835  34.170  65.608  1.00  0.00     0.409 C 
HETATM   36  F   UNL     1       6.830  33.627  66.342  1.00  0.00    -0.169 F 
HETATM   37  F   UNL     1       5.234  35.095  66.404  1.00  0.00    -0.169 F 
HETATM   38  F   UNL     1       4.918  33.206  65.377  1.00  0.00    -0.169 F 
ENDBRANCH  28  35
ENDBRANCH   1  24
TORSDOF 8
ENDMDL
MODEL 8
REMARK VINA RESULT:      -9.1      5.053      8.964
REMARK  8 active torsions:
REMARK  status: ('A' for Active; 'I' for Inactive)
REMARK    1  A    between atoms: C_7  and  C_8 
REMARK       I    between atoms: C_8  and  N_9 
REMARK    2  A    between atoms: N_9  and  N_10 
REMARK    3  A    between atoms: N_10  and  C_11 
REMARK    4  A    between atoms: C_11  and  N_12 
REMARK    5  A    between atoms: N_12  and  C_13 
REMARK    6  A    between atoms: N_15  and  C_16 
REMARK    7  A    between atoms: C_16  and  C_17 
REMARK    8  A    between atoms: C_29  and  C_30 
ROOT
HETATM    1  C   UNL     1       4.023  31.802  58.895  1.00  0.00     0.290 C 
HETATM    2  N   UNL     1       4.831  30.792  58.411  1.00  0.00    -0.262 N 
HETATM    3  O   UNL     1       3.088  32.307  58.279  1.00  0.00    -0.264 OA
HETATM    4  H   UNL     1       5.522  30.380  59.039  1.00  0.00     0.190 HD
ENDROOT
BRANCH   2   5
HETATM    5  N   UNL     1       4.562  30.156  57.201  1.00  0.00    -0.273 N 
HETATM    6  H   UNL     1       3.735  29.551  57.148  1.00  0.00     0.189 HD
BRANCH   5   7
HETATM    7  C   UNL     1       5.153  30.563  56.035  1.00  0.00     0.192 C 
HETATM    8  S   UNL     1       4.710  31.932  55.169  1.00  0.00    -0.039 SA
BRANCH   7   9
HETATM    9  N   UNL     1       6.165  29.796  55.536  1.00  0.00    -0.315 N 
HETATM   10  H   UNL     1       6.607  30.151  54.700  1.00  0.00     0.170 HD
BRANCH   9  11
HETATM   11  C   UNL     1       6.596  28.567  55.987  1.00  0.00     0.151 A 
HETATM   12  N   UNL     1       5.941  27.417  55.799  1.00  0.00    -0.154 NA
HETATM   13  N   UNL     1       6.730  26.486  56.376  1.00  0.00    -0.275 N 
HETATM   14  C   UNL     1       7.860  27.012  56.934  1.00  0.00     0.116 A 
HETATM   15  C   UNL     1       7.799  28.364  56.702  1.00  0.00     0.071 A 
BRANCH  13  16
HETATM   16  C   UNL     1       6.303  25.094  56.429  1.00  0.00     0.192 C 
BRANCH  16  17
HETATM   17  C   UNL     1       7.000  24.257  55.395  1.00  0.00     0.000 A 
HETATM   18  C   UNL     1       6.519  24.209  54.084  1.00  0.00     0.124 A 
HETATM   19  F   UNL     1       5.433  24.921  53.748  1.00  0.00    -0.205 F 
HETATM   20  C   UNL     1       7.146  23.440  53.108  1.00  0.00     0.043 A 
HETATM   21  C   UNL     1       8.279  22.699  53.441  1.00  0.00     0.003 A 
HETATM   22  C   UNL     1       8.769  22.727  54.747  1.00  0.00     0.001 A 
HETATM   23  C   UNL     1       8.131  23.498  55.722  1.00  0.00     0.012 A 
ENDBRANCH  16  17
ENDBRANCH  13  16
ENDBRANCH   9  11
ENDBRANCH   7   9
ENDBRANCH   5   7
ENDBRANCH   2   5
BRANCH   1  24
HETATM   24  C   UNL     1       4.416  32.217  60.253  1.00  0.00     0.150 A 
HETATM   25  N   UNL     1       5.651  32.706  60.512  1.00  0.00    -0.165 NA
HETATM   26  N   UNL     1       5.623  32.958  61.830  1.00  0.00    -0.240 N 
HETATM   27  C   UNL     1       4.422  32.689  62.424  1.00  0.00     0.123 A 
HETATM   28  C   UNL     1       6.767  33.521  62.521  1.00  0.00     0.221 C 
HETATM   29  N   UNL     1       4.209  32.949  63.735  1.00  0.00    -0.371 N 
HETATM   30  C   UNL     1       3.620  32.187  61.432  1.00  0.00     0.089 A 
HETATM   31  C   UNL     1       5.316  33.344  64.604  1.00  0.00     0.081 C 
HETATM   32  H   UNL     1       3.394  32.551  64.200  1.00  0.00     0.161 HD
HETATM   33  C   UNL     1       4.766  34.108  65.805  1.00  0.00     0.032 C 
HETATM   34  C   UNL     1       6.303  34.220  63.812  1.00  0.00     0.061 C 
BRANCH  28  35
HETATM   35  C   UNL     1       7.794  32.442  62.789  1.00  0.00     0.409 C 
HETATM   36  F   UNL     1       7.287  31.196  62.666  1.00  0.00    -0.169 F 
HETATM   37  F   UNL     1       8.803  32.536  61.882  1.00  0.00    -0.169 F 
HETATM   38  F   UNL     1       8.363  32.538  64.009  1.00  0.00    -0.169 F 
ENDBRANCH  28  35
ENDBRANCH   1  24
TORSDOF 8
ENDMDL
MODEL 9
REMARK VINA RESULT:      -9.1      7.953     11.468
REMARK  8 active torsions:
REMARK  status: ('A' for Active; 'I' for Inactive)
REMARK    1  A    between atoms: C_7  and  C_8 
REMARK       I    between atoms: C_8  and  N_9 
REMARK    2  A    between atoms: N_9  and  N_10 
REMARK    3  A    between atoms: N_10  and  C_11 
REMARK    4  A    between atoms: C_11  and  N_12 
REMARK    5  A    between atoms: N_12  and  C_13 
REMARK    6  A    between atoms: N_15  and  C_16 
REMARK    7  A    between atoms: C_16  and  C_17 
REMARK    8  A    between atoms: C_29  and  C_30 
ROOT
HETATM    1  C   UNL     1       6.137  32.194  62.766  1.00  0.00     0.290 C 
HETATM    2  N   UNL     1       7.323  31.511  62.582  1.00  0.00    -0.262 N 
HETATM    3  O   UNL     1       5.225  32.246  61.945  1.00  0.00    -0.264 OA
HETATM    4  H   UNL     1       7.978  31.455  63.362  1.00  0.00     0.190 HD
ENDROOT
BRANCH   2   5
HETATM    5  N   UNL     1       7.533  30.695  61.472  1.00  0.00    -0.273 N 
HETATM    6  H   UNL     1       7.131  29.751  61.486  1.00  0.00     0.189 HD
BRANCH   5   7
HETATM    7  C   UNL     1       7.955  31.211  60.276  1.00  0.00     0.192 C 
HETATM    8  S   UNL     1       9.345  32.131  60.073  1.00  0.00    -0.039 SA
BRANCH   7   9
HETATM    9  N   UNL     1       7.187  30.969  59.175  1.00  0.00    -0.315 N 
HETATM   10  H   UNL     1       6.299  31.450  59.151  1.00  0.00     0.170 HD
BRANCH   9  11
HETATM   11  C   UNL     1       7.443  30.092  58.142  1.00  0.00     0.151 A 
HETATM   12  N   UNL     1       6.558  29.751  57.200  1.00  0.00    -0.154 NA
HETATM   13  N   UNL     1       7.237  28.906  56.395  1.00  0.00    -0.275 N 
HETATM   14  C   UNL     1       8.522  28.692  56.805  1.00  0.00     0.116 A 
HETATM   15  C   UNL     1       8.684  29.445  57.943  1.00  0.00     0.071 A 
BRANCH  13  16
HETATM   16  C   UNL     1       6.566  28.264  55.273  1.00  0.00     0.192 C 
BRANCH  16  17
HETATM   17  C   UNL     1       6.740  26.772  55.300  1.00  0.00     0.000 A 
HETATM   18  C   UNL     1       7.457  26.126  54.291  1.00  0.00     0.124 A 
HETATM   19  F   UNL     1       8.001  26.844  53.297  1.00  0.00    -0.205 F 
HETATM   20  C   UNL     1       7.630  24.744  54.294  1.00  0.00     0.043 A 
HETATM   21  C   UNL     1       7.076  23.984  55.323  1.00  0.00     0.003 A 
HETATM   22  C   UNL     1       6.348  24.611  56.334  1.00  0.00     0.001 A 
HETATM   23  C   UNL     1       6.175  25.997  56.323  1.00  0.00     0.012 A 
ENDBRANCH  16  17
ENDBRANCH  13  16
ENDBRANCH   9  11
ENDBRANCH   7   9
ENDBRANCH   5   7
ENDBRANCH   2   5
BRANCH   1  24
HETATM   24  C   UNL     1       6.089  32.868  64.075  1.00  0.00     0.150 A 
HETATM   25  N   UNL     1       4.923  33.040  64.738  1.00  0.00    -0.165 NA
HETATM   26  N   UNL     1       5.286  33.684  65.858  1.00  0.00    -0.240 N 
HETATM   27  C   UNL     1       6.631  33.903  65.964  1.00  0.00     0.123 A 
HETATM   28  C   UNL     1       4.317  34.049  66.874  1.00  0.00     0.221 C 
HETATM   29  N   UNL     1       7.166  34.482  67.064  1.00  0.00    -0.371 N 
HETATM   30  C   UNL     1       7.182  33.403  64.813  1.00  0.00     0.089 A 
HETATM   31  C   UNL     1       6.306  35.070  68.089  1.00  0.00     0.081 C 
HETATM   32  H   UNL     1       8.126  34.825  67.034  1.00  0.00     0.161 HD
HETATM   33  C   UNL     1       7.063  35.120  69.413  1.00  0.00     0.032 C 
HETATM   34  C   UNL     1       5.026  34.228  68.230  1.00  0.00     0.061 C 
BRANCH  28  35
HETATM   35  C   UNL     1       3.566  35.292  66.450  1.00  0.00     0.409 C 
HETATM   36  F   UNL     1       2.284  35.299  66.876  1.00  0.00    -0.169 F 
HETATM   37  F   UNL     1       4.156  36.390  66.994  1.00  0.00    -0.169 F 
HETATM   38  F   UNL     1       3.558  35.481  65.114  1.00  0.00    -0.169 F 
ENDBRANCH  28  35
ENDBRANCH   1  24
TORSDOF 8
ENDMDL
MODEL 10
REMARK VINA RESULT:      -9.0      5.803      9.694
REMARK  8 active torsions:
REMARK  status: ('A' for Active; 'I' for Inactive)
REMARK    1  A    between atoms: C_7  and  C_8 
REMARK       I    between atoms: C_8  and  N_9 
REMARK    2  A    between atoms: N_9  and  N_10 
REMARK    3  A    between atoms: N_10  and  C_11 
REMARK    4  A    between atoms: C_11  and  N_12 
REMARK    5  A    between atoms: N_12  and  C_13 
REMARK    6  A    between atoms: N_15  and  C_16 
REMARK    7  A    between atoms: C_16  and  C_17 
REMARK    8  A    between atoms: C_29  and  C_30 
ROOT
HETATM    1  C   UNL     1       6.595  31.729  59.011  1.00  0.00     0.290 C 
HETATM    2  N   UNL     1       7.200  30.487  59.026  1.00  0.00    -0.262 N 
HETATM    3  O   UNL     1       6.217  32.310  57.998  1.00  0.00    -0.264 OA
HETATM    4  H   UNL     1       7.393  30.052  59.928  1.00  0.00     0.190 HD
ENDROOT
BRANCH   2   5
HETATM    5  N   UNL     1       7.315  29.715  57.872  1.00  0.00    -0.273 N 
HETATM    6  H   UNL     1       6.456  29.338  57.457  1.00  0.00     0.189 HD
BRANCH   5   7
HETATM    7  C   UNL     1       8.458  29.725  57.118  1.00  0.00     0.192 C 
HETATM    8  S   UNL     1       9.987  30.090  57.710  1.00  0.00    -0.039 SA
BRANCH   7   9
HETATM    9  N   UNL     1       8.345  29.426  55.792  1.00  0.00    -0.315 N 
HETATM   10  H   UNL     1       8.630  30.159  55.156  1.00  0.00     0.170 HD
BRANCH   9  11
HETATM   11  C   UNL     1       7.818  28.287  55.223  1.00  0.00     0.151 A 
HETATM   12  N   UNL     1       7.392  27.223  55.912  1.00  0.00    -0.154 NA
HETATM   13  N   UNL     1       6.940  26.372  54.965  1.00  0.00    -0.275 N 
HETATM   14  C   UNL     1       7.078  26.860  53.697  1.00  0.00     0.116 A 
HETATM   15  C   UNL     1       7.652  28.101  53.831  1.00  0.00     0.071 A 
BRANCH  13  16
HETATM   16  C   UNL     1       6.451  25.052  55.339  1.00  0.00     0.192 C 
BRANCH  16  17
HETATM   17  C   UNL     1       7.335  23.960  54.807  1.00  0.00     0.000 A 
HETATM   18  C   UNL     1       7.093  23.407  53.547  1.00  0.00     0.124 A 
HETATM   19  F   UNL     1       6.072  23.862  52.806  1.00  0.00    -0.205 F 
HETATM   20  C   UNL     1       7.897  22.393  53.033  1.00  0.00     0.043 A 
HETATM   21  C   UNL     1       8.966  21.914  53.789  1.00  0.00     0.003 A 
HETATM   22  C   UNL     1       9.217  22.447  55.054  1.00  0.00     0.001 A 
HETATM   23  C   UNL     1       8.403  23.461  55.564  1.00  0.00     0.012 A 
ENDBRANCH  16  17
ENDBRANCH  13  16
ENDBRANCH   9  11
ENDBRANCH   7   9
ENDBRANCH   5   7
ENDBRANCH   2   5
BRANCH   1  24
HETATM   24  C   UNL     1       6.456  32.288  60.367  1.00  0.00     0.150 A 
HETATM   25  N   UNL     1       5.249  32.640  60.865  1.00  0.00    -0.165 NA
HETATM   26  N   UNL     1       5.534  33.102  62.093  1.00  0.00    -0.240 N 
HETATM   27  C   UNL     1       6.859  33.031  62.421  1.00  0.00     0.123 A 
HETATM   28  C   UNL     1       4.495  33.573  62.989  1.00  0.00     0.221 C 
HETATM   29  N   UNL     1       7.302  33.396  63.647  1.00  0.00    -0.371 N 
HETATM   30  C   UNL     1       7.491  32.525  61.315  1.00  0.00     0.089 A 
HETATM   31  C   UNL     1       6.409  34.061  64.593  1.00  0.00     0.081 C 
HETATM   32  H   UNL     1       8.300  33.536  63.799  1.00  0.00     0.161 HD
HETATM   33  C   UNL     1       6.928  33.846  66.012  1.00  0.00     0.032 C 
HETATM   34  C   UNL     1       4.988  33.490  64.446  1.00  0.00     0.061 C 
BRANCH  28  35
HETATM   35  C   UNL     1       4.074  34.974  62.603  1.00  0.00     0.409 C 
HETATM   36  F   UNL     1       5.063  35.671  62.003  1.00  0.00    -0.169 F 
HETATM   37  F   UNL     1       3.052  34.914  61.708  1.00  0.00    -0.169 F 
HETATM   38  F   UNL     1       3.629  35.704  63.648  1.00  0.00    -0.169 F 
ENDBRANCH  28  35
ENDBRANCH   1  24
TORSDOF 8
ENDMDL
