MODEL 1
REMARK VINA RESULT:      -7.7      0.000      0.000
REMARK  5 active torsions:
REMARK  status: ('A' for Active; 'I' for Inactive)
REMARK    1  A    between atoms: C_2  and  N_3 
REMARK    2  A    between atoms: N_3  and  C_5 
REMARK    3  A    between atoms: N_3  and  C_21 
REMARK    4  A    between atoms: C_8  and  N_9 
REMARK       I    between atoms: N_9  and  C_10 
REMARK    5  A    between atoms: C_10  and  C_11 
ROOT
HETATM    1  C   UNL     1       7.496  30.002  58.012  1.00  0.00     0.134 A 
HETATM    2  C   UNL     1       6.320  29.505  57.453  1.00  0.00     0.039 A 
HETATM    3  C   UNL     1       6.345  28.326  56.697  1.00  0.00     0.032 A 
HETATM    4  C   UNL     1       7.539  27.637  56.478  1.00  0.00     0.035 A 
HETATM    5  C   UNL     1       8.718  28.152  57.031  1.00  0.00     0.032 A 
HETATM    6  C   UNL     1       8.699  29.325  57.797  1.00  0.00     0.039 A 
ENDROOT
BRANCH   4   7
HETATM    7  N   UNL     1       7.640  26.440  55.735  1.00  0.00    -0.323 N 
HETATM    8  C   UNL     1       7.309  25.164  56.166  1.00  0.00     0.257 C 
HETATM    9  O   UNL     1       6.828  24.881  57.258  1.00  0.00    -0.267 OA
HETATM   10  H   UNL     1       7.950  26.541  54.779  1.00  0.00     0.169 HD
BRANCH   8  11
HETATM   11  C   UNL     1       7.544  24.058  55.200  1.00  0.00     0.050 A 
HETATM   12  C   UNL     1       7.553  22.752  55.682  1.00  0.00     0.135 A 
HETATM   13  N   UNL     1       7.754  21.655  54.909  1.00  0.00    -0.248 NA
HETATM   14  C   UNL     1       7.974  21.875  53.599  1.00  0.00     0.125 A 
HETATM   15 CL   UNL     1       8.229  20.465  52.662  1.00  0.00    -0.063 Cl
HETATM   16  C   UNL     1       8.004  23.132  53.018  1.00  0.00     0.045 A 
HETATM   17  C   UNL     1       7.790  24.246  53.836  1.00  0.00     0.022 A 
ENDBRANCH   8  11
ENDBRANCH   4   7
BRANCH   1  18
HETATM   18  N   UNL     1       7.517  31.229  58.841  1.00  0.00    -0.042 N 
HETATM   19  H   UNL     1       8.167  31.863  58.360  1.00  0.00     0.286 HD
BRANCH  18  20
HETATM   20  C   UNL     1       8.128  31.047  60.213  1.00  0.00     0.237 C 
HETATM   21  C   UNL     1       9.369  31.907  60.378  1.00  0.00     0.035 C 
ENDBRANCH  18  20
BRANCH  18  22
HETATM   22  C   UNL     1       6.192  31.957  58.815  1.00  0.00     0.237 C 
HETATM   23  C   UNL     1       5.730  32.450  60.173  1.00  0.00     0.035 C 
ENDBRANCH  18  22
ENDBRANCH   1  18
TORSDOF 5
ENDMDL
MODEL 2
REMARK VINA RESULT:      -7.6      5.927      8.220
REMARK  5 active torsions:
REMARK  status: ('A' for Active; 'I' for Inactive)
REMARK    1  A    between atoms: C_2  and  N_3 
REMARK    2  A    between atoms: N_3  and  C_5 
REMARK    3  A    between atoms: N_3  and  C_21 
REMARK    4  A    between atoms: C_8  and  N_9 
REMARK       I    between atoms: N_9  and  C_10 
REMARK    5  A    between atoms: C_10  and  C_11 
ROOT
HETATM    1  C   UNL     1       7.202  24.758  54.164  1.00  0.00     0.134 A 
HETATM    2  C   UNL     1       7.777  24.880  52.900  1.00  0.00     0.039 A 
HETATM    3  C   UNL     1       6.976  25.159  51.787  1.00  0.00     0.032 A 
HETATM    4  C   UNL     1       5.594  25.308  51.914  1.00  0.00     0.035 A 
HETATM    5  C   UNL     1       5.022  25.168  53.185  1.00  0.00     0.032 A 
HETATM    6  C   UNL     1       5.819  24.899  54.305  1.00  0.00     0.039 A 
ENDROOT
BRANCH   4   7
HETATM    7  N   UNL     1       4.724  25.598  50.840  1.00  0.00    -0.323 N 
HETATM    8  C   UNL     1       4.725  26.743  50.056  1.00  0.00     0.257 C 
HETATM    9  O   UNL     1       5.521  27.671  50.148  1.00  0.00    -0.267 OA
HETATM   10  H   UNL     1       4.062  24.873  50.602  1.00  0.00     0.169 HD
BRANCH   8  11
HETATM   11  C   UNL     1       3.676  26.825  49.005  1.00  0.00     0.050 A 
HETATM   12  C   UNL     1       2.764  27.875  49.064  1.00  0.00     0.135 A 
HETATM   13  N   UNL     1       1.763  28.066  48.169  1.00  0.00    -0.248 NA
HETATM   14  C   UNL     1       1.656  27.156  47.183  1.00  0.00     0.125 A 
HETATM   15 CL   UNL     1       0.375  27.431  46.080  1.00  0.00    -0.063 Cl
HETATM   16  C   UNL     1       2.496  26.064  47.041  1.00  0.00     0.045 A 
HETATM   17  C   UNL     1       3.523  25.892  47.974  1.00  0.00     0.022 A 
ENDBRANCH   8  11
ENDBRANCH   4   7
BRANCH   1  18
HETATM   18  N   UNL     1       8.010  24.490  55.376  1.00  0.00    -0.042 N 
HETATM   19  H   UNL     1       8.725  25.228  55.386  1.00  0.00     0.286 HD
BRANCH  18  20
HETATM   20  C   UNL     1       8.806  23.205  55.326  1.00  0.00     0.237 C 
HETATM   21  C   UNL     1       7.890  21.993  55.322  1.00  0.00     0.035 C 
ENDBRANCH  18  20
BRANCH  18  22
HETATM   22  C   UNL     1       7.221  24.714  56.646  1.00  0.00     0.237 C 
HETATM   23  C   UNL     1       7.679  25.913  57.454  1.00  0.00     0.035 C 
ENDBRANCH  18  22
ENDBRANCH   1  18
TORSDOF 5
ENDMDL
MODEL 3
REMARK VINA RESULT:      -7.4      3.667      8.775
REMARK  5 active torsions:
REMARK  status: ('A' for Active; 'I' for Inactive)
REMARK    1  A    between atoms: C_2  and  N_3 
REMARK    2  A    between atoms: N_3  and  C_5 
REMARK    3  A    between atoms: N_3  and  C_21 
REMARK    4  A    between atoms: C_8  and  N_9 
REMARK       I    between atoms: N_9  and  C_10 
REMARK    5  A    between atoms: C_10  and  C_11 
ROOT
HETATM    1  C   UNL     1       8.270  23.763  55.549  1.00  0.00     0.134 A 
HETATM    2  C   UNL     1       7.648  24.774  54.819  1.00  0.00     0.039 A 
HETATM    3  C   UNL     1       7.364  26.005  55.424  1.00  0.00     0.032 A 
HETATM    4  C   UNL     1       7.684  26.239  56.763  1.00  0.00     0.035 A 
HETATM    5  C   UNL     1       8.296  25.212  57.492  1.00  0.00     0.032 A 
HETATM    6  C   UNL     1       8.591  23.982  56.891  1.00  0.00     0.039 A 
ENDROOT
BRANCH   4   7
HETATM    7  N   UNL     1       7.437  27.456  57.436  1.00  0.00    -0.323 N 
HETATM    8  C   UNL     1       8.314  28.522  57.577  1.00  0.00     0.257 C 
HETATM    9  O   UNL     1       9.438  28.590  57.092  1.00  0.00    -0.267 OA
HETATM   10  H   UNL     1       6.508  27.566  57.818  1.00  0.00     0.169 HD
BRANCH   8  11
HETATM   11  C   UNL     1       7.824  29.681  58.369  1.00  0.00     0.050 A 
HETATM   12  C   UNL     1       6.669  30.331  57.941  1.00  0.00     0.135 A 
HETATM   13  N   UNL     1       6.117  31.397  58.571  1.00  0.00    -0.248 NA
HETATM   14  C   UNL     1       6.758  31.846  59.668  1.00  0.00     0.125 A 
HETATM   15 CL   UNL     1       6.030  33.197  60.428  1.00  0.00    -0.063 Cl
HETATM   16  C   UNL     1       7.921  31.287  60.168  1.00  0.00     0.045 A 
HETATM   17  C   UNL     1       8.468  30.186  59.503  1.00  0.00     0.022 A 
ENDBRANCH   8  11
ENDBRANCH   4   7
BRANCH   1  18
HETATM   18  N   UNL     1       8.615  22.455  54.947  1.00  0.00    -0.042 N 
HETATM   19  H   UNL     1       9.628  22.354  55.095  1.00  0.00     0.286 HD
BRANCH  18  20
HETATM   20  C   UNL     1       8.455  22.394  53.445  1.00  0.00     0.237 C 
HETATM   21  C   UNL     1       8.021  21.009  52.995  1.00  0.00     0.035 C 
ENDBRANCH  18  20
BRANCH  18  22
HETATM   22  C   UNL     1       8.007  21.299  55.710  1.00  0.00     0.237 C 
HETATM   23  C   UNL     1       9.026  20.392  56.374  1.00  0.00     0.035 C 
ENDBRANCH  18  22
ENDBRANCH   1  18
TORSDOF 5
ENDMDL
MODEL 4
REMARK VINA RESULT:      -7.3      4.261      8.815
REMARK  5 active torsions:
REMARK  status: ('A' for Active; 'I' for Inactive)
REMARK    1  A    between atoms: C_2  and  N_3 
REMARK    2  A    between atoms: N_3  and  C_5 
REMARK    3  A    between atoms: N_3  and  C_21 
REMARK    4  A    between atoms: C_8  and  N_9 
REMARK       I    between atoms: N_9  and  C_10 
REMARK    5  A    between atoms: C_10  and  C_11 
ROOT
HETATM    1  C   UNL     1       7.435  26.621  55.044  1.00  0.00     0.134 A 
HETATM    2  C   UNL     1       7.290  27.986  54.807  1.00  0.00     0.039 A 
HETATM    3  C   UNL     1       7.296  28.890  55.876  1.00  0.00     0.032 A 
HETATM    4  C   UNL     1       7.434  28.446  57.193  1.00  0.00     0.035 A 
HETATM    5  C   UNL     1       7.564  27.071  57.423  1.00  0.00     0.032 A 
HETATM    6  C   UNL     1       7.568  26.162  56.357  1.00  0.00     0.039 A 
ENDROOT
BRANCH   4   7
HETATM    7  N   UNL     1       7.458  29.299  58.319  1.00  0.00    -0.323 N 
HETATM    8  C   UNL     1       8.515  30.092  58.738  1.00  0.00     0.257 C 
HETATM    9  O   UNL     1       9.591  30.212  58.161  1.00  0.00    -0.267 OA
HETATM   10  H   UNL     1       6.597  29.357  58.844  1.00  0.00     0.169 HD
BRANCH   8  11
HETATM   11  C   UNL     1       8.301  30.874  59.985  1.00  0.00     0.050 A 
HETATM   12  C   UNL     1       8.996  30.493  61.130  1.00  0.00     0.135 A 
HETATM   13  N   UNL     1       8.893  31.121  62.328  1.00  0.00    -0.248 NA
HETATM   14  C   UNL     1       8.043  32.164  62.389  1.00  0.00     0.125 A 
HETATM   15 CL   UNL     1       7.939  32.922  63.922  1.00  0.00    -0.063 Cl
HETATM   16  C   UNL     1       7.290  32.614  61.318  1.00  0.00     0.045 A 
HETATM   17  C   UNL     1       7.417  31.953  60.093  1.00  0.00     0.022 A 
ENDBRANCH   8  11
ENDBRANCH   4   7
BRANCH   1  18
HETATM   18  N   UNL     1       7.461  25.628  53.946  1.00  0.00    -0.042 N 
HETATM   19  H   UNL     1       8.301  25.860  53.399  1.00  0.00     0.286 HD
BRANCH  18  20
HETATM   20  C   UNL     1       6.327  25.761  52.954  1.00  0.00     0.237 C 
HETATM   21  C   UNL     1       5.027  25.229  53.534  1.00  0.00     0.035 C 
ENDBRANCH  18  20
BRANCH  18  22
HETATM   22  C   UNL     1       7.718  24.226  54.451  1.00  0.00     0.237 C 
HETATM   23  C   UNL     1       8.178  23.257  53.379  1.00  0.00     0.035 C 
ENDBRANCH  18  22
ENDBRANCH   1  18
TORSDOF 5
ENDMDL
MODEL 5
REMARK VINA RESULT:      -7.2      5.741      8.174
REMARK  5 active torsions:
REMARK  status: ('A' for Active; 'I' for Inactive)
REMARK    1  A    between atoms: C_2  and  N_3 
REMARK    2  A    between atoms: N_3  and  C_5 
REMARK    3  A    between atoms: N_3  and  C_21 
REMARK    4  A    between atoms: C_8  and  N_9 
REMARK       I    between atoms: N_9  and  C_10 
REMARK    5  A    between atoms: C_10  and  C_11 
ROOT
HETATM    1  C   UNL     1       7.742  23.687  54.426  1.00  0.00     0.134 A 
HETATM    2  C   UNL     1       6.513  24.204  54.832  1.00  0.00     0.039 A 
HETATM    3  C   UNL     1       5.685  24.855  53.909  1.00  0.00     0.032 A 
HETATM    4  C   UNL     1       6.075  25.011  52.578  1.00  0.00     0.035 A 
HETATM    5  C   UNL     1       7.318  24.503  52.182  1.00  0.00     0.032 A 
HETATM    6  C   UNL     1       8.147  23.842  53.098  1.00  0.00     0.039 A 
ENDROOT
BRANCH   4   7
HETATM    7  N   UNL     1       5.290  25.648  51.591  1.00  0.00    -0.323 N 
HETATM    8  C   UNL     1       5.167  27.012  51.378  1.00  0.00     0.257 C 
HETATM    9  O   UNL     1       5.766  27.888  51.994  1.00  0.00    -0.267 OA
HETATM   10  H   UNL     1       4.801  25.033  50.955  1.00  0.00     0.169 HD
BRANCH   8  11
HETATM   11  C   UNL     1       4.242  27.432  50.292  1.00  0.00     0.050 A 
HETATM   12  C   UNL     1       4.156  26.634  49.154  1.00  0.00     0.135 A 
HETATM   13  N   UNL     1       3.352  26.902  48.095  1.00  0.00    -0.248 NA
HETATM   14  C   UNL     1       2.616  28.027  48.167  1.00  0.00     0.125 A 
HETATM   15 CL   UNL     1       1.621  28.329  46.806  1.00  0.00    -0.063 Cl
HETATM   16  C   UNL     1       2.639  28.900  49.242  1.00  0.00     0.045 A 
HETATM   17  C   UNL     1       3.472  28.600  50.323  1.00  0.00     0.022 A 
ENDBRANCH   8  11
ENDBRANCH   4   7
BRANCH   1  18
HETATM   18  N   UNL     1       8.641  22.967  55.357  1.00  0.00    -0.042 N 
HETATM   19  H   UNL     1       9.569  23.381  55.202  1.00  0.00     0.286 HD
BRANCH  18  20
HETATM   20  C   UNL     1       8.832  21.502  55.035  1.00  0.00     0.237 C 
HETATM   21  C   UNL     1       7.982  20.626  55.941  1.00  0.00     0.035 C 
ENDBRANCH  18  20
BRANCH  18  22
HETATM   22  C   UNL     1       8.328  23.277  56.804  1.00  0.00     0.237 C 
HETATM   23  C   UNL     1       9.108  24.448  57.368  1.00  0.00     0.035 C 
ENDBRANCH  18  22
ENDBRANCH   1  18
TORSDOF 5
ENDMDL
MODEL 6
REMARK VINA RESULT:      -7.1      5.644      7.089
REMARK  5 active torsions:
REMARK  status: ('A' for Active; 'I' for Inactive)
REMARK    1  A    between atoms: C_2  and  N_3 
REMARK    2  A    between atoms: N_3  and  C_5 
REMARK    3  A    between atoms: N_3  and  C_21 
REMARK    4  A    between atoms: C_8  and  N_9 
REMARK       I    between atoms: N_9  and  C_10 
REMARK    5  A    between atoms: C_10  and  C_11 
ROOT
HETATM    1  C   UNL     1       4.202  28.204  50.522  1.00  0.00     0.134 A 
HETATM    2  C   UNL     1       4.303  28.290  51.909  1.00  0.00     0.039 A 
HETATM    3  C   UNL     1       4.828  27.219  52.643  1.00  0.00     0.032 A 
HETATM    4  C   UNL     1       5.245  26.048  52.008  1.00  0.00     0.035 A 
HETATM    5  C   UNL     1       5.125  25.964  50.616  1.00  0.00     0.032 A 
HETATM    6  C   UNL     1       4.610  27.036  49.874  1.00  0.00     0.039 A 
ENDROOT
BRANCH   4   7
HETATM    7  N   UNL     1       5.792  24.933  52.681  1.00  0.00    -0.323 N 
HETATM    8  C   UNL     1       7.127  24.560  52.725  1.00  0.00     0.257 C 
HETATM    9  O   UNL     1       8.057  25.177  52.217  1.00  0.00    -0.267 OA
HETATM   10  H   UNL     1       5.137  24.377  53.214  1.00  0.00     0.169 HD
BRANCH   8  11
HETATM   11  C   UNL     1       7.441  23.315  53.475  1.00  0.00     0.050 A 
HETATM   12  C   UNL     1       7.302  23.326  54.860  1.00  0.00     0.135 A 
HETATM   13  N   UNL     1       7.554  22.260  55.660  1.00  0.00    -0.248 NA
HETATM   14  C   UNL     1       7.983  21.139  55.050  1.00  0.00     0.125 A 
HETATM   15 CL   UNL     1       8.296  19.820  56.098  1.00  0.00    -0.063 Cl
HETATM   16  C   UNL     1       8.175  21.024  53.683  1.00  0.00     0.045 A 
HETATM   17  C   UNL     1       7.904  22.136  52.880  1.00  0.00     0.022 A 
ENDBRANCH   8  11
ENDBRANCH   4   7
BRANCH   1  18
HETATM   18  N   UNL     1       3.679  29.319  49.699  1.00  0.00    -0.042 N 
HETATM   19  H   UNL     1       3.471  30.069  50.371  1.00  0.00     0.286 HD
BRANCH  18  20
HETATM   20  C   UNL     1       2.349  29.039  49.036  1.00  0.00     0.237 C 
HETATM   21  C   UNL     1       1.239  29.867  49.662  1.00  0.00     0.035 C 
ENDBRANCH  18  20
BRANCH  18  22
HETATM   22  C   UNL     1       4.741  29.907  48.797  1.00  0.00     0.237 C 
HETATM   23  C   UNL     1       5.859  30.615  49.538  1.00  0.00     0.035 C 
ENDBRANCH  18  22
ENDBRANCH   1  18
TORSDOF 5
ENDMDL
MODEL 7
REMARK VINA RESULT:      -7.0      6.568      9.040
REMARK  5 active torsions:
REMARK  status: ('A' for Active; 'I' for Inactive)
REMARK    1  A    between atoms: C_2  and  N_3 
REMARK    2  A    between atoms: N_3  and  C_5 
REMARK    3  A    between atoms: N_3  and  C_21 
REMARK    4  A    between atoms: C_8  and  N_9 
REMARK       I    between atoms: N_9  and  C_10 
REMARK    5  A    between atoms: C_10  and  C_11 
ROOT
HETATM    1  C   UNL     1       7.268  23.492  53.652  1.00  0.00     0.134 A 
HETATM    2  C   UNL     1       7.999  23.948  52.557  1.00  0.00     0.039 A 
HETATM    3  C   UNL     1       7.590  25.097  51.867  1.00  0.00     0.032 A 
HETATM    4  C   UNL     1       6.445  25.797  52.251  1.00  0.00     0.035 A 
HETATM    5  C   UNL     1       5.708  25.322  53.343  1.00  0.00     0.032 A 
HETATM    6  C   UNL     1       6.116  24.180  54.043  1.00  0.00     0.039 A 
ENDROOT
BRANCH   4   7
HETATM    7  N   UNL     1       5.978  26.966  51.611  1.00  0.00    -0.323 N 
HETATM    8  C   UNL     1       5.156  27.032  50.496  1.00  0.00     0.257 C 
HETATM    9  O   UNL     1       4.663  26.071  49.915  1.00  0.00    -0.267 OA
HETATM   10  H   UNL     1       6.248  27.840  52.041  1.00  0.00     0.169 HD
BRANCH   8  11
HETATM   11  C   UNL     1       4.837  28.393  49.989  1.00  0.00     0.050 A 
HETATM   12  C   UNL     1       4.084  29.239  50.799  1.00  0.00     0.135 A 
HETATM   13  N   UNL     1       3.727  30.502  50.457  1.00  0.00    -0.248 NA
HETATM   14  C   UNL     1       4.123  30.932  49.244  1.00  0.00     0.125 A 
HETATM   15 CL   UNL     1       3.645  32.529  48.851  1.00  0.00    -0.063 Cl
HETATM   16  C   UNL     1       4.858  30.168  48.353  1.00  0.00     0.045 A 
HETATM   17  C   UNL     1       5.217  28.871  48.730  1.00  0.00     0.022 A 
ENDBRANCH   8  11
ENDBRANCH   4   7
BRANCH   1  18
HETATM   18  N   UNL     1       7.673  22.299  54.429  1.00  0.00    -0.042 N 
HETATM   19  H   UNL     1       6.873  21.656  54.365  1.00  0.00     0.286 HD
BRANCH  18  20
HETATM   20  C   UNL     1       7.832  22.543  55.913  1.00  0.00     0.237 C 
HETATM   21  C   UNL     1       8.398  21.318  56.612  1.00  0.00     0.035 C 
ENDBRANCH  18  20
BRANCH  18  22
HETATM   22  C   UNL     1       8.810  21.550  53.771  1.00  0.00     0.237 C 
HETATM   23  C   UNL     1       8.366  20.376  52.919  1.00  0.00     0.035 C 
ENDBRANCH  18  22
ENDBRANCH   1  18
TORSDOF 5
ENDMDL
MODEL 8
REMARK VINA RESULT:      -6.8      5.982      8.584
REMARK  5 active torsions:
REMARK  status: ('A' for Active; 'I' for Inactive)
REMARK    1  A    between atoms: C_2  and  N_3 
REMARK    2  A    between atoms: N_3  and  C_5 
REMARK    3  A    between atoms: N_3  and  C_21 
REMARK    4  A    between atoms: C_8  and  N_9 
REMARK       I    between atoms: N_9  and  C_10 
REMARK    5  A    between atoms: C_10  and  C_11 
ROOT
HETATM    1  C   UNL     1       7.519  23.767  53.918  1.00  0.00     0.134 A 
HETATM    2  C   UNL     1       8.157  24.158  52.743  1.00  0.00     0.039 A 
HETATM    3  C   UNL     1       7.476  24.937  51.799  1.00  0.00     0.032 A 
HETATM    4  C   UNL     1       6.152  25.326  52.008  1.00  0.00     0.035 A 
HETATM    5  C   UNL     1       5.514  24.915  53.185  1.00  0.00     0.032 A 
HETATM    6  C   UNL     1       6.191  24.144  54.137  1.00  0.00     0.039 A 
ENDROOT
BRANCH   4   7
HETATM    7  N   UNL     1       5.406  26.117  51.107  1.00  0.00    -0.323 N 
HETATM    8  C   UNL     1       5.266  27.497  51.131  1.00  0.00     0.257 C 
HETATM    9  O   UNL     1       5.814  28.256  51.923  1.00  0.00    -0.267 OA
HETATM   10  H   UNL     1       4.963  25.619  50.347  1.00  0.00     0.169 HD
BRANCH   8  11
HETATM   11  C   UNL     1       4.390  28.092  50.087  1.00  0.00     0.050 A 
HETATM   12  C   UNL     1       4.384  27.510  48.822  1.00  0.00     0.135 A 
HETATM   13  N   UNL     1       3.632  27.952  47.784  1.00  0.00    -0.248 NA
HETATM   14  C   UNL     1       2.865  29.035  48.014  1.00  0.00     0.125 A 
HETATM   15 CL   UNL     1       1.938  29.563  46.675  1.00  0.00    -0.063 Cl
HETATM   16  C   UNL     1       2.810  29.702  49.227  1.00  0.00     0.045 A 
HETATM   17  C   UNL     1       3.592  29.223  50.282  1.00  0.00     0.022 A 
ENDBRANCH   8  11
ENDBRANCH   4   7
BRANCH   1  18
HETATM   18  N   UNL     1       8.204  22.966  54.958  1.00  0.00    -0.042 N 
HETATM   19  H   UNL     1       7.448  22.593  55.546  1.00  0.00     0.286 HD
BRANCH  18  20
HETATM   20  C   UNL     1       9.050  23.775  55.916  1.00  0.00     0.237 C 
HETATM   21  C   UNL     1       8.316  24.019  57.224  1.00  0.00     0.035 C 
ENDBRANCH  18  20
BRANCH  18  22
HETATM   22  C   UNL     1       8.874  21.739  54.383  1.00  0.00     0.237 C 
HETATM   23  C   UNL     1       7.906  20.696  53.856  1.00  0.00     0.035 C 
ENDBRANCH  18  22
ENDBRANCH   1  18
TORSDOF 5
ENDMDL
MODEL 9
REMARK VINA RESULT:      -6.6      6.283      8.922
REMARK  5 active torsions:
REMARK  status: ('A' for Active; 'I' for Inactive)
REMARK    1  A    between atoms: C_2  and  N_3 
REMARK    2  A    between atoms: N_3  and  C_5 
REMARK    3  A    between atoms: N_3  and  C_21 
REMARK    4  A    between atoms: C_8  and  N_9 
REMARK       I    between atoms: N_9  and  C_10 
REMARK    5  A    between atoms: C_10  and  C_11 
ROOT
HETATM    1  C   UNL     1       7.651  23.621  53.744  1.00  0.00     0.134 A 
HETATM    2  C   UNL     1       8.091  24.115  52.517  1.00  0.00     0.039 A 
HETATM    3  C   UNL     1       7.380  25.137  51.876  1.00  0.00     0.032 A 
HETATM    4  C   UNL     1       6.220  25.670  52.440  1.00  0.00     0.035 A 
HETATM    5  C   UNL     1       5.777  25.157  53.665  1.00  0.00     0.032 A 
HETATM    6  C   UNL     1       6.488  24.142  54.317  1.00  0.00     0.039 A 
ENDROOT
BRANCH   4   7
HETATM    7  N   UNL     1       5.458  26.706  51.856  1.00  0.00    -0.323 N 
HETATM    8  C   UNL     1       5.643  28.070  52.023  1.00  0.00     0.257 C 
HETATM    9  O   UNL     1       6.539  28.594  52.677  1.00  0.00    -0.267 OA
HETATM   10  H   UNL     1       4.728  26.411  51.222  1.00  0.00     0.169 HD
BRANCH   8  11
HETATM   11  C   UNL     1       4.677  28.960  51.325  1.00  0.00     0.050 A 
HETATM   12  C   UNL     1       5.042  30.285  51.103  1.00  0.00     0.135 A 
HETATM   13  N   UNL     1       4.256  31.197  50.479  1.00  0.00    -0.248 NA
HETATM   14  C   UNL     1       3.044  30.771  50.075  1.00  0.00     0.125 A 
HETATM   15 CL   UNL     1       2.083  31.957  49.298  1.00  0.00    -0.063 Cl
HETATM   16  C   UNL     1       2.573  29.483  50.263  1.00  0.00     0.045 A 
HETATM   17  C   UNL     1       3.404  28.560  50.905  1.00  0.00     0.022 A 
ENDBRANCH   8  11
ENDBRANCH   4   7
BRANCH   1  18
HETATM   18  N   UNL     1       8.382  22.560  54.475  1.00  0.00    -0.042 N 
HETATM   19  H   UNL     1       9.192  23.036  54.892  1.00  0.00     0.286 HD
BRANCH  18  20
HETATM   20  C   UNL     1       8.994  21.498  53.589  1.00  0.00     0.237 C 
HETATM   21  C   UNL     1       7.932  20.549  53.058  1.00  0.00     0.035 C 
ENDBRANCH  18  20
BRANCH  18  22
HETATM   22  C   UNL     1       7.599  22.043  55.660  1.00  0.00     0.237 C 
HETATM   23  C   UNL     1       8.446  21.332  56.698  1.00  0.00     0.035 C 
ENDBRANCH  18  22
ENDBRANCH   1  18
TORSDOF 5
ENDMDL
MODEL 10
REMARK VINA RESULT:      -6.6      4.863      8.719
REMARK  5 active torsions:
REMARK  status: ('A' for Active; 'I' for Inactive)
REMARK    1  A    between atoms: C_2  and  N_3 
REMARK    2  A    between atoms: N_3  and  C_5 
REMARK    3  A    between atoms: N_3  and  C_21 
REMARK    4  A    between atoms: C_8  and  N_9 
REMARK       I    between atoms: N_9  and  C_10 
REMARK    5  A    between atoms: C_10  and  C_11 
ROOT
HETATM    1  C   UNL     1       7.750  23.607  54.822  1.00  0.00     0.134 A 
HETATM    2  C   UNL     1       7.928  24.531  53.794  1.00  0.00     0.039 A 
HETATM    3  C   UNL     1       7.255  25.759  53.829  1.00  0.00     0.032 A 
HETATM    4  C   UNL     1       6.389  26.075  54.878  1.00  0.00     0.035 A 
HETATM    5  C   UNL     1       6.205  25.134  55.898  1.00  0.00     0.032 A 
HETATM    6  C   UNL     1       6.882  23.908  55.875  1.00  0.00     0.039 A 
ENDROOT
BRANCH   4   7
HETATM    7  N   UNL     1       5.685  27.295  54.984  1.00  0.00    -0.323 N 
HETATM    8  C   UNL     1       4.642  27.726  54.178  1.00  0.00     0.257 C 
HETATM    9  O   UNL     1       4.132  27.084  53.266  1.00  0.00    -0.267 OA
HETATM   10  H   UNL     1       5.953  27.891  55.755  1.00  0.00     0.169 HD
BRANCH   8  11
HETATM   11  C   UNL     1       4.091  29.075  54.475  1.00  0.00     0.050 A 
HETATM   12  C   UNL     1       3.811  29.923  53.406  1.00  0.00     0.135 A 
HETATM   13  N   UNL     1       3.306  31.174  53.538  1.00  0.00    -0.248 NA
HETATM   14  C   UNL     1       3.089  31.605  54.795  1.00  0.00     0.125 A 
HETATM   15 CL   UNL     1       2.457  33.193  54.916  1.00  0.00    -0.063 Cl
HETATM   16  C   UNL     1       3.349  30.854  55.928  1.00  0.00     0.045 A 
HETATM   17  C   UNL     1       3.865  29.565  55.765  1.00  0.00     0.022 A 
ENDBRANCH   8  11
ENDBRANCH   4   7
BRANCH   1  18
HETATM   18  N   UNL     1       8.460  22.307  54.845  1.00  0.00    -0.042 N 
HETATM   19  H   UNL     1       9.367  22.508  55.284  1.00  0.00     0.286 HD
BRANCH  18  20
HETATM   20  C   UNL     1       8.823  21.767  53.479  1.00  0.00     0.237 C 
HETATM   21  C   UNL     1       7.835  20.703  53.031  1.00  0.00     0.035 C 
ENDBRANCH  18  20
BRANCH  18  22
HETATM   22  C   UNL     1       7.802  21.316  55.778  1.00  0.00     0.237 C 
HETATM   23  C   UNL     1       8.780  20.480  56.581  1.00  0.00     0.035 C 
ENDBRANCH  18  22
ENDBRANCH   1  18
TORSDOF 5
ENDMDL
