MODEL 1
REMARK VINA RESULT:      -8.5      0.000      0.000
REMARK  9 active torsions:
REMARK  status: ('A' for Active; 'I' for Inactive)
REMARK    1  A    between atoms: C_4  and  C_5 
REMARK    2  A    between atoms: C_8  and  C_9 
REMARK       I    between atoms: C_9  and  N_10 
REMARK    3  A    between atoms: N_10  and  C_26 
REMARK    4  A    between atoms: N_10  and  C_11 
REMARK    5  A    between atoms: C_11  and  C_12 
REMARK    6  A    between atoms: C_11  and  C_21 
REMARK       I    between atoms: C_12  and  N_13 
REMARK    7  A    between atoms: N_13  and  C_14 
REMARK    8  A    between atoms: C_14  and  C_15 
REMARK    9  A    between atoms: C_26  and  C_27 
ROOT
HETATM    1  C   UNL     1       7.856  27.076  56.767  1.00  0.00     0.271 C 
HETATM    2  N   UNL     1       6.797  27.183  55.858  1.00  0.00    -0.324 N 
HETATM    3  O   UNL     1       8.337  25.974  57.034  1.00  0.00    -0.266 OA
ENDROOT
BRANCH   2   4
HETATM    4  C   UNL     1       6.050  25.946  55.585  1.00  0.00     0.173 C 
BRANCH   4   5
HETATM    5  C   UNL     1       6.820  24.989  54.730  1.00  0.00     0.000 A 
HETATM    6  S   UNL     1       7.161  23.402  55.287  1.00  0.00    -0.105 SA
HETATM    7  C   UNL     1       7.990  23.004  53.846  1.00  0.00     0.050 A 
HETATM    8  C   UNL     1       8.044  24.066  52.972  1.00  0.00     0.008 A 
HETATM    9  C   UNL     1       7.383  25.217  53.489  1.00  0.00     0.017 A 
ENDBRANCH   4   5
ENDBRANCH   2   4
BRANCH   2  10
HETATM   10  C   UNL     1       6.325  28.464  55.271  1.00  0.00     0.220 C 
BRANCH  10  11
HETATM   11  C   UNL     1       5.586  29.273  56.358  1.00  0.00     0.245 C 
HETATM   12  N   UNL     1       5.455  30.631  56.142  1.00  0.00    -0.357 N 
HETATM   13  H   UNL     1       6.058  31.061  55.448  1.00  0.00     0.162 HD
HETATM   14  O   UNL     1       4.978  28.678  57.253  1.00  0.00    -0.271 OA
BRANCH  12  15
HETATM   15  C   UNL     1       4.741  31.504  57.058  1.00  0.00     0.154 C 
BRANCH  15  16
HETATM   16  C   UNL     1       4.639  32.947  56.531  1.00  0.00     0.139 C 
HETATM   17  O   UNL     1       5.431  33.830  57.344  1.00  0.00    -0.384 OA
HETATM   18  C   UNL     1       4.567  34.509  58.268  1.00  0.00     0.168 C 
HETATM   19  C   UNL     1       3.156  34.013  58.029  1.00  0.00     0.029 C 
HETATM   20  C   UNL     1       3.222  33.491  56.614  1.00  0.00     0.035 C 
ENDBRANCH  15  16
ENDBRANCH  12  15
ENDBRANCH  10  11
BRANCH  10  21
HETATM   21  C   UNL     1       5.679  28.303  53.909  1.00  0.00     0.014 A 
HETATM   22  S   UNL     1       3.974  28.274  53.684  1.00  0.00    -0.104 SA
HETATM   23  C   UNL     1       4.115  28.214  51.985  1.00  0.00     0.050 A 
HETATM   24  C   UNL     1       5.426  28.268  51.576  1.00  0.00     0.008 A 
HETATM   25  C   UNL     1       6.321  28.344  52.679  1.00  0.00     0.017 A 
ENDBRANCH  10  21
ENDBRANCH   2  10
BRANCH   1  26
HETATM   26  C   UNL     1       8.404  28.272  57.376  1.00  0.00     0.101 C 
HETATM   27  N   UNL     1       8.042  28.827  58.589  1.00  0.00    -0.351 N 
HETATM   28  C   UNL     1       8.671  30.041  58.770  1.00  0.00     0.043 C 
HETATM   29  H   UNL     1       7.344  28.444  59.219  1.00  0.00     0.166 HD
HETATM   30  C   UNL     1       9.636  30.129  57.783  1.00  0.00     0.033 C 
HETATM   31  C   UNL     1       9.480  29.017  56.924  1.00  0.00     0.037 C 
BRANCH  28  32
HETATM   32  C   UNL     1       8.315  30.981  59.833  1.00  0.00    -0.009 A 
HETATM   33  C   UNL     1       7.163  31.771  59.728  1.00  0.00     0.013 A 
HETATM   34  C   UNL     1       6.784  32.622  60.769  1.00  0.00     0.001 A 
HETATM   35  C   UNL     1       7.549  32.686  61.932  1.00  0.00     0.000 A 
HETATM   36  C   UNL     1       8.698  31.907  62.049  1.00  0.00     0.001 A 
HETATM   37  C   UNL     1       9.082  31.063  61.004  1.00  0.00     0.013 A 
ENDBRANCH  28  32
ENDBRANCH   1  26
TORSDOF 9
ENDMDL
MODEL 2
REMARK VINA RESULT:      -8.5      2.551      7.775
REMARK  9 active torsions:
REMARK  status: ('A' for Active; 'I' for Inactive)
REMARK    1  A    between atoms: C_4  and  C_5 
REMARK    2  A    between atoms: C_8  and  C_9 
REMARK       I    between atoms: C_9  and  N_10 
REMARK    3  A    between atoms: N_10  and  C_26 
REMARK    4  A    between atoms: N_10  and  C_11 
REMARK    5  A    between atoms: C_11  and  C_12 
REMARK    6  A    between atoms: C_11  and  C_21 
REMARK       I    between atoms: C_12  and  N_13 
REMARK    7  A    between atoms: N_13  and  C_14 
REMARK    8  A    between atoms: C_14  and  C_15 
REMARK    9  A    between atoms: C_26  and  C_27 
ROOT
HETATM    1  C   UNL     1       8.035  27.506  57.001  1.00  0.00     0.271 C 
HETATM    2  N   UNL     1       7.431  28.657  56.482  1.00  0.00    -0.324 N 
HETATM    3  O   UNL     1       9.031  27.597  57.720  1.00  0.00    -0.266 OA
ENDROOT
BRANCH   2   4
HETATM    4  C   UNL     1       8.253  29.876  56.484  1.00  0.00     0.173 C 
BRANCH   4   5
HETATM    5  C   UNL     1       8.423  30.451  57.855  1.00  0.00     0.000 A 
HETATM    6  S   UNL     1       9.944  31.061  58.363  1.00  0.00    -0.105 SA
HETATM    7  C   UNL     1       9.332  31.491  59.899  1.00  0.00     0.050 A 
HETATM    8  C   UNL     1       8.008  31.144  60.044  1.00  0.00     0.008 A 
HETATM    9  C   UNL     1       7.487  30.529  58.870  1.00  0.00     0.017 A 
ENDBRANCH   4   5
ENDBRANCH   2   4
BRANCH   2  10
HETATM   10  C   UNL     1       6.093  28.681  55.835  1.00  0.00     0.220 C 
BRANCH  10  11
HETATM   11  C   UNL     1       6.266  28.484  54.315  1.00  0.00     0.245 C 
HETATM   12  N   UNL     1       5.158  28.721  53.526  1.00  0.00    -0.357 N 
HETATM   13  H   UNL     1       4.250  28.747  53.979  1.00  0.00     0.162 HD
HETATM   14  O   UNL     1       7.398  28.327  53.845  1.00  0.00    -0.271 OA
BRANCH  12  15
HETATM   15  C   UNL     1       5.192  28.622  52.077  1.00  0.00     0.154 C 
BRANCH  15  16
HETATM   16  C   UNL     1       4.468  27.366  51.559  1.00  0.00     0.139 C 
HETATM   17  O   UNL     1       4.175  26.476  52.650  1.00  0.00    -0.384 OA
HETATM   18  C   UNL     1       5.161  25.434  52.676  1.00  0.00     0.168 C 
HETATM   19  C   UNL     1       6.135  25.693  51.545  1.00  0.00     0.029 C 
HETATM   20  C   UNL     1       5.331  26.556  50.604  1.00  0.00     0.035 C 
ENDBRANCH  15  16
ENDBRANCH  12  15
ENDBRANCH  10  11
BRANCH  10  21
HETATM   21  C   UNL     1       5.200  29.800  56.334  1.00  0.00     0.014 A 
HETATM   22  S   UNL     1       5.025  31.294  55.501  1.00  0.00    -0.104 SA
HETATM   23  C   UNL     1       3.832  31.854  56.583  1.00  0.00     0.050 A 
HETATM   24  C   UNL     1       3.521  30.914  57.537  1.00  0.00     0.008 A 
HETATM   25  C   UNL     1       4.289  29.727  57.378  1.00  0.00     0.017 A 
ENDBRANCH  10  21
ENDBRANCH   2  10
BRANCH   1  26
HETATM   26  C   UNL     1       7.467  26.204  56.712  1.00  0.00     0.101 C 
HETATM   27  N   UNL     1       8.116  25.122  56.149  1.00  0.00    -0.351 N 
HETATM   28  C   UNL     1       7.220  24.105  55.888  1.00  0.00     0.043 C 
HETATM   29  H   UNL     1       9.095  25.106  55.879  1.00  0.00     0.166 HD
HETATM   30  C   UNL     1       6.045  24.450  56.532  1.00  0.00     0.033 C 
HETATM   31  C   UNL     1       6.205  25.751  57.060  1.00  0.00     0.037 C 
BRANCH  28  32
HETATM   32  C   UNL     1       7.548  22.931  55.080  1.00  0.00    -0.009 A 
HETATM   33  C   UNL     1       7.680  21.670  55.676  1.00  0.00     0.013 A 
HETATM   34  C   UNL     1       7.928  20.536  54.900  1.00  0.00     0.001 A 
HETATM   35  C   UNL     1       8.039  20.648  53.515  1.00  0.00     0.000 A 
HETATM   36  C   UNL     1       7.913  21.896  52.909  1.00  0.00     0.001 A 
HETATM   37  C   UNL     1       7.673  23.032  53.687  1.00  0.00     0.013 A 
ENDBRANCH  28  32
ENDBRANCH   1  26
TORSDOF 9
ENDMDL
MODEL 3
REMARK VINA RESULT:      -8.3      5.132      9.315
REMARK  9 active torsions:
REMARK  status: ('A' for Active; 'I' for Inactive)
REMARK    1  A    between atoms: C_4  and  C_5 
REMARK    2  A    between atoms: C_8  and  C_9 
REMARK       I    between atoms: C_9  and  N_10 
REMARK    3  A    between atoms: N_10  and  C_26 
REMARK    4  A    between atoms: N_10  and  C_11 
REMARK    5  A    between atoms: C_11  and  C_12 
REMARK    6  A    between atoms: C_11  and  C_21 
REMARK       I    between atoms: C_12  and  N_13 
REMARK    7  A    between atoms: N_13  and  C_14 
REMARK    8  A    between atoms: C_14  and  C_15 
REMARK    9  A    between atoms: C_26  and  C_27 
ROOT
HETATM    1  C   UNL     1       5.442  32.159  62.745  1.00  0.00     0.271 C 
HETATM    2  N   UNL     1       4.726  33.360  62.696  1.00  0.00    -0.324 N 
HETATM    3  O   UNL     1       5.005  31.200  63.381  1.00  0.00    -0.266 OA
ENDROOT
BRANCH   2   4
HETATM    4  C   UNL     1       3.701  33.545  63.734  1.00  0.00     0.173 C 
BRANCH   4   5
HETATM    5  C   UNL     1       4.275  34.036  65.026  1.00  0.00     0.000 A 
HETATM    6  S   UNL     1       3.402  35.144  66.003  1.00  0.00    -0.105 SA
HETATM    7  C   UNL     1       4.640  35.183  67.180  1.00  0.00     0.050 A 
HETATM    8  C   UNL     1       5.716  34.402  66.823  1.00  0.00     0.008 A 
HETATM    9  C   UNL     1       5.512  33.752  65.572  1.00  0.00     0.017 A 
ENDBRANCH   4   5
ENDBRANCH   2   4
BRANCH   2  10
HETATM   10  C   UNL     1       5.022  34.474  61.758  1.00  0.00     0.220 C 
BRANCH  10  11
HETATM   11  C   UNL     1       4.721  35.815  62.459  1.00  0.00     0.245 C 
HETATM   12  N   UNL     1       5.784  36.450  63.070  1.00  0.00    -0.357 N 
HETATM   13  H   UNL     1       6.619  35.904  63.259  1.00  0.00     0.162 HD
HETATM   14  O   UNL     1       3.628  36.362  62.286  1.00  0.00    -0.271 OA
BRANCH  12  15
HETATM   15  C   UNL     1       5.655  37.741  63.724  1.00  0.00     0.154 C 
BRANCH  15  16
HETATM   16  C   UNL     1       6.548  38.816  63.080  1.00  0.00     0.139 C 
HETATM   17  O   UNL     1       5.979  40.122  63.282  1.00  0.00    -0.384 OA
HETATM   18  C   UNL     1       5.291  40.518  62.086  1.00  0.00     0.168 C 
HETATM   19  C   UNL     1       5.425  39.391  61.083  1.00  0.00     0.029 C 
HETATM   20  C   UNL     1       6.648  38.654  61.572  1.00  0.00     0.035 C 
ENDBRANCH  15  16
ENDBRANCH  12  15
ENDBRANCH  10  11
BRANCH  10  21
HETATM   21  C   UNL     1       4.491  34.242  60.357  1.00  0.00     0.014 A 
HETATM   22  S   UNL     1       3.470  32.918  59.954  1.00  0.00    -0.104 SA
HETATM   23  C   UNL     1       3.250  33.465  58.354  1.00  0.00     0.050 A 
HETATM   24  C   UNL     1       3.891  34.660  58.127  1.00  0.00     0.008 A 
HETATM   25  C   UNL     1       4.582  35.117  59.283  1.00  0.00     0.017 A 
ENDBRANCH  10  21
ENDBRANCH   2  10
BRANCH   1  26
HETATM   26  C   UNL     1       6.693  32.039  62.021  1.00  0.00     0.101 C 
HETATM   27  N   UNL     1       6.861  31.589  60.725  1.00  0.00    -0.351 N 
HETATM   28  C   UNL     1       8.203  31.472  60.427  1.00  0.00     0.043 C 
HETATM   29  H   UNL     1       6.110  31.299  60.107  1.00  0.00     0.166 HD
HETATM   30  C   UNL     1       8.885  32.100  61.454  1.00  0.00     0.033 C 
HETATM   31  C   UNL     1       7.941  32.468  62.439  1.00  0.00     0.037 C 
BRANCH  28  32
HETATM   32  C   UNL     1       8.705  30.799  59.229  1.00  0.00    -0.009 A 
HETATM   33  C   UNL     1       9.883  31.235  58.608  1.00  0.00     0.013 A 
HETATM   34  C   UNL     1      10.401  30.554  57.504  1.00  0.00     0.001 A 
HETATM   35  C   UNL     1       9.751  29.424  57.012  1.00  0.00     0.000 A 
HETATM   36  C   UNL     1       8.579  28.980  57.619  1.00  0.00     0.001 A 
HETATM   37  C   UNL     1       8.056  29.666  58.718  1.00  0.00     0.013 A 
ENDBRANCH  28  32
ENDBRANCH   1  26
TORSDOF 9
ENDMDL
MODEL 4
REMARK VINA RESULT:      -8.3      2.865      9.085
REMARK  9 active torsions:
REMARK  status: ('A' for Active; 'I' for Inactive)
REMARK    1  A    between atoms: C_4  and  C_5 
REMARK    2  A    between atoms: C_8  and  C_9 
REMARK       I    between atoms: C_9  and  N_10 
REMARK    3  A    between atoms: N_10  and  C_26 
REMARK    4  A    between atoms: N_10  and  C_11 
REMARK    5  A    between atoms: C_11  and  C_12 
REMARK    6  A    between atoms: C_11  and  C_21 
REMARK       I    between atoms: C_12  and  N_13 
REMARK    7  A    between atoms: N_13  and  C_14 
REMARK    8  A    between atoms: C_14  and  C_15 
REMARK    9  A    between atoms: C_26  and  C_27 
ROOT
HETATM    1  C   UNL     1       4.698  28.176  55.011  1.00  0.00     0.271 C 
HETATM    2  N   UNL     1       5.706  28.134  55.980  1.00  0.00    -0.324 N 
HETATM    3  O   UNL     1       3.695  28.868  55.187  1.00  0.00    -0.266 OA
ENDROOT
BRANCH   2   4
HETATM    4  C   UNL     1       5.330  28.592  57.326  1.00  0.00     0.173 C 
BRANCH   4   5
HETATM    5  C   UNL     1       5.072  30.065  57.379  1.00  0.00     0.000 A 
HETATM    6  S   UNL     1       3.671  30.678  58.157  1.00  0.00    -0.105 SA
HETATM    7  C   UNL     1       4.102  32.294  57.804  1.00  0.00     0.050 A 
HETATM    8  C   UNL     1       5.265  32.370  57.074  1.00  0.00     0.008 A 
HETATM    9  C   UNL     1       5.818  31.083  56.815  1.00  0.00     0.017 A 
ENDBRANCH   4   5
ENDBRANCH   2   4
BRANCH   2  10
HETATM   10  C   UNL     1       7.056  27.553  55.758  1.00  0.00     0.220 C 
BRANCH  10  11
HETATM   11  C   UNL     1       7.074  26.106  56.294  1.00  0.00     0.245 C 
HETATM   12  N   UNL     1       7.951  25.228  55.686  1.00  0.00    -0.357 N 
HETATM   13  H   UNL     1       8.328  25.487  54.780  1.00  0.00     0.162 HD
HETATM   14  O   UNL     1       6.479  25.836  57.342  1.00  0.00    -0.271 OA
BRANCH  12  15
HETATM   15  C   UNL     1       8.107  23.851  56.121  1.00  0.00     0.154 C 
BRANCH  15  16
HETATM   16  C   UNL     1       7.258  22.874  55.287  1.00  0.00     0.139 C 
HETATM   17  O   UNL     1       7.614  21.516  55.598  1.00  0.00    -0.384 OA
HETATM   18  C   UNL     1       8.497  21.023  54.580  1.00  0.00     0.168 C 
HETATM   19  C   UNL     1       8.718  22.140  53.581  1.00  0.00     0.029 C 
HETATM   20  C   UNL     1       7.511  23.021  53.795  1.00  0.00     0.035 C 
ENDBRANCH  15  16
ENDBRANCH  12  15
ENDBRANCH  10  11
BRANCH  10  21
HETATM   21  C   UNL     1       8.187  28.490  56.135  1.00  0.00     0.014 A 
HETATM   22  S   UNL     1       8.653  28.780  57.765  1.00  0.00    -0.104 SA
HETATM   23  C   UNL     1       9.976  29.752  57.303  1.00  0.00     0.050 A 
HETATM   24  C   UNL     1      10.108  29.824  55.936  1.00  0.00     0.008 A 
HETATM   25  C   UNL     1       9.096  29.079  55.268  1.00  0.00     0.017 A 
ENDBRANCH  10  21
ENDBRANCH   2  10
BRANCH   1  26
HETATM   26  C   UNL     1       4.849  27.419  53.783  1.00  0.00     0.101 C 
HETATM   27  N   UNL     1       5.064  27.927  52.516  1.00  0.00    -0.351 N 
HETATM   28  C   UNL     1       5.008  26.918  51.577  1.00  0.00     0.043 C 
HETATM   29  H   UNL     1       5.161  28.913  52.293  1.00  0.00     0.166 HD
HETATM   30  C   UNL     1       5.016  25.729  52.284  1.00  0.00     0.033 C 
HETATM   31  C   UNL     1       4.934  26.042  53.660  1.00  0.00     0.037 C 
BRANCH  28  32
HETATM   32  C   UNL     1       4.956  27.163  50.136  1.00  0.00    -0.009 A 
HETATM   33  C   UNL     1       5.461  28.353  49.597  1.00  0.00     0.013 A 
HETATM   34  C   UNL     1       5.473  28.562  48.216  1.00  0.00     0.001 A 
HETATM   35  C   UNL     1       4.988  27.578  47.356  1.00  0.00     0.000 A 
HETATM   36  C   UNL     1       4.482  26.390  47.878  1.00  0.00     0.001 A 
HETATM   37  C   UNL     1       4.461  26.185  49.260  1.00  0.00     0.013 A 
ENDBRANCH  28  32
ENDBRANCH   1  26
TORSDOF 9
ENDMDL
MODEL 5
REMARK VINA RESULT:      -8.2      3.001      7.290
REMARK  9 active torsions:
REMARK  status: ('A' for Active; 'I' for Inactive)
REMARK    1  A    between atoms: C_4  and  C_5 
REMARK    2  A    between atoms: C_8  and  C_9 
REMARK       I    between atoms: C_9  and  N_10 
REMARK    3  A    between atoms: N_10  and  C_26 
REMARK    4  A    between atoms: N_10  and  C_11 
REMARK    5  A    between atoms: C_11  and  C_12 
REMARK    6  A    between atoms: C_11  and  C_21 
REMARK       I    between atoms: C_12  and  N_13 
REMARK    7  A    between atoms: N_13  and  C_14 
REMARK    8  A    between atoms: C_14  and  C_15 
REMARK    9  A    between atoms: C_26  and  C_27 
ROOT
HETATM    1  C   UNL     1       6.974  27.654  57.494  1.00  0.00     0.271 C 
HETATM    2  N   UNL     1       6.464  28.807  56.887  1.00  0.00    -0.324 N 
HETATM    3  O   UNL     1       7.682  27.741  58.497  1.00  0.00    -0.266 OA
ENDROOT
BRANCH   2   4
HETATM    4  C   UNL     1       7.132  30.071  57.234  1.00  0.00     0.173 C 
BRANCH   4   5
HETATM    5  C   UNL     1       8.621  29.981  57.124  1.00  0.00     0.000 A 
HETATM    6  S   UNL     1       9.628  30.664  58.334  1.00  0.00    -0.105 SA
HETATM    7  C   UNL     1      11.049  30.166  57.526  1.00  0.00     0.050 A 
HETATM    8  C   UNL     1      10.771  29.527  56.339  1.00  0.00     0.008 A 
HETATM    9  C   UNL     1       9.370  29.434  56.099  1.00  0.00     0.017 A 
ENDBRANCH   4   5
ENDBRANCH   2   4
BRANCH   2  10
HETATM   10  C   UNL     1       5.400  28.807  55.850  1.00  0.00     0.220 C 
BRANCH  10  11
HETATM   11  C   UNL     1       5.996  28.305  54.518  1.00  0.00     0.245 C 
HETATM   12  N   UNL     1       5.153  27.595  53.686  1.00  0.00    -0.357 N 
HETATM   13  H   UNL     1       4.299  27.217  54.086  1.00  0.00     0.162 HD
HETATM   14  O   UNL     1       7.105  28.710  54.155  1.00  0.00    -0.271 OA
BRANCH  12  15
HETATM   15  C   UNL     1       5.567  27.106  52.382  1.00  0.00     0.154 C 
BRANCH  15  16
HETATM   16  C   UNL     1       4.606  27.540  51.261  1.00  0.00     0.139 C 
HETATM   17  O   UNL     1       5.245  27.410  49.980  1.00  0.00    -0.384 OA
HETATM   18  C   UNL     1       5.712  28.700  49.560  1.00  0.00     0.168 C 
HETATM   19  C   UNL     1       5.357  29.694  50.647  1.00  0.00     0.029 C 
HETATM   20  C   UNL     1       4.222  29.008  51.367  1.00  0.00     0.035 C 
ENDBRANCH  15  16
ENDBRANCH  12  15
ENDBRANCH  10  11
BRANCH  10  21
HETATM   21  C   UNL     1       4.556  30.066  55.848  1.00  0.00     0.014 A 
HETATM   22  S   UNL     1       3.621  30.563  57.203  1.00  0.00    -0.104 SA
HETATM   23  C   UNL     1       3.154  32.022  56.452  1.00  0.00     0.050 A 
HETATM   24  C   UNL     1       3.732  32.170  55.213  1.00  0.00     0.008 A 
HETATM   25  C   UNL     1       4.555  31.059  54.878  1.00  0.00     0.017 A 
ENDBRANCH  10  21
ENDBRANCH   2  10
BRANCH   1  26
HETATM   26  C   UNL     1       6.643  26.351  56.952  1.00  0.00     0.101 C 
HETATM   27  N   UNL     1       7.522  25.422  56.427  1.00  0.00    -0.351 N 
HETATM   28  C   UNL     1       6.831  24.365  55.873  1.00  0.00     0.043 C 
HETATM   29  H   UNL     1       8.529  25.540  56.373  1.00  0.00     0.166 HD
HETATM   30  C   UNL     1       5.517  24.502  56.283  1.00  0.00     0.033 C 
HETATM   31  C   UNL     1       5.404  25.732  56.970  1.00  0.00     0.037 C 
BRANCH  28  32
HETATM   32  C   UNL     1       7.459  23.345  55.032  1.00  0.00    -0.009 A 
HETATM   33  C   UNL     1       8.146  22.270  55.610  1.00  0.00     0.013 A 
HETATM   34  C   UNL     1       8.690  21.260  54.813  1.00  0.00     0.001 A 
HETATM   35  C   UNL     1       8.546  21.309  53.428  1.00  0.00     0.000 A 
HETATM   36  C   UNL     1       7.866  22.374  52.839  1.00  0.00     0.001 A 
HETATM   37  C   UNL     1       7.330  23.388  53.636  1.00  0.00     0.013 A 
ENDBRANCH  28  32
ENDBRANCH   1  26
TORSDOF 9
ENDMDL
MODEL 6
REMARK VINA RESULT:      -8.2      2.318      5.521
REMARK  9 active torsions:
REMARK  status: ('A' for Active; 'I' for Inactive)
REMARK    1  A    between atoms: C_4  and  C_5 
REMARK    2  A    between atoms: C_8  and  C_9 
REMARK       I    between atoms: C_9  and  N_10 
REMARK    3  A    between atoms: N_10  and  C_26 
REMARK    4  A    between atoms: N_10  and  C_11 
REMARK    5  A    between atoms: C_11  and  C_12 
REMARK    6  A    between atoms: C_11  and  C_21 
REMARK       I    between atoms: C_12  and  N_13 
REMARK    7  A    between atoms: N_13  and  C_14 
REMARK    8  A    between atoms: C_14  and  C_15 
REMARK    9  A    between atoms: C_26  and  C_27 
ROOT
HETATM    1  C   UNL     1       9.027  29.069  55.407  1.00  0.00     0.271 C 
HETATM    2  N   UNL     1       7.954  28.171  55.373  1.00  0.00    -0.324 N 
HETATM    3  O   UNL     1       9.617  29.372  54.369  1.00  0.00    -0.266 OA
ENDROOT
BRANCH   2   4
HETATM    4  C   UNL     1       7.853  27.328  54.172  1.00  0.00     0.173 C 
BRANCH   4   5
HETATM    5  C   UNL     1       6.577  27.549  53.423  1.00  0.00     0.000 A 
HETATM    6  S   UNL     1       5.462  26.263  53.200  1.00  0.00    -0.105 SA
HETATM    7  C   UNL     1       4.382  27.263  52.332  1.00  0.00     0.050 A 
HETATM    8  C   UNL     1       4.872  28.540  52.177  1.00  0.00     0.008 A 
HETATM    9  C   UNL     1       6.146  28.701  52.792  1.00  0.00     0.017 A 
ENDBRANCH   4   5
ENDBRANCH   2   4
BRANCH   2  10
HETATM   10  C   UNL     1       7.017  27.945  56.504  1.00  0.00     0.220 C 
BRANCH  10  11
HETATM   11  C   UNL     1       6.945  26.432  56.802  1.00  0.00     0.245 C 
HETATM   12  N   UNL     1       8.146  25.755  56.879  1.00  0.00    -0.357 N 
HETATM   13  H   UNL     1       8.968  26.202  56.485  1.00  0.00     0.162 HD
HETATM   14  O   UNL     1       5.872  25.930  57.153  1.00  0.00    -0.271 OA
BRANCH  12  15
HETATM   15  C   UNL     1       8.229  24.341  57.201  1.00  0.00     0.154 C 
BRANCH  15  16
HETATM   16  C   UNL     1       8.970  23.536  56.118  1.00  0.00     0.139 C 
HETATM   17  O   UNL     1       8.477  23.887  54.813  1.00  0.00    -0.384 OA
HETATM   18  C   UNL     1       7.545  22.884  54.384  1.00  0.00     0.168 C 
HETATM   19  C   UNL     1       7.437  21.852  55.488  1.00  0.00     0.029 C 
HETATM   20  C   UNL     1       8.729  22.040  56.246  1.00  0.00     0.035 C 
ENDBRANCH  15  16
ENDBRANCH  12  15
ENDBRANCH  10  11
BRANCH  10  21
HETATM   21  C   UNL     1       5.726  28.732  56.387  1.00  0.00     0.014 A 
HETATM   22  S   UNL     1       5.689  30.447  56.268  1.00  0.00    -0.104 SA
HETATM   23  C   UNL     1       3.998  30.479  56.044  1.00  0.00     0.050 A 
HETATM   24  C   UNL     1       3.461  29.214  56.005  1.00  0.00     0.008 A 
HETATM   25  C   UNL     1       4.456  28.212  56.177  1.00  0.00     0.017 A 
ENDBRANCH  10  21
ENDBRANCH   2  10
BRANCH   1  26
HETATM   26  C   UNL     1       9.426  29.665  56.667  1.00  0.00     0.101 C 
HETATM   27  N   UNL     1       8.684  29.719  57.832  1.00  0.00    -0.351 N 
HETATM   28  C   UNL     1       9.327  30.491  58.777  1.00  0.00     0.043 C 
HETATM   29  H   UNL     1       7.756  29.323  57.950  1.00  0.00     0.166 HD
HETATM   30  C   UNL     1      10.604  30.711  58.294  1.00  0.00     0.033 C 
HETATM   31  C   UNL     1      10.671  30.180  56.986  1.00  0.00     0.037 C 
BRANCH  28  32
HETATM   32  C   UNL     1       8.693  30.937  60.018  1.00  0.00    -0.009 A 
HETATM   33  C   UNL     1       7.533  31.720  59.983  1.00  0.00     0.013 A 
HETATM   34  C   UNL     1       6.888  32.093  61.165  1.00  0.00     0.001 A 
HETATM   35  C   UNL     1       7.392  31.678  62.397  1.00  0.00     0.000 A 
HETATM   36  C   UNL     1       8.547  30.900  62.446  1.00  0.00     0.001 A 
HETATM   37  C   UNL     1       9.196  30.535  61.264  1.00  0.00     0.013 A 
ENDBRANCH  28  32
ENDBRANCH   1  26
TORSDOF 9
ENDMDL
MODEL 7
REMARK VINA RESULT:      -8.0      4.600      7.955
REMARK  9 active torsions:
REMARK  status: ('A' for Active; 'I' for Inactive)
REMARK    1  A    between atoms: C_4  and  C_5 
REMARK    2  A    between atoms: C_8  and  C_9 
REMARK       I    between atoms: C_9  and  N_10 
REMARK    3  A    between atoms: N_10  and  C_26 
REMARK    4  A    between atoms: N_10  and  C_11 
REMARK    5  A    between atoms: C_11  and  C_12 
REMARK    6  A    between atoms: C_11  and  C_21 
REMARK       I    between atoms: C_12  and  N_13 
REMARK    7  A    between atoms: N_13  and  C_14 
REMARK    8  A    between atoms: C_14  and  C_15 
REMARK    9  A    between atoms: C_26  and  C_27 
ROOT
HETATM    1  C   UNL     1       5.335  29.802  51.200  1.00  0.00     0.271 C 
HETATM    2  N   UNL     1       4.898  28.998  50.141  1.00  0.00    -0.324 N 
HETATM    3  O   UNL     1       5.914  30.865  50.975  1.00  0.00    -0.266 OA
ENDROOT
BRANCH   2   4
HETATM    4  C   UNL     1       5.514  29.261  48.832  1.00  0.00     0.173 C 
BRANCH   4   5
HETATM    5  C   UNL     1       4.647  30.103  47.949  1.00  0.00     0.000 A 
HETATM    6  S   UNL     1       3.816  31.463  48.584  1.00  0.00    -0.105 SA
HETATM    7  C   UNL     1       3.127  31.833  47.064  1.00  0.00     0.050 A 
HETATM    8  C   UNL     1       3.486  30.921  46.099  1.00  0.00     0.008 A 
HETATM    9  C   UNL     1       4.350  29.912  46.613  1.00  0.00     0.017 A 
ENDBRANCH   4   5
ENDBRANCH   2   4
BRANCH   2  10
HETATM   10  C   UNL     1       3.969  27.848  50.291  1.00  0.00     0.220 C 
BRANCH  10  11
HETATM   11  C   UNL     1       4.776  26.601  50.709  1.00  0.00     0.245 C 
HETATM   12  N   UNL     1       4.385  25.967  51.872  1.00  0.00    -0.357 N 
HETATM   13  H   UNL     1       3.789  26.480  52.515  1.00  0.00     0.162 HD
HETATM   14  O   UNL     1       5.584  26.105  49.918  1.00  0.00    -0.271 OA
BRANCH  12  15
HETATM   15  C   UNL     1       5.024  24.755  52.357  1.00  0.00     0.154 C 
BRANCH  15  16
HETATM   16  C   UNL     1       6.150  25.050  53.365  1.00  0.00     0.139 C 
HETATM   17  O   UNL     1       7.152  25.885  52.759  1.00  0.00    -0.384 OA
HETATM   18  C   UNL     1       8.254  25.062  52.347  1.00  0.00     0.168 C 
HETATM   19  C   UNL     1       7.916  23.629  52.702  1.00  0.00     0.029 C 
HETATM   20  C   UNL     1       6.885  23.790  53.792  1.00  0.00     0.035 C 
ENDBRANCH  15  16
ENDBRANCH  12  15
ENDBRANCH  10  11
BRANCH  10  21
HETATM   21  C   UNL     1       2.967  27.729  49.160  1.00  0.00     0.014 A 
HETATM   22  S   UNL     1       3.098  26.545  47.919  1.00  0.00    -0.104 SA
HETATM   23  C   UNL     1       1.609  26.993  47.218  1.00  0.00     0.050 A 
HETATM   24  C   UNL     1       0.984  27.988  47.932  1.00  0.00     0.008 A 
HETATM   25  C   UNL     1       1.751  28.391  49.060  1.00  0.00     0.017 A 
ENDBRANCH  10  21
ENDBRANCH   2  10
BRANCH   1  26
HETATM   26  C   UNL     1       5.078  29.392  52.567  1.00  0.00     0.101 C 
HETATM   27  N   UNL     1       5.969  28.790  53.434  1.00  0.00    -0.351 N 
HETATM   28  C   UNL     1       5.329  28.411  54.596  1.00  0.00     0.043 C 
HETATM   29  H   UNL     1       6.937  28.573  53.217  1.00  0.00     0.166 HD
HETATM   30  C   UNL     1       4.083  29.013  54.566  1.00  0.00     0.033 C 
HETATM   31  C   UNL     1       3.934  29.639  53.308  1.00  0.00     0.037 C 
BRANCH  28  32
HETATM   32  C   UNL     1       5.936  27.541  55.603  1.00  0.00    -0.009 A 
HETATM   33  C   UNL     1       5.159  26.607  56.300  1.00  0.00     0.013 A 
HETATM   34  C   UNL     1       5.747  25.730  57.214  1.00  0.00     0.001 A 
HETATM   35  C   UNL     1       7.122  25.771  57.436  1.00  0.00     0.000 A 
HETATM   36  C   UNL     1       7.907  26.696  56.752  1.00  0.00     0.001 A 
HETATM   37  C   UNL     1       7.318  27.579  55.843  1.00  0.00     0.013 A 
ENDBRANCH  28  32
ENDBRANCH   1  26
TORSDOF 9
ENDMDL
MODEL 8
REMARK VINA RESULT:      -7.9      2.914      9.438
REMARK  9 active torsions:
REMARK  status: ('A' for Active; 'I' for Inactive)
REMARK    1  A    between atoms: C_4  and  C_5 
REMARK    2  A    between atoms: C_8  and  C_9 
REMARK       I    between atoms: C_9  and  N_10 
REMARK    3  A    between atoms: N_10  and  C_26 
REMARK    4  A    between atoms: N_10  and  C_11 
REMARK    5  A    between atoms: C_11  and  C_12 
REMARK    6  A    between atoms: C_11  and  C_21 
REMARK       I    between atoms: C_12  and  N_13 
REMARK    7  A    between atoms: N_13  and  C_14 
REMARK    8  A    between atoms: C_14  and  C_15 
REMARK    9  A    between atoms: C_26  and  C_27 
ROOT
HETATM    1  C   UNL     1       4.283  29.024  53.899  1.00  0.00     0.271 C 
HETATM    2  N   UNL     1       5.111  28.449  54.869  1.00  0.00    -0.324 N 
HETATM    3  O   UNL     1       3.371  29.782  54.231  1.00  0.00    -0.266 OA
ENDROOT
BRANCH   2   4
HETATM    4  C   UNL     1       4.596  28.454  56.247  1.00  0.00     0.173 C 
BRANCH   4   5
HETATM    5  C   UNL     1       4.725  29.793  56.902  1.00  0.00     0.000 A 
HETATM    6  S   UNL     1       3.349  30.578  57.562  1.00  0.00    -0.105 SA
HETATM    7  C   UNL     1       4.277  31.919  58.072  1.00  0.00     0.050 A 
HETATM    8  C   UNL     1       5.601  31.797  57.714  1.00  0.00     0.008 A 
HETATM    9  C   UNL     1       5.857  30.577  57.025  1.00  0.00     0.017 A 
ENDBRANCH   4   5
ENDBRANCH   2   4
BRANCH   2  10
HETATM   10  C   UNL     1       6.385  27.744  54.570  1.00  0.00     0.220 C 
BRANCH  10  11
HETATM   11  C   UNL     1       6.102  26.235  54.422  1.00  0.00     0.245 C 
HETATM   12  N   UNL     1       6.792  25.566  53.430  1.00  0.00    -0.357 N 
HETATM   13  H   UNL     1       7.228  26.120  52.699  1.00  0.00     0.162 HD
HETATM   14  O   UNL     1       5.449  25.649  55.291  1.00  0.00    -0.271 OA
BRANCH  12  15
HETATM   15  C   UNL     1       6.659  24.136  53.211  1.00  0.00     0.154 C 
BRANCH  15  16
HETATM   16  C   UNL     1       8.010  23.402  53.301  1.00  0.00     0.139 C 
HETATM   17  O   UNL     1       7.873  22.050  52.830  1.00  0.00    -0.384 OA
HETATM   18  C   UNL     1       7.753  21.175  53.961  1.00  0.00     0.168 C 
HETATM   19  C   UNL     1       7.804  22.029  55.212  1.00  0.00     0.029 C 
HETATM   20  C   UNL     1       8.503  23.278  54.734  1.00  0.00     0.035 C 
ENDBRANCH  15  16
ENDBRANCH  12  15
ENDBRANCH  10  11
BRANCH  10  21
HETATM   21  C   UNL     1       7.543  28.193  55.440  1.00  0.00     0.014 A 
HETATM   22  S   UNL     1       7.941  27.427  56.928  1.00  0.00    -0.104 SA
HETATM   23  C   UNL     1       9.334  28.387  57.146  1.00  0.00     0.050 A 
HETATM   24  C   UNL     1       9.538  29.244  56.090  1.00  0.00     0.008 A 
HETATM   25  C   UNL     1       8.524  29.114  55.101  1.00  0.00     0.017 A 
ENDBRANCH  10  21
ENDBRANCH   2  10
BRANCH   1  26
HETATM   26  C   UNL     1       4.518  28.746  52.496  1.00  0.00     0.101 C 
HETATM   27  N   UNL     1       3.585  28.331  51.564  1.00  0.00    -0.351 N 
HETATM   28  C   UNL     1       4.202  28.023  50.369  1.00  0.00     0.043 C 
HETATM   29  H   UNL     1       2.598  28.184  51.754  1.00  0.00     0.166 HD
HETATM   30  C   UNL     1       5.498  28.497  50.469  1.00  0.00     0.033 C 
HETATM   31  C   UNL     1       5.689  28.963  51.790  1.00  0.00     0.037 C 
BRANCH  28  32
HETATM   32  C   UNL     1       3.528  27.332  49.270  1.00  0.00    -0.009 A 
HETATM   33  C   UNL     1       2.330  27.831  48.744  1.00  0.00     0.013 A 
HETATM   34  C   UNL     1       1.718  27.212  47.651  1.00  0.00     0.001 A 
HETATM   35  C   UNL     1       2.303  26.090  47.067  1.00  0.00     0.000 A 
HETATM   36  C   UNL     1       3.494  25.582  47.581  1.00  0.00     0.001 A 
HETATM   37  C   UNL     1       4.101  26.197  48.679  1.00  0.00     0.013 A 
ENDBRANCH  28  32
ENDBRANCH   1  26
TORSDOF 9
ENDMDL
MODEL 9
REMARK VINA RESULT:      -7.7      5.366      8.626
REMARK  9 active torsions:
REMARK  status: ('A' for Active; 'I' for Inactive)
REMARK    1  A    between atoms: C_4  and  C_5 
REMARK    2  A    between atoms: C_8  and  C_9 
REMARK       I    between atoms: C_9  and  N_10 
REMARK    3  A    between atoms: N_10  and  C_26 
REMARK    4  A    between atoms: N_10  and  C_11 
REMARK    5  A    between atoms: C_11  and  C_12 
REMARK    6  A    between atoms: C_11  and  C_21 
REMARK       I    between atoms: C_12  and  N_13 
REMARK    7  A    between atoms: N_13  and  C_14 
REMARK    8  A    between atoms: C_14  and  C_15 
REMARK    9  A    between atoms: C_26  and  C_27 
ROOT
HETATM    1  C   UNL     1       4.019  28.124  52.737  1.00  0.00     0.271 C 
HETATM    2  N   UNL     1       3.785  28.650  51.462  1.00  0.00    -0.324 N 
HETATM    3  O   UNL     1       3.178  28.252  53.627  1.00  0.00    -0.266 OA
ENDROOT
BRANCH   2   4
HETATM    4  C   UNL     1       2.735  29.676  51.368  1.00  0.00     0.173 C 
BRANCH   4   5
HETATM    5  C   UNL     1       3.202  31.019  51.833  1.00  0.00     0.000 A 
HETATM    6  S   UNL     1       2.805  32.435  50.948  1.00  0.00    -0.105 SA
HETATM    7  C   UNL     1       3.638  33.437  52.052  1.00  0.00     0.050 A 
HETATM    8  C   UNL     1       4.243  32.712  53.053  1.00  0.00     0.008 A 
HETATM    9  C   UNL     1       4.004  31.315  52.918  1.00  0.00     0.017 A 
ENDBRANCH   4   5
ENDBRANCH   2   4
BRANCH   2  10
HETATM   10  C   UNL     1       4.599  28.328  50.261  1.00  0.00     0.220 C 
BRANCH  10  11
HETATM   11  C   UNL     1       5.283  29.616  49.758  1.00  0.00     0.245 C 
HETATM   12  N   UNL     1       4.730  30.223  48.648  1.00  0.00    -0.357 N 
HETATM   13  H   UNL     1       4.095  29.676  48.075  1.00  0.00     0.162 HD
HETATM   14  O   UNL     1       6.146  30.160  50.455  1.00  0.00    -0.271 OA
BRANCH  12  15
HETATM   15  C   UNL     1       5.242  31.466  48.097  1.00  0.00     0.154 C 
BRANCH  15  16
HETATM   16  C   UNL     1       4.148  32.291  47.396  1.00  0.00     0.139 C 
HETATM   17  O   UNL     1       3.101  31.426  46.923  1.00  0.00    -0.384 OA
HETATM   18  C   UNL     1       3.292  31.192  45.520  1.00  0.00     0.168 C 
HETATM   19  C   UNL     1       4.537  31.941  45.093  1.00  0.00     0.029 C 
HETATM   20  C   UNL     1       4.668  33.003  46.157  1.00  0.00     0.035 C 
ENDBRANCH  15  16
ENDBRANCH  12  15
ENDBRANCH  10  11
BRANCH  10  21
HETATM   21  C   UNL     1       3.881  27.441  49.263  1.00  0.00     0.014 A 
HETATM   22  S   UNL     1       2.328  27.820  48.627  1.00  0.00    -0.104 SA
HETATM   23  C   UNL     1       2.344  26.484  47.567  1.00  0.00     0.050 A 
HETATM   24  C   UNL     1       3.523  25.780  47.644  1.00  0.00     0.008 A 
HETATM   25  C   UNL     1       4.413  26.345  48.599  1.00  0.00     0.017 A 
ENDBRANCH  10  21
ENDBRANCH   2  10
BRANCH   1  26
HETATM   26  C   UNL     1       5.249  27.402  53.001  1.00  0.00     0.101 C 
HETATM   27  N   UNL     1       5.430  26.032  52.972  1.00  0.00    -0.351 N 
HETATM   28  C   UNL     1       6.692  25.704  53.421  1.00  0.00     0.043 C 
HETATM   29  H   UNL     1       4.710  25.355  52.740  1.00  0.00     0.166 HD
HETATM   30  C   UNL     1       7.401  26.890  53.487  1.00  0.00     0.033 C 
HETATM   31  C   UNL     1       6.505  27.947  53.209  1.00  0.00     0.037 C 
BRANCH  28  32
HETATM   32  C   UNL     1       7.104  24.336  53.735  1.00  0.00    -0.009 A 
HETATM   33  C   UNL     1       7.569  23.483  52.726  1.00  0.00     0.013 A 
HETATM   34  C   UNL     1       8.025  22.198  53.032  1.00  0.00     0.001 A 
HETATM   35  C   UNL     1       8.029  21.754  54.353  1.00  0.00     0.000 A 
HETATM   36  C   UNL     1       7.567  22.591  55.366  1.00  0.00     0.001 A 
HETATM   37  C   UNL     1       7.103  23.873  55.059  1.00  0.00     0.013 A 
ENDBRANCH  28  32
ENDBRANCH   1  26
TORSDOF 9
ENDMDL
MODEL 10
REMARK VINA RESULT:      -7.7      2.793      6.983
REMARK  9 active torsions:
REMARK  status: ('A' for Active; 'I' for Inactive)
REMARK    1  A    between atoms: C_4  and  C_5 
REMARK    2  A    between atoms: C_8  and  C_9 
REMARK       I    between atoms: C_9  and  N_10 
REMARK    3  A    between atoms: N_10  and  C_26 
REMARK    4  A    between atoms: N_10  and  C_11 
REMARK    5  A    between atoms: C_11  and  C_12 
REMARK    6  A    between atoms: C_11  and  C_21 
REMARK       I    between atoms: C_12  and  N_13 
REMARK    7  A    between atoms: N_13  and  C_14 
REMARK    8  A    between atoms: C_14  and  C_15 
REMARK    9  A    between atoms: C_26  and  C_27 
ROOT
HETATM    1  C   UNL     1       6.403  27.223  53.533  1.00  0.00     0.271 C 
HETATM    2  N   UNL     1       6.156  28.391  54.263  1.00  0.00    -0.324 N 
HETATM    3  O   UNL     1       6.578  27.276  52.316  1.00  0.00    -0.266 OA
ENDROOT
BRANCH   2   4
HETATM    4  C   UNL     1       5.713  29.558  53.487  1.00  0.00     0.173 C 
BRANCH   4   5
HETATM    5  C   UNL     1       4.551  29.248  52.596  1.00  0.00     0.000 A 
HETATM    6  S   UNL     1       4.583  29.686  50.937  1.00  0.00    -0.105 SA
HETATM    7  C   UNL     1       3.028  29.030  50.667  1.00  0.00     0.050 A 
HETATM    8  C   UNL     1       2.475  28.523  51.820  1.00  0.00     0.008 A 
HETATM    9  C   UNL     1       3.347  28.663  52.937  1.00  0.00     0.017 A 
ENDBRANCH   4   5
ENDBRANCH   2   4
BRANCH   2  10
HETATM   10  C   UNL     1       6.194  28.474  55.747  1.00  0.00     0.220 C 
BRANCH  10  11
HETATM   11  C   UNL     1       4.879  29.106  56.249  1.00  0.00     0.245 C 
HETATM   12  N   UNL     1       4.902  30.460  56.519  1.00  0.00    -0.357 N 
HETATM   13  H   UNL     1       5.807  30.906  56.632  1.00  0.00     0.162 HD
HETATM   14  O   UNL     1       3.832  28.453  56.202  1.00  0.00    -0.271 OA
BRANCH  12  15
HETATM   15  C   UNL     1       3.724  31.193  56.951  1.00  0.00     0.154 C 
BRANCH  15  16
HETATM   16  C   UNL     1       3.611  32.571  56.275  1.00  0.00     0.139 C 
HETATM   17  O   UNL     1       2.246  33.022  56.292  1.00  0.00    -0.384 OA
HETATM   18  C   UNL     1       1.656  32.767  55.009  1.00  0.00     0.168 C 
HETATM   19  C   UNL     1       2.708  32.105  54.142  1.00  0.00     0.029 C 
HETATM   20  C   UNL     1       3.997  32.525  54.805  1.00  0.00     0.035 C 
ENDBRANCH  15  16
ENDBRANCH  12  15
ENDBRANCH  10  11
BRANCH  10  21
HETATM   21  C   UNL     1       7.512  28.992  56.289  1.00  0.00     0.014 A 
HETATM   22  S   UNL     1       7.792  29.250  57.966  1.00  0.00    -0.104 SA
HETATM   23  C   UNL     1       9.430  29.658  57.716  1.00  0.00     0.050 A 
HETATM   24  C   UNL     1       9.788  29.555  56.392  1.00  0.00     0.008 A 
HETATM   25  C   UNL     1       8.694  29.148  55.579  1.00  0.00     0.017 A 
ENDBRANCH  10  21
ENDBRANCH   2  10
BRANCH   1  26
HETATM   26  C   UNL     1       6.479  25.949  54.220  1.00  0.00     0.101 C 
HETATM   27  N   UNL     1       7.380  24.928  53.979  1.00  0.00    -0.351 N 
HETATM   28  C   UNL     1       7.055  23.813  54.724  1.00  0.00     0.043 C 
HETATM   29  H   UNL     1       8.122  24.958  53.287  1.00  0.00     0.166 HD
HETATM   30  C   UNL     1       6.097  24.221  55.635  1.00  0.00     0.033 C 
HETATM   31  C   UNL     1       5.752  25.558  55.332  1.00  0.00     0.037 C 
BRANCH  28  32
HETATM   32  C   UNL     1       7.665  22.500  54.515  1.00  0.00    -0.009 A 
HETATM   33  C   UNL     1       7.964  21.672  55.604  1.00  0.00     0.013 A 
HETATM   34  C   UNL     1       8.485  20.391  55.406  1.00  0.00     0.001 A 
HETATM   35  C   UNL     1       8.706  19.920  54.113  1.00  0.00     0.000 A 
HETATM   36  C   UNL     1       8.414  20.733  53.020  1.00  0.00     0.001 A 
HETATM   37  C   UNL     1       7.901  22.018  53.219  1.00  0.00     0.013 A 
ENDBRANCH  28  32
ENDBRANCH   1  26
TORSDOF 9
ENDMDL
