MODEL 1
REMARK VINA RESULT:      -9.7      0.000      0.000
REMARK  6 active torsions:
REMARK  status: ('A' for Active; 'I' for Inactive)
REMARK    1  A    between atoms: C_3  and  N_4 
REMARK       I    between atoms: N_4  and  C_5 
REMARK    2  A    between atoms: C_5  and  C_6 
REMARK    3  A    between atoms: C_6  and  N_7 
REMARK    4  A    between atoms: N_7  and  C_9 
REMARK    5  A    between atoms: C_9  and  C_10 
REMARK    6  A    between atoms: C_18  and  O_19 
ROOT
HETATM    1  N   UNL     1       8.425  29.095  57.902  1.00  0.00    -0.063 N 
HETATM    2  H   UNL     1       8.803  29.080  58.862  1.00  0.00     0.280 HD
HETATM    3  C   UNL     1       9.574  28.805  56.985  1.00  0.00     0.270 C 
ENDROOT
BRANCH   1   4
HETATM    4  C   UNL     1       7.902  30.527  57.730  1.00  0.00     0.337 C 
BRANCH   4   5
HETATM    5  C   UNL     1       8.128  31.393  58.973  1.00  0.00     0.248 C 
HETATM    6  N   UNL     1       7.241  31.146  60.005  1.00  0.00    -0.325 N 
HETATM    7  H   UNL     1       6.338  30.763  59.749  1.00  0.00     0.169 HD
HETATM    8  O   UNL     1       9.009  32.251  58.956  1.00  0.00    -0.271 OA
BRANCH   6   9
HETATM    9  C   UNL     1       7.249  31.869  61.229  1.00  0.00     0.046 A 
HETATM   10  C   UNL     1       6.270  32.875  61.409  1.00  0.00    -0.035 A 
HETATM   11  C   UNL     1       5.232  33.202  60.368  1.00  0.00     0.050 C 
HETATM   12  C   UNL     1       6.264  33.626  62.596  1.00  0.00     0.009 A 
HETATM   13  C   UNL     1       7.205  33.392  63.590  1.00  0.00     0.001 A 
HETATM   14  C   UNL     1       8.143  32.379  63.429  1.00  0.00     0.009 A 
HETATM   15  C   UNL     1       8.160  31.583  62.269  1.00  0.00    -0.035 A 
HETATM   16  C   UNL     1       9.136  30.439  62.250  1.00  0.00     0.050 C 
ENDBRANCH   6   9
ENDBRANCH   4   5
ENDBRANCH   1   4
BRANCH   1  17
HETATM   17  C   UNL     1       7.373  27.991  57.940  1.00  0.00     0.276 C 
BRANCH  17  18
HETATM   18  C   UNL     1       7.413  26.956  56.857  1.00  0.00     0.009 A 
HETATM   19  C   UNL     1       6.975  27.186  55.560  1.00  0.00     0.134 A 
HETATM   20 CL   UNL     1       6.344  28.700  55.040  1.00  0.00    -0.062 Cl
HETATM   21  N   UNL     1       6.997  26.276  54.570  1.00  0.00    -0.235 NA
HETATM   22  C   UNL     1       7.521  25.066  54.823  1.00  0.00     0.071 A 
HETATM   23  C   UNL     1       8.023  24.723  56.092  1.00  0.00    -0.006 A 
HETATM   24  C   UNL     1       7.588  24.121  53.809  1.00  0.00     0.069 A 
HETATM   25  C   UNL     1       7.957  25.689  57.109  1.00  0.00     0.026 A 
HETATM   26  C   UNL     1       8.577  23.451  56.309  1.00  0.00     0.016 A 
HETATM   27  C   UNL     1       8.639  22.520  55.269  1.00  0.00     0.038 A 
HETATM   28  C   UNL     1       8.147  22.855  54.011  1.00  0.00     0.070 A 
BRANCH  28  29
HETATM   29  O   UNL     1       8.148  22.050  52.908  1.00  0.00    -0.356 OA
HETATM   30  C   UNL     1       8.270  20.649  53.125  1.00  0.00     0.210 C 
ENDBRANCH  28  29
ENDBRANCH  17  18
ENDBRANCH   1  17
TORSDOF 6
ENDMDL
MODEL 2
REMARK VINA RESULT:      -9.6      1.777     10.041
REMARK  6 active torsions:
REMARK  status: ('A' for Active; 'I' for Inactive)
REMARK    1  A    between atoms: C_3  and  N_4 
REMARK       I    between atoms: N_4  and  C_5 
REMARK    2  A    between atoms: C_5  and  C_6 
REMARK    3  A    between atoms: C_6  and  N_7 
REMARK    4  A    between atoms: N_7  and  C_9 
REMARK    5  A    between atoms: C_9  and  C_10 
REMARK    6  A    between atoms: C_18  and  O_19 
ROOT
HETATM    1  N   UNL     1       7.395  27.469  56.205  1.00  0.00    -0.063 N 
HETATM    2  H   UNL     1       6.528  27.738  56.696  1.00  0.00     0.280 HD
HETATM    3  C   UNL     1       7.015  27.191  54.784  1.00  0.00     0.270 C 
ENDROOT
BRANCH   1   4
HETATM    4  C   UNL     1       7.858  26.201  56.935  1.00  0.00     0.337 C 
BRANCH   4   5
HETATM    5  C   UNL     1       7.407  24.917  56.232  1.00  0.00     0.248 C 
HETATM    6  N   UNL     1       8.437  24.199  55.650  1.00  0.00    -0.325 N 
HETATM    7  H   UNL     1       9.263  24.721  55.382  1.00  0.00     0.169 HD
HETATM    8  O   UNL     1       6.209  24.645  56.186  1.00  0.00    -0.271 OA
BRANCH   6   9
HETATM    9  C   UNL     1       8.231  23.002  54.913  1.00  0.00     0.046 A 
HETATM   10  C   UNL     1       8.180  21.783  55.631  1.00  0.00    -0.035 A 
HETATM   11  C   UNL     1       8.334  21.708  57.128  1.00  0.00     0.050 C 
HETATM   12  C   UNL     1       8.003  20.577  54.932  1.00  0.00     0.009 A 
HETATM   13  C   UNL     1       7.876  20.570  53.549  1.00  0.00     0.001 A 
HETATM   14  C   UNL     1       7.888  21.770  52.848  1.00  0.00     0.009 A 
HETATM   15  C   UNL     1       8.031  23.000  53.516  1.00  0.00    -0.035 A 
HETATM   16  C   UNL     1       7.907  24.241  52.676  1.00  0.00     0.050 C 
ENDBRANCH   6   9
ENDBRANCH   4   5
ENDBRANCH   1   4
BRANCH   1  17
HETATM   17  C   UNL     1       8.273  28.705  56.378  1.00  0.00     0.276 C 
BRANCH  17  18
HETATM   18  C   UNL     1       7.932  29.647  57.493  1.00  0.00     0.009 A 
HETATM   19  C   UNL     1       6.796  30.445  57.504  1.00  0.00     0.134 A 
HETATM   20 CL   UNL     1       5.633  30.432  56.236  1.00  0.00    -0.062 Cl
HETATM   21  N   UNL     1       6.468  31.300  58.489  1.00  0.00    -0.235 NA
HETATM   22  C   UNL     1       7.260  31.367  59.570  1.00  0.00     0.071 A 
HETATM   23  C   UNL     1       8.426  30.587  59.688  1.00  0.00    -0.006 A 
HETATM   24  C   UNL     1       6.925  32.215  60.615  1.00  0.00     0.069 A 
HETATM   25  C   UNL     1       8.752  29.727  58.627  1.00  0.00     0.026 A 
HETATM   26  C   UNL     1       9.218  30.678  60.844  1.00  0.00     0.016 A 
HETATM   27  C   UNL     1       8.855  31.534  61.885  1.00  0.00     0.038 A 
HETATM   28  C   UNL     1       7.701  32.305  61.776  1.00  0.00     0.070 A 
BRANCH  28  29
HETATM   29  O   UNL     1       7.224  33.177  62.713  1.00  0.00    -0.356 OA
HETATM   30  C   UNL     1       7.741  33.057  64.034  1.00  0.00     0.210 C 
ENDBRANCH  28  29
ENDBRANCH  17  18
ENDBRANCH   1  17
TORSDOF 6
ENDMDL
MODEL 3
REMARK VINA RESULT:      -9.5      1.985      9.852
REMARK  6 active torsions:
REMARK  status: ('A' for Active; 'I' for Inactive)
REMARK    1  A    between atoms: C_3  and  N_4 
REMARK       I    between atoms: N_4  and  C_5 
REMARK    2  A    between atoms: C_5  and  C_6 
REMARK    3  A    between atoms: C_6  and  N_7 
REMARK    4  A    between atoms: N_7  and  C_9 
REMARK    5  A    between atoms: C_9  and  C_10 
REMARK    6  A    between atoms: C_18  and  O_19 
ROOT
HETATM    1  N   UNL     1       6.207  28.478  56.016  1.00  0.00    -0.063 N 
HETATM    2  H   UNL     1       6.921  27.910  56.496  1.00  0.00     0.280 HD
HETATM    3  C   UNL     1       4.905  28.197  56.701  1.00  0.00     0.270 C 
ENDROOT
BRANCH   1   4
HETATM    4  C   UNL     1       6.221  27.956  54.573  1.00  0.00     0.337 C 
BRANCH   4   5
HETATM    5  C   UNL     1       6.190  26.427  54.497  1.00  0.00     0.248 C 
HETATM    6  N   UNL     1       7.440  25.834  54.521  1.00  0.00    -0.325 N 
HETATM    7  H   UNL     1       8.218  26.393  54.189  1.00  0.00     0.169 HD
HETATM    8  O   UNL     1       5.111  25.852  54.372  1.00  0.00    -0.271 OA
BRANCH   6   9
HETATM    9  C   UNL     1       7.637  24.430  54.417  1.00  0.00     0.046 A 
HETATM   10  C   UNL     1       7.802  23.879  53.123  1.00  0.00    -0.035 A 
HETATM   11  C   UNL     1       7.777  24.714  51.870  1.00  0.00     0.050 C 
HETATM   12  C   UNL     1       7.974  22.493  52.980  1.00  0.00     0.009 A 
HETATM   13  C   UNL     1       7.985  21.660  54.092  1.00  0.00     0.001 A 
HETATM   14  C   UNL     1       7.861  22.205  55.365  1.00  0.00     0.009 A 
HETATM   15  C   UNL     1       7.720  23.592  55.550  1.00  0.00    -0.035 A 
HETATM   16  C   UNL     1       7.718  24.086  56.971  1.00  0.00     0.050 C 
ENDBRANCH   6   9
ENDBRANCH   4   5
ENDBRANCH   1   4
BRANCH   1  17
HETATM   17  C   UNL     1       6.718  29.901  56.224  1.00  0.00     0.276 C 
BRANCH  17  18
HETATM   18  C   UNL     1       7.163  30.283  57.603  1.00  0.00     0.009 A 
HETATM   19  C   UNL     1       8.307  29.779  58.207  1.00  0.00     0.134 A 
HETATM   20 CL   UNL     1       9.360  28.662  57.431  1.00  0.00    -0.062 Cl
HETATM   21  N   UNL     1       8.728  30.102  59.443  1.00  0.00    -0.235 NA
HETATM   22  C   UNL     1       8.030  31.012  60.141  1.00  0.00     0.071 A 
HETATM   23  C   UNL     1       6.867  31.614  59.624  1.00  0.00    -0.006 A 
HETATM   24  C   UNL     1       8.463  31.388  61.404  1.00  0.00     0.069 A 
HETATM   25  C   UNL     1       6.442  31.231  58.342  1.00  0.00     0.026 A 
HETATM   26  C   UNL     1       6.176  32.572  60.382  1.00  0.00     0.016 A 
HETATM   27  C   UNL     1       6.637  32.940  61.649  1.00  0.00     0.038 A 
HETATM   28  C   UNL     1       7.788  32.351  62.163  1.00  0.00     0.070 A 
BRANCH  28  29
HETATM   29  O   UNL     1       8.353  32.616  63.378  1.00  0.00    -0.356 OA
HETATM   30  C   UNL     1       7.514  33.192  64.373  1.00  0.00     0.210 C 
ENDBRANCH  28  29
ENDBRANCH  17  18
ENDBRANCH   1  17
TORSDOF 6
ENDMDL
MODEL 4
REMARK VINA RESULT:      -9.5      1.792      9.851
REMARK  6 active torsions:
REMARK  status: ('A' for Active; 'I' for Inactive)
REMARK    1  A    between atoms: C_3  and  N_4 
REMARK       I    between atoms: N_4  and  C_5 
REMARK    2  A    between atoms: C_5  and  C_6 
REMARK    3  A    between atoms: C_6  and  N_7 
REMARK    4  A    between atoms: N_7  and  C_9 
REMARK    5  A    between atoms: C_9  and  C_10 
REMARK    6  A    between atoms: C_18  and  O_19 
ROOT
HETATM    1  N   UNL     1       7.901  27.812  56.446  1.00  0.00    -0.063 N 
HETATM    2  H   UNL     1       8.737  27.266  56.186  1.00  0.00     0.280 HD
HETATM    3  C   UNL     1       7.423  27.266  57.756  1.00  0.00     0.270 C 
ENDROOT
BRANCH   1   4
HETATM    4  C   UNL     1       6.907  27.532  55.311  1.00  0.00     0.337 C 
BRANCH   4   5
HETATM    5  C   UNL     1       6.703  26.036  55.058  1.00  0.00     0.248 C 
HETATM    6  N   UNL     1       7.874  25.334  54.832  1.00  0.00    -0.325 N 
HETATM    7  H   UNL     1       8.657  25.861  54.461  1.00  0.00     0.169 HD
HETATM    8  O   UNL     1       5.561  25.582  55.021  1.00  0.00    -0.271 OA
BRANCH   6   9
HETATM    9  C   UNL     1       7.903  23.945  54.534  1.00  0.00     0.046 A 
HETATM   10  C   UNL     1       7.863  23.560  53.172  1.00  0.00    -0.035 A 
HETATM   11  C   UNL     1       7.792  24.553  52.043  1.00  0.00     0.050 C 
HETATM   12  C   UNL     1       7.866  22.194  52.842  1.00  0.00     0.009 A 
HETATM   13  C   UNL     1       7.908  21.223  53.834  1.00  0.00     0.001 A 
HETATM   14  C   UNL     1       7.986  21.602  55.169  1.00  0.00     0.009 A 
HETATM   15  C   UNL     1       8.018  22.959  55.538  1.00  0.00    -0.035 A 
HETATM   16  C   UNL     1       8.227  23.257  56.997  1.00  0.00     0.050 C 
ENDBRANCH   6   9
ENDBRANCH   4   5
ENDBRANCH   1   4
BRANCH   1  17
HETATM   17  C   UNL     1       8.445  29.235  56.532  1.00  0.00     0.276 C 
BRANCH  17  18
HETATM   18  C   UNL     1       8.013  30.073  57.698  1.00  0.00     0.009 A 
HETATM   19  C   UNL     1       6.798  30.743  57.752  1.00  0.00     0.134 A 
HETATM   20 CL   UNL     1       5.636  30.677  56.486  1.00  0.00    -0.062 Cl
HETATM   21  N   UNL     1       6.388  31.503  58.783  1.00  0.00    -0.235 NA
HETATM   22  C   UNL     1       7.174  31.594  59.866  1.00  0.00     0.071 A 
HETATM   23  C   UNL     1       8.417  30.937  59.940  1.00  0.00    -0.006 A 
HETATM   24  C   UNL     1       6.757  32.343  60.957  1.00  0.00     0.069 A 
HETATM   25  C   UNL     1       8.826  30.176  58.834  1.00  0.00     0.026 A 
HETATM   26  C   UNL     1       9.202  31.048  61.100  1.00  0.00     0.016 A 
HETATM   27  C   UNL     1       8.756  31.803  62.187  1.00  0.00     0.038 A 
HETATM   28  C   UNL     1       7.526  32.451  62.121  1.00  0.00     0.070 A 
BRANCH  28  29
HETATM   29  O   UNL     1       6.965  33.215  63.105  1.00  0.00    -0.356 OA
HETATM   30  C   UNL     1       7.649  33.272  64.352  1.00  0.00     0.210 C 
ENDBRANCH  28  29
ENDBRANCH  17  18
ENDBRANCH   1  17
TORSDOF 6
ENDMDL
MODEL 5
REMARK VINA RESULT:      -9.5      2.510      9.188
REMARK  6 active torsions:
REMARK  status: ('A' for Active; 'I' for Inactive)
REMARK    1  A    between atoms: C_3  and  N_4 
REMARK       I    between atoms: N_4  and  C_5 
REMARK    2  A    between atoms: C_5  and  C_6 
REMARK    3  A    between atoms: C_6  and  N_7 
REMARK    4  A    between atoms: N_7  and  C_9 
REMARK    5  A    between atoms: C_9  and  C_10 
REMARK    6  A    between atoms: C_18  and  O_19 
ROOT
HETATM    1  N   UNL     1       6.131  26.452  52.348  1.00  0.00    -0.063 N 
HETATM    2  H   UNL     1       5.528  26.195  53.146  1.00  0.00     0.280 HD
HETATM    3  C   UNL     1       5.344  26.165  51.107  1.00  0.00     0.270 C 
ENDROOT
BRANCH   1   4
HETATM    4  C   UNL     1       7.346  25.525  52.486  1.00  0.00     0.337 C 
BRANCH   4   5
HETATM    5  C   UNL     1       7.162  24.466  53.576  1.00  0.00     0.248 C 
HETATM    6  N   UNL     1       8.260  23.644  53.758  1.00  0.00    -0.325 N 
HETATM    7  H   UNL     1       8.879  23.526  52.964  1.00  0.00     0.169 HD
HETATM    8  O   UNL     1       6.082  24.381  54.157  1.00  0.00    -0.271 OA
BRANCH   6   9
HETATM    9  C   UNL     1       8.283  22.570  54.688  1.00  0.00     0.046 A 
HETATM   10  C   UNL     1       8.120  21.257  54.186  1.00  0.00    -0.035 A 
HETATM   11  C   UNL     1       7.927  20.959  52.722  1.00  0.00     0.050 C 
HETATM   12  C   UNL     1       8.111  20.173  55.079  1.00  0.00     0.009 A 
HETATM   13  C   UNL     1       8.262  20.376  56.445  1.00  0.00     0.001 A 
HETATM   14  C   UNL     1       8.460  21.662  56.935  1.00  0.00     0.009 A 
HETATM   15  C   UNL     1       8.507  22.769  56.068  1.00  0.00    -0.035 A 
HETATM   16  C   UNL     1       8.848  24.097  56.688  1.00  0.00     0.050 C 
ENDBRANCH   6   9
ENDBRANCH   4   5
ENDBRANCH   1   4
BRANCH   1  17
HETATM   17  C   UNL     1       6.385  27.938  52.588  1.00  0.00     0.276 C 
BRANCH  17  18
HETATM   18  C   UNL     1       6.625  28.382  53.999  1.00  0.00     0.009 A 
HETATM   19  C   UNL     1       5.611  28.565  54.929  1.00  0.00     0.134 A 
HETATM   20 CL   UNL     1       3.952  28.287  54.570  1.00  0.00    -0.062 Cl
HETATM   21  N   UNL     1       5.798  28.964  56.199  1.00  0.00    -0.235 NA
HETATM   22  C   UNL     1       7.054  29.160  56.632  1.00  0.00     0.071 A 
HETATM   23  C   UNL     1       8.167  28.980  55.789  1.00  0.00    -0.006 A 
HETATM   24  C   UNL     1       7.276  29.539  57.948  1.00  0.00     0.069 A 
HETATM   25  C   UNL     1       7.932  28.591  54.462  1.00  0.00     0.026 A 
HETATM   26  C   UNL     1       9.465  29.182  56.287  1.00  0.00     0.016 A 
HETATM   27  C   UNL     1       9.662  29.556  57.619  1.00  0.00     0.038 A 
HETATM   28  C   UNL     1       8.565  29.732  58.457  1.00  0.00     0.070 A 
BRANCH  28  29
HETATM   29  O   UNL     1       8.608  30.089  59.775  1.00  0.00    -0.356 OA
HETATM   30  C   UNL     1       8.884  31.454  60.069  1.00  0.00     0.210 C 
ENDBRANCH  28  29
ENDBRANCH  17  18
ENDBRANCH   1  17
TORSDOF 6
ENDMDL
MODEL 6
REMARK VINA RESULT:      -9.4      4.685      8.911
REMARK  6 active torsions:
REMARK  status: ('A' for Active; 'I' for Inactive)
REMARK    1  A    between atoms: C_3  and  N_4 
REMARK       I    between atoms: N_4  and  C_5 
REMARK    2  A    between atoms: C_5  and  C_6 
REMARK    3  A    between atoms: C_6  and  N_7 
REMARK    4  A    between atoms: N_7  and  C_9 
REMARK    5  A    between atoms: C_9  and  C_10 
REMARK    6  A    between atoms: C_18  and  O_19 
ROOT
HETATM    1  N   UNL     1       6.950  26.657  56.430  1.00  0.00    -0.063 N 
HETATM    2  H   UNL     1       7.218  26.388  55.471  1.00  0.00     0.280 HD
HETATM    3  C   UNL     1       7.808  27.827  56.803  1.00  0.00     0.270 C 
ENDROOT
BRANCH   1   4
HETATM    4  C   UNL     1       7.275  25.415  57.270  1.00  0.00     0.337 C 
BRANCH   4   5
HETATM    5  C   UNL     1       8.023  24.341  56.475  1.00  0.00     0.248 C 
HETATM    6  N   UNL     1       7.198  23.482  55.771  1.00  0.00    -0.325 N 
HETATM    7  H   UNL     1       6.256  23.359  56.126  1.00  0.00     0.169 HD
HETATM    8  O   UNL     1       9.248  24.280  56.550  1.00  0.00    -0.271 OA
BRANCH   6   9
HETATM    9  C   UNL     1       7.686  22.389  55.004  1.00  0.00     0.046 A 
HETATM   10  C   UNL     1       7.780  22.556  53.601  1.00  0.00    -0.035 A 
HETATM   11  C   UNL     1       7.389  23.830  52.901  1.00  0.00     0.050 C 
HETATM   12  C   UNL     1       8.235  21.489  52.809  1.00  0.00     0.009 A 
HETATM   13  C   UNL     1       8.592  20.277  53.386  1.00  0.00     0.001 A 
HETATM   14  C   UNL     1       8.535  20.126  54.767  1.00  0.00     0.009 A 
HETATM   15  C   UNL     1       8.116  21.182  55.596  1.00  0.00    -0.035 A 
HETATM   16  C   UNL     1       8.209  20.953  57.080  1.00  0.00     0.050 C 
ENDBRANCH   6   9
ENDBRANCH   4   5
ENDBRANCH   1   4
BRANCH   1  17
HETATM   17  C   UNL     1       5.471  27.001  56.279  1.00  0.00     0.276 C 
BRANCH  17  18
HETATM   18  C   UNL     1       4.992  27.418  54.921  1.00  0.00     0.009 A 
HETATM   19  C   UNL     1       4.237  28.561  54.692  1.00  0.00     0.134 A 
HETATM   20 CL   UNL     1       3.775  29.643  55.947  1.00  0.00    -0.062 Cl
HETATM   21  N   UNL     1       3.792  28.957  53.487  1.00  0.00    -0.235 NA
HETATM   22  C   UNL     1       4.132  28.234  52.408  1.00  0.00     0.071 A 
HETATM   23  C   UNL     1       4.916  27.070  52.510  1.00  0.00    -0.006 A 
HETATM   24  C   UNL     1       3.714  28.642  51.149  1.00  0.00     0.069 A 
HETATM   25  C   UNL     1       5.338  26.671  53.788  1.00  0.00     0.026 A 
HETATM   26  C   UNL     1       5.261  26.352  51.353  1.00  0.00     0.016 A 
HETATM   27  C   UNL     1       4.834  26.787  50.096  1.00  0.00     0.038 A 
HETATM   28  C   UNL     1       4.061  27.940  49.990  1.00  0.00     0.070 A 
BRANCH  28  29
HETATM   29  O   UNL     1       3.581  28.482  48.831  1.00  0.00    -0.356 OA
HETATM   30  C   UNL     1       4.029  27.905  47.610  1.00  0.00     0.210 C 
ENDBRANCH  28  29
ENDBRANCH  17  18
ENDBRANCH   1  17
TORSDOF 6
ENDMDL
MODEL 7
REMARK VINA RESULT:      -9.2      5.155      8.388
REMARK  6 active torsions:
REMARK  status: ('A' for Active; 'I' for Inactive)
REMARK    1  A    between atoms: C_3  and  N_4 
REMARK       I    between atoms: N_4  and  C_5 
REMARK    2  A    between atoms: C_5  and  C_6 
REMARK    3  A    between atoms: C_6  and  N_7 
REMARK    4  A    between atoms: N_7  and  C_9 
REMARK    5  A    between atoms: C_9  and  C_10 
REMARK    6  A    between atoms: C_18  and  O_19 
ROOT
HETATM    1  N   UNL     1       5.227  28.362  54.794  1.00  0.00    -0.063 N 
HETATM    2  H   UNL     1       4.911  27.500  54.324  1.00  0.00     0.280 HD
HETATM    3  C   UNL     1       4.520  28.418  56.113  1.00  0.00     0.270 C 
ENDROOT
BRANCH   1   4
HETATM    4  C   UNL     1       4.775  29.486  53.852  1.00  0.00     0.337 C 
BRANCH   4   5
HETATM    5  C   UNL     1       4.340  28.969  52.478  1.00  0.00     0.248 C 
HETATM    6  N   UNL     1       5.389  28.609  51.650  1.00  0.00    -0.325 N 
HETATM    7  H   UNL     1       6.280  29.062  51.819  1.00  0.00     0.169 HD
HETATM    8  O   UNL     1       3.145  28.955  52.191  1.00  0.00    -0.271 OA
BRANCH   6   9
HETATM    9  C   UNL     1       5.205  28.146  50.320  1.00  0.00     0.046 A 
HETATM   10  C   UNL     1       5.350  29.082  49.267  1.00  0.00    -0.035 A 
HETATM   11  C   UNL     1       5.687  30.531  49.502  1.00  0.00     0.050 C 
HETATM   12  C   UNL     1       5.151  28.664  47.941  1.00  0.00     0.009 A 
HETATM   13  C   UNL     1       4.817  27.347  47.653  1.00  0.00     0.001 A 
HETATM   14  C   UNL     1       4.713  26.419  48.683  1.00  0.00     0.009 A 
HETATM   15  C   UNL     1       4.936  26.792  50.021  1.00  0.00    -0.035 A 
HETATM   16  C   UNL     1       4.918  25.687  51.041  1.00  0.00     0.050 C 
ENDBRANCH   6   9
ENDBRANCH   4   5
ENDBRANCH   1   4
BRANCH   1  17
HETATM   17  C   UNL     1       6.733  28.144  54.910  1.00  0.00     0.276 C 
BRANCH  17  18
HETATM   18  C   UNL     1       7.222  26.733  55.033  1.00  0.00     0.009 A 
HETATM   19  C   UNL     1       7.613  26.159  56.235  1.00  0.00     0.134 A 
HETATM   20 CL   UNL     1       7.567  27.003  57.733  1.00  0.00    -0.062 Cl
HETATM   21  N   UNL     1       8.057  24.897  56.374  1.00  0.00    -0.235 NA
HETATM   22  C   UNL     1       8.089  24.105  55.291  1.00  0.00     0.071 A 
HETATM   23  C   UNL     1       7.691  24.566  54.021  1.00  0.00    -0.006 A 
HETATM   24  C   UNL     1       8.510  22.789  55.414  1.00  0.00     0.069 A 
HETATM   25  C   UNL     1       7.260  25.897  53.909  1.00  0.00     0.026 A 
HETATM   26  C   UNL     1       7.726  23.698  52.917  1.00  0.00     0.016 A 
HETATM   27  C   UNL     1       8.147  22.375  53.069  1.00  0.00     0.038 A 
HETATM   28  C   UNL     1       8.538  21.914  54.323  1.00  0.00     0.070 A 
BRANCH  28  29
HETATM   29  O   UNL     1       8.965  20.650  54.618  1.00  0.00    -0.356 OA
HETATM   30  C   UNL     1       9.221  20.354  55.986  1.00  0.00     0.210 C 
ENDBRANCH  28  29
ENDBRANCH  17  18
ENDBRANCH   1  17
TORSDOF 6
ENDMDL
MODEL 8
REMARK VINA RESULT:      -9.1      2.179      9.676
REMARK  6 active torsions:
REMARK  status: ('A' for Active; 'I' for Inactive)
REMARK    1  A    between atoms: C_3  and  N_4 
REMARK       I    between atoms: N_4  and  C_5 
REMARK    2  A    between atoms: C_5  and  C_6 
REMARK    3  A    between atoms: C_6  and  N_7 
REMARK    4  A    between atoms: N_7  and  C_9 
REMARK    5  A    between atoms: C_9  and  C_10 
REMARK    6  A    between atoms: C_18  and  O_19 
ROOT
HETATM    1  N   UNL     1       6.241  28.913  56.110  1.00  0.00    -0.063 N 
HETATM    2  H   UNL     1       7.217  28.739  56.397  1.00  0.00     0.280 HD
HETATM    3  C   UNL     1       5.377  28.073  57.000  1.00  0.00     0.270 C 
ENDROOT
BRANCH   1   4
HETATM    4  C   UNL     1       6.192  28.440  54.651  1.00  0.00     0.337 C 
BRANCH   4   5
HETATM    5  C   UNL     1       6.148  26.915  54.524  1.00  0.00     0.248 C 
HETATM    6  N   UNL     1       7.383  26.301  54.641  1.00  0.00    -0.325 N 
HETATM    7  H   UNL     1       8.194  26.858  54.398  1.00  0.00     0.169 HD
HETATM    8  O   UNL     1       5.077  26.362  54.284  1.00  0.00    -0.271 OA
BRANCH   6   9
HETATM    9  C   UNL     1       7.570  24.899  54.510  1.00  0.00     0.046 A 
HETATM   10  C   UNL     1       7.512  24.111  55.685  1.00  0.00    -0.035 A 
HETATM   11  C   UNL     1       7.262  24.696  57.050  1.00  0.00     0.050 C 
HETATM   12  C   UNL     1       7.717  22.724  55.597  1.00  0.00     0.009 A 
HETATM   13  C   UNL     1       7.974  22.120  54.373  1.00  0.00     0.001 A 
HETATM   14  C   UNL     1       7.993  22.888  53.214  1.00  0.00     0.009 A 
HETATM   15  C   UNL     1       7.760  24.275  53.258  1.00  0.00    -0.035 A 
HETATM   16  C   UNL     1       7.682  24.988  51.936  1.00  0.00     0.050 C 
ENDBRANCH   6   9
ENDBRANCH   4   5
ENDBRANCH   1   4
BRANCH   1  17
HETATM   17  C   UNL     1       6.088  30.413  56.340  1.00  0.00     0.276 C 
BRANCH  17  18
HETATM   18  C   UNL     1       6.377  30.938  57.713  1.00  0.00     0.009 A 
HETATM   19  C   UNL     1       5.474  31.691  58.452  1.00  0.00     0.134 A 
HETATM   20 CL   UNL     1       3.905  32.098  57.877  1.00  0.00    -0.062 Cl
HETATM   21  N   UNL     1       5.708  32.176  59.685  1.00  0.00    -0.235 NA
HETATM   22  C   UNL     1       6.875  31.882  60.279  1.00  0.00     0.071 A 
HETATM   23  C   UNL     1       7.859  31.104  59.641  1.00  0.00    -0.006 A 
HETATM   24  C   UNL     1       7.126  32.341  61.564  1.00  0.00     0.069 A 
HETATM   25  C   UNL     1       7.592  30.639  58.344  1.00  0.00     0.026 A 
HETATM   26  C   UNL     1       9.060  30.808  60.306  1.00  0.00     0.016 A 
HETATM   27  C   UNL     1       9.286  31.277  61.603  1.00  0.00     0.038 A 
HETATM   28  C   UNL     1       8.314  32.043  62.239  1.00  0.00     0.070 A 
BRANCH  28  29
HETATM   29  O   UNL     1       8.397  32.560  63.501  1.00  0.00    -0.356 OA
HETATM   30  C   UNL     1       7.195  33.054  64.081  1.00  0.00     0.210 C 
ENDBRANCH  28  29
ENDBRANCH  17  18
ENDBRANCH   1  17
TORSDOF 6
ENDMDL
MODEL 9
REMARK VINA RESULT:      -8.9      6.494      9.913
REMARK  6 active torsions:
REMARK  status: ('A' for Active; 'I' for Inactive)
REMARK    1  A    between atoms: C_3  and  N_4 
REMARK       I    between atoms: N_4  and  C_5 
REMARK    2  A    between atoms: C_5  and  C_6 
REMARK    3  A    between atoms: C_6  and  N_7 
REMARK    4  A    between atoms: N_7  and  C_9 
REMARK    5  A    between atoms: C_9  and  C_10 
REMARK    6  A    between atoms: C_18  and  O_19 
ROOT
HETATM    1  N   UNL     1       5.132  27.673  52.289  1.00  0.00    -0.063 N 
HETATM    2  H   UNL     1       4.309  28.253  52.066  1.00  0.00     0.280 HD
HETATM    3  C   UNL     1       6.097  28.558  53.015  1.00  0.00     0.270 C 
ENDROOT
BRANCH   1   4
HETATM    4  C   UNL     1       5.668  27.244  50.917  1.00  0.00     0.337 C 
BRANCH   4   5
HETATM    5  C   UNL     1       4.784  27.719  49.760  1.00  0.00     0.248 C 
HETATM    6  N   UNL     1       3.511  27.176  49.761  1.00  0.00    -0.325 N 
HETATM    7  H   UNL     1       3.398  26.277  50.216  1.00  0.00     0.169 HD
HETATM    8  O   UNL     1       5.255  28.477  48.915  1.00  0.00    -0.271 OA
BRANCH   6   9
HETATM    9  C   UNL     1       2.548  27.451  48.753  1.00  0.00     0.046 A 
HETATM   10  C   UNL     1       2.349  26.477  47.744  1.00  0.00    -0.035 A 
HETATM   11  C   UNL     1       3.109  25.178  47.701  1.00  0.00     0.050 C 
HETATM   12  C   UNL     1       1.423  26.726  46.718  1.00  0.00     0.009 A 
HETATM   13  C   UNL     1       0.702  27.914  46.684  1.00  0.00     0.001 A 
HETATM   14  C   UNL     1       0.869  28.853  47.695  1.00  0.00     0.009 A 
HETATM   15  C   UNL     1       1.764  28.625  48.757  1.00  0.00    -0.035 A 
HETATM   16  C   UNL     1       1.777  29.649  49.859  1.00  0.00     0.050 C 
ENDBRANCH   6   9
ENDBRANCH   4   5
ENDBRANCH   1   4
BRANCH   1  17
HETATM   17  C   UNL     1       4.536  26.568  53.156  1.00  0.00     0.276 C 
BRANCH  17  18
HETATM   18  C   UNL     1       5.485  25.604  53.801  1.00  0.00     0.009 A 
HETATM   19  C   UNL     1       5.757  25.590  55.162  1.00  0.00     0.134 A 
HETATM   20 CL   UNL     1       5.020  26.676  56.274  1.00  0.00    -0.062 Cl
HETATM   21  N   UNL     1       6.606  24.739  55.766  1.00  0.00    -0.235 NA
HETATM   22  C   UNL     1       7.207  23.797  55.023  1.00  0.00     0.071 A 
HETATM   23  C   UNL     1       6.989  23.693  53.636  1.00  0.00    -0.006 A 
HETATM   24  C   UNL     1       8.059  22.885  55.628  1.00  0.00     0.069 A 
HETATM   25  C   UNL     1       6.119  24.617  53.035  1.00  0.00     0.026 A 
HETATM   26  C   UNL     1       7.627  22.682  52.899  1.00  0.00     0.016 A 
HETATM   27  C   UNL     1       8.476  21.772  53.534  1.00  0.00     0.038 A 
HETATM   28  C   UNL     1       8.691  21.868  54.905  1.00  0.00     0.070 A 
BRANCH  28  29
HETATM   29  O   UNL     1       9.486  21.047  55.653  1.00  0.00    -0.356 OA
HETATM   30  C   UNL     1       8.857  19.949  56.305  1.00  0.00     0.210 C 
ENDBRANCH  28  29
ENDBRANCH  17  18
ENDBRANCH   1  17
TORSDOF 6
ENDMDL
MODEL 10
REMARK VINA RESULT:      -8.8      2.854      4.535
REMARK  6 active torsions:
REMARK  status: ('A' for Active; 'I' for Inactive)
REMARK    1  A    between atoms: C_3  and  N_4 
REMARK       I    between atoms: N_4  and  C_5 
REMARK    2  A    between atoms: C_5  and  C_6 
REMARK    3  A    between atoms: C_6  and  N_7 
REMARK    4  A    between atoms: N_7  and  C_9 
REMARK    5  A    between atoms: C_9  and  C_10 
REMARK    6  A    between atoms: C_18  and  O_19 
ROOT
HETATM    1  N   UNL     1       5.107  28.160  53.424  1.00  0.00    -0.063 N 
HETATM    2  H   UNL     1       5.945  28.142  54.026  1.00  0.00     0.280 HD
HETATM    3  C   UNL     1       5.582  28.461  52.036  1.00  0.00     0.270 C 
ENDROOT
BRANCH   1   4
HETATM    4  C   UNL     1       4.260  29.302  54.001  1.00  0.00     0.337 C 
BRANCH   4   5
HETATM    5  C   UNL     1       4.612  29.624  55.456  1.00  0.00     0.248 C 
HETATM    6  N   UNL     1       5.899  30.098  55.635  1.00  0.00    -0.325 N 
HETATM    7  H   UNL     1       6.587  29.826  54.942  1.00  0.00     0.169 HD
HETATM    8  O   UNL     1       3.785  29.401  56.338  1.00  0.00    -0.271 OA
BRANCH   6   9
HETATM    9  C   UNL     1       6.441  30.415  56.910  1.00  0.00     0.046 A 
HETATM   10  C   UNL     1       7.436  29.558  57.438  1.00  0.00    -0.035 A 
HETATM   11  C   UNL     1       7.937  28.340  56.708  1.00  0.00     0.050 C 
HETATM   12  C   UNL     1       7.976  29.827  58.706  1.00  0.00     0.009 A 
HETATM   13  C   UNL     1       7.545  30.922  59.445  1.00  0.00     0.001 A 
HETATM   14  C   UNL     1       6.595  31.785  58.910  1.00  0.00     0.009 A 
HETATM   15  C   UNL     1       6.055  31.567  57.630  1.00  0.00    -0.035 A 
HETATM   16  C   UNL     1       5.128  32.626  57.100  1.00  0.00     0.050 C 
ENDBRANCH   6   9
ENDBRANCH   4   5
ENDBRANCH   1   4
BRANCH   1  17
HETATM   17  C   UNL     1       4.546  26.751  53.592  1.00  0.00     0.276 C 
BRANCH  17  18
HETATM   18  C   UNL     1       5.474  25.690  54.100  1.00  0.00     0.009 A 
HETATM   19  C   UNL     1       5.675  25.428  55.448  1.00  0.00     0.134 A 
HETATM   20 CL   UNL     1       4.865  26.288  56.699  1.00  0.00    -0.062 Cl
HETATM   21  N   UNL     1       6.504  24.486  55.931  1.00  0.00    -0.235 NA
HETATM   22  C   UNL     1       7.157  23.699  55.062  1.00  0.00     0.071 A 
HETATM   23  C   UNL     1       7.014  23.850  53.670  1.00  0.00    -0.006 A 
HETATM   24  C   UNL     1       7.991  22.696  55.535  1.00  0.00     0.069 A 
HETATM   25  C   UNL     1       6.163  24.864  53.202  1.00  0.00     0.026 A 
HETATM   26  C   UNL     1       7.705  22.996  52.796  1.00  0.00     0.016 A 
HETATM   27  C   UNL     1       8.533  21.988  53.298  1.00  0.00     0.038 A 
HETATM   28  C   UNL     1       8.675  21.832  54.673  1.00  0.00     0.070 A 
BRANCH  28  29
HETATM   29  O   UNL     1       9.443  20.893  55.301  1.00  0.00    -0.356 OA
HETATM   30  C   UNL     1       8.919  20.316  56.492  1.00  0.00     0.210 C 
ENDBRANCH  28  29
ENDBRANCH  17  18
ENDBRANCH   1  17
TORSDOF 6
ENDMDL
