MODEL 1
REMARK VINA RESULT:      -8.7      0.000      0.000
REMARK  8 active torsions:
REMARK  status: ('A' for Active; 'I' for Inactive)
REMARK    1  A    between atoms: C_7  and  C_8 
REMARK    2  A    between atoms: C_10  and  O_11 
REMARK    3  A    between atoms: C_13  and  O_14 
REMARK    4  A    between atoms: O_14  and  C_15 
REMARK    5  A    between atoms: C_15  and  C_16 
REMARK       I    between atoms: C_16  and  N_17 
REMARK    6  A    between atoms: C_21  and  C_22 
REMARK       I    between atoms: C_22  and  N_23 
REMARK    7  A    between atoms: N_23  and  C_24 
REMARK    8  A    between atoms: C_24  and  C_25 
ROOT
HETATM    1  C   UNL     1       5.397  25.265  56.729  1.00  0.00     0.069 C 
HETATM    2  C   UNL     1       5.660  26.572  56.037  1.00  0.00     0.024 C 
HETATM    3  N   UNL     1       5.601  27.686  56.846  1.00  0.00    -0.312 N 
HETATM    4  C   UNL     1       5.956  28.949  56.479  1.00  0.00     0.321 C 
HETATM    5  O   UNL     1       5.910  29.888  57.265  1.00  0.00    -0.247 OA
HETATM    6  N   UNL     1       6.382  29.109  55.203  1.00  0.00    -0.330 N 
HETATM    7  C   UNL     1       6.292  28.100  54.163  1.00  0.00     0.160 C 
HETATM    8  C   UNL     1       5.980  26.746  54.740  1.00  0.00     0.059 C 
HETATM    9  H   UNL     1       5.355  27.593  57.825  1.00  0.00     0.170 HD
HETATM   10  H   UNL     1       6.620  30.056  54.944  1.00  0.00     0.165 HD
ENDROOT
BRANCH   7  11
HETATM   11  C   UNL     1       5.277  28.547  53.118  1.00  0.00    -0.028 A 
HETATM   12  C   UNL     1       5.679  28.881  51.811  1.00  0.00     0.049 A 
HETATM   13  C   UNL     1       4.745  29.282  50.851  1.00  0.00     0.102 A 
HETATM   14  C   UNL     1       3.387  29.369  51.204  1.00  0.00     0.102 A 
HETATM   15  C   UNL     1       2.976  29.027  52.495  1.00  0.00     0.040 A 
HETATM   16  C   UNL     1       3.916  28.627  53.447  1.00  0.00     0.012 A 
BRANCH  13  17
HETATM   17  O   UNL     1       5.056  29.637  49.561  1.00  0.00    -0.353 OA
HETATM   18  C   UNL     1       5.647  28.638  48.739  1.00  0.00     0.210 C 
ENDBRANCH  13  17
BRANCH  14  19
HETATM   19  O   UNL     1       2.525  29.748  50.209  1.00  0.00    -0.339 OA
BRANCH  19  20
HETATM   20  C   UNL     1       1.526  28.801  49.840  1.00  0.00     0.278 C 
BRANCH  20  21
HETATM   21  C   UNL     1       1.914  28.153  48.514  1.00  0.00     0.239 C 
HETATM   22  N   UNL     1       1.852  26.788  48.489  1.00  0.00    -0.368 N 
HETATM   23  H   UNL     1       1.344  26.305  49.225  1.00  0.00     0.159 HD
HETATM   24  H   UNL     1       2.019  26.316  47.611  1.00  0.00     0.159 HD
HETATM   25  O   UNL     1       2.312  28.789  47.544  1.00  0.00    -0.271 OA
ENDBRANCH  20  21
ENDBRANCH  19  20
ENDBRANCH  14  19
ENDBRANCH   7  11
BRANCH   8  26
HETATM   26  C   UNL     1       6.116  25.627  53.773  1.00  0.00     0.252 C 
HETATM   27  N   UNL     1       7.397  25.183  53.585  1.00  0.00    -0.353 N 
HETATM   28  H   UNL     1       8.137  25.518  54.187  1.00  0.00     0.163 HD
HETATM   29  O   UNL     1       5.125  25.121  53.259  1.00  0.00    -0.268 OA
BRANCH  27  30
HETATM   30  C   UNL     1       7.675  24.037  52.752  1.00  0.00     0.161 C 
BRANCH  30  31
HETATM   31  C   UNL     1       7.796  22.786  53.581  1.00  0.00    -0.041 A 
HETATM   32  C   UNL     1       7.733  22.841  54.979  1.00  0.00     0.009 A 
HETATM   33  C   UNL     1       7.839  21.673  55.739  1.00  0.00     0.001 A 
HETATM   34  C   UNL     1       8.014  20.442  55.108  1.00  0.00     0.000 A 
HETATM   35  C   UNL     1       8.083  20.375  53.718  1.00  0.00     0.001 A 
HETATM   36  C   UNL     1       7.974  21.541  52.958  1.00  0.00     0.009 A 
ENDBRANCH  30  31
ENDBRANCH  27  30
ENDBRANCH   8  26
TORSDOF 8
ENDMDL
MODEL 2
REMARK VINA RESULT:      -8.6      2.389      6.444
REMARK  8 active torsions:
REMARK  status: ('A' for Active; 'I' for Inactive)
REMARK    1  A    between atoms: C_7  and  C_8 
REMARK    2  A    between atoms: C_10  and  O_11 
REMARK    3  A    between atoms: C_13  and  O_14 
REMARK    4  A    between atoms: O_14  and  C_15 
REMARK    5  A    between atoms: C_15  and  C_16 
REMARK       I    between atoms: C_16  and  N_17 
REMARK    6  A    between atoms: C_21  and  C_22 
REMARK       I    between atoms: C_22  and  N_23 
REMARK    7  A    between atoms: N_23  and  C_24 
REMARK    8  A    between atoms: C_24  and  C_25 
ROOT
HETATM    1  C   UNL     1       7.305  24.923  51.864  1.00  0.00     0.069 C 
HETATM    2  C   UNL     1       6.442  25.996  52.464  1.00  0.00     0.024 C 
HETATM    3  N   UNL     1       5.972  26.936  51.573  1.00  0.00    -0.312 N 
HETATM    4  C   UNL     1       5.053  27.902  51.855  1.00  0.00     0.321 C 
HETATM    5  O   UNL     1       4.654  28.683  51.000  1.00  0.00    -0.247 OA
HETATM    6  N   UNL     1       4.587  27.938  53.126  1.00  0.00    -0.330 N 
HETATM    7  C   UNL     1       5.136  27.179  54.235  1.00  0.00     0.160 C 
HETATM    8  C   UNL     1       6.063  26.097  53.752  1.00  0.00     0.059 C 
HETATM    9  H   UNL     1       6.245  26.895  50.598  1.00  0.00     0.170 HD
HETATM   10  H   UNL     1       3.923  28.674  53.320  1.00  0.00     0.165 HD
ENDROOT
BRANCH   7  11
HETATM   11  C   UNL     1       5.802  28.137  55.216  1.00  0.00    -0.028 A 
HETATM   12  C   UNL     1       5.066  28.744  56.251  1.00  0.00     0.049 A 
HETATM   13  C   UNL     1       5.680  29.615  57.156  1.00  0.00     0.102 A 
HETATM   14  C   UNL     1       7.050  29.899  57.017  1.00  0.00     0.102 A 
HETATM   15  C   UNL     1       7.792  29.291  56.002  1.00  0.00     0.040 A 
HETATM   16  C   UNL     1       7.169  28.422  55.102  1.00  0.00     0.012 A 
BRANCH  13  17
HETATM   17  O   UNL     1       5.032  30.258  58.183  1.00  0.00    -0.353 OA
HETATM   18  C   UNL     1       3.978  31.144  57.829  1.00  0.00     0.210 C 
ENDBRANCH  13  17
BRANCH  14  19
HETATM   19  O   UNL     1       7.592  30.744  57.950  1.00  0.00    -0.339 OA
BRANCH  19  20
HETATM   20  C   UNL     1       8.753  30.276  58.631  1.00  0.00     0.278 C 
BRANCH  20  21
HETATM   21  C   UNL     1       9.936  31.175  58.282  1.00  0.00     0.239 C 
HETATM   22  N   UNL     1      10.912  30.591  57.524  1.00  0.00    -0.368 N 
HETATM   23  H   UNL     1      10.706  29.718  57.046  1.00  0.00     0.159 HD
HETATM   24  H   UNL     1      11.674  31.166  57.197  1.00  0.00     0.159 HD
HETATM   25  O   UNL     1      10.051  32.326  58.688  1.00  0.00    -0.271 OA
ENDBRANCH  20  21
ENDBRANCH  19  20
ENDBRANCH  14  19
ENDBRANCH   7  11
BRANCH   8  26
HETATM   26  C   UNL     1       6.466  25.129  54.803  1.00  0.00     0.252 C 
HETATM   27  N   UNL     1       7.812  24.893  54.882  1.00  0.00    -0.353 N 
HETATM   28  H   UNL     1       8.454  25.464  54.348  1.00  0.00     0.163 HD
HETATM   29  O   UNL     1       5.635  24.656  55.570  1.00  0.00    -0.268 OA
BRANCH  27  30
HETATM   30  C   UNL     1       8.364  24.052  55.918  1.00  0.00     0.161 C 
BRANCH  30  31
HETATM   31  C   UNL     1       8.463  22.623  55.455  1.00  0.00    -0.041 A 
HETATM   32  C   UNL     1       8.665  22.317  54.103  1.00  0.00     0.009 A 
HETATM   33  C   UNL     1       8.763  20.988  53.685  1.00  0.00     0.001 A 
HETATM   34  C   UNL     1       8.655  19.953  54.613  1.00  0.00     0.000 A 
HETATM   35  C   UNL     1       8.449  20.244  55.960  1.00  0.00     0.001 A 
HETATM   36  C   UNL     1       8.354  21.572  56.379  1.00  0.00     0.009 A 
ENDBRANCH  30  31
ENDBRANCH  27  30
ENDBRANCH   8  26
TORSDOF 8
ENDMDL
MODEL 3
REMARK VINA RESULT:      -8.6      2.728      6.785
REMARK  8 active torsions:
REMARK  status: ('A' for Active; 'I' for Inactive)
REMARK    1  A    between atoms: C_7  and  C_8 
REMARK    2  A    between atoms: C_10  and  O_11 
REMARK    3  A    between atoms: C_13  and  O_14 
REMARK    4  A    between atoms: O_14  and  C_15 
REMARK    5  A    between atoms: C_15  and  C_16 
REMARK       I    between atoms: C_16  and  N_17 
REMARK    6  A    between atoms: C_21  and  C_22 
REMARK       I    between atoms: C_22  and  N_23 
REMARK    7  A    between atoms: N_23  and  C_24 
REMARK    8  A    between atoms: C_24  and  C_25 
ROOT
HETATM    1  C   UNL     1       7.336  25.123  52.122  1.00  0.00     0.069 C 
HETATM    2  C   UNL     1       6.704  26.293  52.820  1.00  0.00     0.024 C 
HETATM    3  N   UNL     1       6.379  27.356  52.006  1.00  0.00    -0.312 N 
HETATM    4  C   UNL     1       5.660  28.450  52.383  1.00  0.00     0.321 C 
HETATM    5  O   UNL     1       5.378  29.342  51.592  1.00  0.00    -0.247 OA
HETATM    6  N   UNL     1       5.255  28.489  53.676  1.00  0.00    -0.330 N 
HETATM    7  C   UNL     1       5.699  27.577  54.714  1.00  0.00     0.160 C 
HETATM    8  C   UNL     1       6.397  26.380  54.129  1.00  0.00     0.059 C 
HETATM    9  H   UNL     1       6.604  27.328  51.018  1.00  0.00     0.170 HD
HETATM   10  H   UNL     1       4.743  29.318  53.941  1.00  0.00     0.165 HD
ENDROOT
BRANCH   7  11
HETATM   11  C   UNL     1       6.563  28.338  55.713  1.00  0.00    -0.028 A 
HETATM   12  C   UNL     1       7.844  28.800  55.361  1.00  0.00     0.049 A 
HETATM   13  C   UNL     1       8.632  29.506  56.276  1.00  0.00     0.102 A 
HETATM   14  C   UNL     1       8.139  29.740  57.571  1.00  0.00     0.102 A 
HETATM   15  C   UNL     1       6.863  29.298  57.926  1.00  0.00     0.040 A 
HETATM   16  C   UNL     1       6.084  28.594  57.005  1.00  0.00     0.012 A 
BRANCH  13  17
HETATM   17  O   UNL     1       9.895  29.978  56.016  1.00  0.00    -0.353 OA
HETATM   18  C   UNL     1      10.981  29.295  56.631  1.00  0.00     0.210 C 
ENDBRANCH  13  17
BRANCH  14  19
HETATM   19  O   UNL     1       8.954  30.456  58.409  1.00  0.00    -0.339 OA
BRANCH  19  20
HETATM   20  C   UNL     1       8.309  31.358  59.304  1.00  0.00     0.278 C 
BRANCH  20  21
HETATM   21  C   UNL     1       8.397  30.805  60.724  1.00  0.00     0.239 C 
HETATM   22  N   UNL     1       7.319  31.067  61.522  1.00  0.00    -0.368 N 
HETATM   23  H   UNL     1       6.454  31.382  61.092  1.00  0.00     0.159 HD
HETATM   24  H   UNL     1       7.292  30.653  62.443  1.00  0.00     0.159 HD
HETATM   25  O   UNL     1       9.380  30.213  61.157  1.00  0.00    -0.271 OA
ENDBRANCH  20  21
ENDBRANCH  19  20
ENDBRANCH  14  19
ENDBRANCH   7  11
BRANCH   8  26
HETATM   26  C   UNL     1       6.657  25.291  55.105  1.00  0.00     0.252 C 
HETATM   27  N   UNL     1       7.976  24.957  55.255  1.00  0.00    -0.353 N 
HETATM   28  H   UNL     1       8.691  25.531  54.828  1.00  0.00     0.163 HD
HETATM   29  O   UNL     1       5.741  24.806  55.759  1.00  0.00    -0.268 OA
BRANCH  27  30
HETATM   30  C   UNL     1       8.393  23.987  56.240  1.00  0.00     0.161 C 
BRANCH  30  31
HETATM   31  C   UNL     1       8.480  22.611  55.636  1.00  0.00    -0.041 A 
HETATM   32  C   UNL     1       8.702  22.440  54.263  1.00  0.00     0.009 A 
HETATM   33  C   UNL     1       8.787  21.159  53.713  1.00  0.00     0.001 A 
HETATM   34  C   UNL     1       8.647  20.037  54.530  1.00  0.00     0.000 A 
HETATM   35  C   UNL     1       8.422  20.193  55.896  1.00  0.00     0.001 A 
HETATM   36  C   UNL     1       8.339  21.473  56.446  1.00  0.00     0.009 A 
ENDBRANCH  30  31
ENDBRANCH  27  30
ENDBRANCH   8  26
TORSDOF 8
ENDMDL
MODEL 4
REMARK VINA RESULT:      -8.5      1.872      2.543
REMARK  8 active torsions:
REMARK  status: ('A' for Active; 'I' for Inactive)
REMARK    1  A    between atoms: C_7  and  C_8 
REMARK    2  A    between atoms: C_10  and  O_11 
REMARK    3  A    between atoms: C_13  and  O_14 
REMARK    4  A    between atoms: O_14  and  C_15 
REMARK    5  A    between atoms: C_15  and  C_16 
REMARK       I    between atoms: C_16  and  N_17 
REMARK    6  A    between atoms: C_21  and  C_22 
REMARK       I    between atoms: C_22  and  N_23 
REMARK    7  A    between atoms: N_23  and  C_24 
REMARK    8  A    between atoms: C_24  and  C_25 
ROOT
HETATM    1  C   UNL     1       5.588  25.536  55.521  1.00  0.00     0.069 C 
HETATM    2  C   UNL     1       5.471  26.633  54.502  1.00  0.00     0.024 C 
HETATM    3  N   UNL     1       4.561  27.622  54.807  1.00  0.00    -0.312 N 
HETATM    4  C   UNL     1       4.399  28.786  54.120  1.00  0.00     0.321 C 
HETATM    5  O   UNL     1       3.590  29.637  54.472  1.00  0.00    -0.247 OA
HETATM    6  N   UNL     1       5.193  28.963  53.037  1.00  0.00    -0.330 N 
HETATM    7  C   UNL     1       6.035  27.938  52.447  1.00  0.00     0.160 C 
HETATM    8  C   UNL     1       6.185  26.757  53.367  1.00  0.00     0.059 C 
HETATM    9  H   UNL     1       4.000  27.555  55.649  1.00  0.00     0.170 HD
HETATM   10  H   UNL     1       5.042  29.823  52.528  1.00  0.00     0.165 HD
ENDROOT
BRANCH   7  11
HETATM   11  C   UNL     1       5.480  27.559  51.080  1.00  0.00    -0.028 A 
HETATM   12  C   UNL     1       5.464  28.484  50.020  1.00  0.00     0.049 A 
HETATM   13  C   UNL     1       4.963  28.132  48.763  1.00  0.00     0.102 A 
HETATM   14  C   UNL     1       4.451  26.837  48.564  1.00  0.00     0.102 A 
HETATM   15  C   UNL     1       4.475  25.907  49.606  1.00  0.00     0.040 A 
HETATM   16  C   UNL     1       4.978  26.269  50.858  1.00  0.00     0.012 A 
BRANCH  13  17
HETATM   17  O   UNL     1       4.899  28.978  47.683  1.00  0.00    -0.353 OA
HETATM   18  C   UNL     1       3.830  29.916  47.657  1.00  0.00     0.210 C 
ENDBRANCH  13  17
BRANCH  14  19
HETATM   19  O   UNL     1       3.996  26.553  47.303  1.00  0.00    -0.339 OA
BRANCH  19  20
HETATM   20  C   UNL     1       2.768  25.835  47.219  1.00  0.00     0.278 C 
BRANCH  20  21
HETATM   21  C   UNL     1       1.605  26.816  47.323  1.00  0.00     0.239 C 
HETATM   22  N   UNL     1       1.171  27.078  48.592  1.00  0.00    -0.368 N 
HETATM   23  H   UNL     1       1.762  26.820  49.377  1.00  0.00     0.159 HD
HETATM   24  H   UNL     1       0.459  27.784  48.720  1.00  0.00     0.159 HD
HETATM   25  O   UNL     1       1.045  27.305  46.347  1.00  0.00    -0.271 OA
ENDBRANCH  20  21
ENDBRANCH  19  20
ENDBRANCH  14  19
ENDBRANCH   7  11
BRANCH   8  26
HETATM   26  C   UNL     1       7.224  25.785  52.943  1.00  0.00     0.252 C 
HETATM   27  N   UNL     1       6.824  24.475  52.951  1.00  0.00    -0.353 N 
HETATM   28  H   UNL     1       5.849  24.250  53.099  1.00  0.00     0.163 HD
HETATM   29  O   UNL     1       8.320  26.171  52.552  1.00  0.00    -0.268 OA
BRANCH  27  30
HETATM   30  C   UNL     1       7.691  23.426  52.469  1.00  0.00     0.161 C 
BRANCH  30  31
HETATM   31  C   UNL     1       7.874  22.358  53.515  1.00  0.00    -0.041 A 
HETATM   32  C   UNL     1       8.320  21.077  53.164  1.00  0.00     0.009 A 
HETATM   33  C   UNL     1       8.493  20.095  54.143  1.00  0.00     0.001 A 
HETATM   34  C   UNL     1       8.218  20.384  55.478  1.00  0.00     0.000 A 
HETATM   35  C   UNL     1       7.770  21.653  55.839  1.00  0.00     0.001 A 
HETATM   36  C   UNL     1       7.599  22.635  54.863  1.00  0.00     0.009 A 
ENDBRANCH  30  31
ENDBRANCH  27  30
ENDBRANCH   8  26
TORSDOF 8
ENDMDL
MODEL 5
REMARK VINA RESULT:      -8.4      2.700      6.400
REMARK  8 active torsions:
REMARK  status: ('A' for Active; 'I' for Inactive)
REMARK    1  A    between atoms: C_7  and  C_8 
REMARK    2  A    between atoms: C_10  and  O_11 
REMARK    3  A    between atoms: C_13  and  O_14 
REMARK    4  A    between atoms: O_14  and  C_15 
REMARK    5  A    between atoms: C_15  and  C_16 
REMARK       I    between atoms: C_16  and  N_17 
REMARK    6  A    between atoms: C_21  and  C_22 
REMARK       I    between atoms: C_22  and  N_23 
REMARK    7  A    between atoms: N_23  and  C_24 
REMARK    8  A    between atoms: C_24  and  C_25 
ROOT
HETATM    1  C   UNL     1       5.937  26.918  50.159  1.00  0.00     0.069 C 
HETATM    2  C   UNL     1       5.463  26.957  51.583  1.00  0.00     0.024 C 
HETATM    3  N   UNL     1       4.361  27.751  51.813  1.00  0.00    -0.312 N 
HETATM    4  C   UNL     1       3.664  27.817  52.982  1.00  0.00     0.321 C 
HETATM    5  O   UNL     1       2.669  28.522  53.102  1.00  0.00    -0.247 OA
HETATM    6  N   UNL     1       4.117  27.045  53.999  1.00  0.00    -0.330 N 
HETATM    7  C   UNL     1       5.381  26.332  54.001  1.00  0.00     0.160 C 
HETATM    8  C   UNL     1       5.979  26.272  52.622  1.00  0.00     0.059 C 
HETATM    9  H   UNL     1       3.952  28.287  51.056  1.00  0.00     0.170 HD
HETATM   10  H   UNL     1       3.600  27.124  54.863  1.00  0.00     0.165 HD
ENDROOT
BRANCH   7  11
HETATM   11  C   UNL     1       6.314  26.968  55.025  1.00  0.00    -0.028 A 
HETATM   12  C   UNL     1       7.076  26.177  55.904  1.00  0.00     0.049 A 
HETATM   13  C   UNL     1       7.938  26.762  56.836  1.00  0.00     0.102 A 
HETATM   14  C   UNL     1       8.030  28.163  56.905  1.00  0.00     0.102 A 
HETATM   15  C   UNL     1       7.287  28.957  56.028  1.00  0.00     0.040 A 
HETATM   16  C   UNL     1       6.429  28.363  55.100  1.00  0.00     0.012 A 
BRANCH  13  17
HETATM   17  O   UNL     1       8.704  26.063  57.737  1.00  0.00    -0.353 OA
HETATM   18  C   UNL     1       8.661  24.643  57.659  1.00  0.00     0.210 C 
ENDBRANCH  13  17
BRANCH  14  19
HETATM   19  O   UNL     1       8.909  28.669  57.826  1.00  0.00    -0.339 OA
BRANCH  19  20
HETATM   20  C   UNL     1       9.341  30.011  57.621  1.00  0.00     0.278 C 
BRANCH  20  21
HETATM   21  C   UNL     1      10.562  30.011  56.705  1.00  0.00     0.239 C 
HETATM   22  N   UNL     1      11.771  30.000  57.341  1.00  0.00    -0.368 N 
HETATM   23  H   UNL     1      11.806  29.756  58.327  1.00  0.00     0.159 HD
HETATM   24  H   UNL     1      12.607  29.915  56.781  1.00  0.00     0.159 HD
HETATM   25  O   UNL     1      10.488  30.073  55.482  1.00  0.00    -0.271 OA
ENDBRANCH  20  21
ENDBRANCH  19  20
ENDBRANCH  14  19
ENDBRANCH   7  11
BRANCH   8  26
HETATM   26  C   UNL     1       7.139  25.352  52.502  1.00  0.00     0.252 C 
HETATM   27  N   UNL     1       6.845  24.029  52.695  1.00  0.00    -0.353 N 
HETATM   28  H   UNL     1       5.880  23.735  52.764  1.00  0.00     0.163 HD
HETATM   29  O   UNL     1       8.243  25.776  52.180  1.00  0.00    -0.268 OA
BRANCH  27  30
HETATM   30  C   UNL     1       7.848  23.007  52.512  1.00  0.00     0.161 C 
BRANCH  30  31
HETATM   31  C   UNL     1       7.913  22.097  53.710  1.00  0.00    -0.041 A 
HETATM   32  C   UNL     1       8.379  20.782  53.590  1.00  0.00     0.009 A 
HETATM   33  C   UNL     1       8.442  19.948  54.709  1.00  0.00     0.001 A 
HETATM   34  C   UNL     1       8.035  20.420  55.956  1.00  0.00     0.000 A 
HETATM   35  C   UNL     1       7.565  21.725  56.088  1.00  0.00     0.001 A 
HETATM   36  C   UNL     1       7.505  22.560  54.970  1.00  0.00     0.009 A 
ENDBRANCH  30  31
ENDBRANCH  27  30
ENDBRANCH   8  26
TORSDOF 8
ENDMDL
MODEL 6
REMARK VINA RESULT:      -8.2      2.689      5.904
REMARK  8 active torsions:
REMARK  status: ('A' for Active; 'I' for Inactive)
REMARK    1  A    between atoms: C_7  and  C_8 
REMARK    2  A    between atoms: C_10  and  O_11 
REMARK    3  A    between atoms: C_13  and  O_14 
REMARK    4  A    between atoms: O_14  and  C_15 
REMARK    5  A    between atoms: C_15  and  C_16 
REMARK       I    between atoms: C_16  and  N_17 
REMARK    6  A    between atoms: C_21  and  C_22 
REMARK       I    between atoms: C_22  and  N_23 
REMARK    7  A    between atoms: N_23  and  C_24 
REMARK    8  A    between atoms: C_24  and  C_25 
ROOT
HETATM    1  C   UNL     1       9.614  24.514  57.421  1.00  0.00     0.069 C 
HETATM    2  C   UNL     1       8.716  23.989  56.337  1.00  0.00     0.024 C 
HETATM    3  N   UNL     1       9.231  22.942  55.605  1.00  0.00    -0.312 N 
HETATM    4  C   UNL     1       8.545  22.207  54.685  1.00  0.00     0.321 C 
HETATM    5  O   UNL     1       9.061  21.264  54.096  1.00  0.00    -0.247 OA
HETATM    6  N   UNL     1       7.255  22.561  54.472  1.00  0.00    -0.330 N 
HETATM    7  C   UNL     1       6.628  23.766  54.982  1.00  0.00     0.160 C 
HETATM    8  C   UNL     1       7.470  24.411  56.050  1.00  0.00     0.059 C 
HETATM    9  H   UNL     1      10.170  22.605  55.788  1.00  0.00     0.170 HD
HETATM   10  H   UNL     1       6.770  22.018  53.772  1.00  0.00     0.165 HD
ENDROOT
BRANCH   7  11
HETATM   11  C   UNL     1       6.324  24.703  53.820  1.00  0.00    -0.028 A 
HETATM   12  C   UNL     1       5.292  25.657  53.907  1.00  0.00     0.049 A 
HETATM   13  C   UNL     1       5.020  26.523  52.843  1.00  0.00     0.102 A 
HETATM   14  C   UNL     1       5.780  26.425  51.664  1.00  0.00     0.102 A 
HETATM   15  C   UNL     1       6.815  25.492  51.574  1.00  0.00     0.040 A 
HETATM   16  C   UNL     1       7.079  24.631  52.642  1.00  0.00     0.012 A 
BRANCH  13  17
HETATM   17  O   UNL     1       4.024  27.469  52.842  1.00  0.00    -0.353 OA
HETATM   18  C   UNL     1       4.005  28.389  53.926  1.00  0.00     0.210 C 
ENDBRANCH  13  17
BRANCH  14  19
HETATM   19  O   UNL     1       5.475  27.318  50.670  1.00  0.00    -0.339 OA
BRANCH  19  20
HETATM   20  C   UNL     1       4.744  26.805  49.559  1.00  0.00     0.278 C 
BRANCH  20  21
HETATM   21  C   UNL     1       3.656  27.802  49.171  1.00  0.00     0.239 C 
HETATM   22  N   UNL     1       2.772  28.119  50.163  1.00  0.00    -0.368 N 
HETATM   23  H   UNL     1       3.007  27.887  51.124  1.00  0.00     0.159 HD
HETATM   24  H   UNL     1       2.083  28.836  49.982  1.00  0.00     0.159 HD
HETATM   25  O   UNL     1       3.530  28.256  48.039  1.00  0.00    -0.271 OA
ENDBRANCH  20  21
ENDBRANCH  19  20
ENDBRANCH  14  19
ENDBRANCH   7  11
BRANCH   8  26
HETATM   26  C   UNL     1       6.784  25.502  56.788  1.00  0.00     0.252 C 
HETATM   27  N   UNL     1       7.397  26.723  56.711  1.00  0.00    -0.353 N 
HETATM   28  H   UNL     1       8.169  26.857  56.071  1.00  0.00     0.163 HD
HETATM   29  O   UNL     1       5.713  25.299  57.351  1.00  0.00    -0.268 OA
BRANCH  27  30
HETATM   30  C   UNL     1       6.795  27.899  57.294  1.00  0.00     0.161 C 
BRANCH  30  31
HETATM   31  C   UNL     1       7.842  28.927  57.630  1.00  0.00    -0.041 A 
HETATM   32  C   UNL     1       7.542  30.016  58.459  1.00  0.00     0.009 A 
HETATM   33  C   UNL     1       8.523  30.961  58.770  1.00  0.00     0.001 A 
HETATM   34  C   UNL     1       9.810  30.829  58.252  1.00  0.00     0.000 A 
HETATM   35  C   UNL     1      10.120  29.753  57.422  1.00  0.00     0.001 A 
HETATM   36  C   UNL     1       9.142  28.807  57.113  1.00  0.00     0.009 A 
ENDBRANCH  30  31
ENDBRANCH  27  30
ENDBRANCH   8  26
TORSDOF 8
ENDMDL
MODEL 7
REMARK VINA RESULT:      -8.0      6.136     10.267
REMARK  8 active torsions:
REMARK  status: ('A' for Active; 'I' for Inactive)
REMARK    1  A    between atoms: C_7  and  C_8 
REMARK    2  A    between atoms: C_10  and  O_11 
REMARK    3  A    between atoms: C_13  and  O_14 
REMARK    4  A    between atoms: O_14  and  C_15 
REMARK    5  A    between atoms: C_15  and  C_16 
REMARK       I    between atoms: C_16  and  N_17 
REMARK    6  A    between atoms: C_21  and  C_22 
REMARK       I    between atoms: C_22  and  N_23 
REMARK    7  A    between atoms: N_23  and  C_24 
REMARK    8  A    between atoms: C_24  and  C_25 
ROOT
HETATM    1  C   UNL     1       9.811  30.042  57.347  1.00  0.00     0.069 C 
HETATM    2  C   UNL     1       8.314  30.052  57.479  1.00  0.00     0.024 C 
HETATM    3  N   UNL     1       7.635  29.359  56.501  1.00  0.00    -0.312 N 
HETATM    4  C   UNL     1       6.298  29.097  56.501  1.00  0.00     0.321 C 
HETATM    5  O   UNL     1       5.768  28.442  55.611  1.00  0.00    -0.247 OA
HETATM    6  N   UNL     1       5.589  29.582  57.548  1.00  0.00    -0.330 N 
HETATM    7  C   UNL     1       6.098  30.515  58.537  1.00  0.00     0.160 C 
HETATM    8  C   UNL     1       7.597  30.626  58.464  1.00  0.00     0.059 C 
HETATM    9  H   UNL     1       8.143  28.922  55.740  1.00  0.00     0.170 HD
HETATM   10  H   UNL     1       4.597  29.396  57.519  1.00  0.00     0.165 HD
ENDROOT
BRANCH   7  11
HETATM   11  C   UNL     1       5.396  31.857  58.368  1.00  0.00    -0.028 A 
HETATM   12  C   UNL     1       4.913  32.569  59.481  1.00  0.00     0.049 A 
HETATM   13  C   UNL     1       4.276  33.804  59.326  1.00  0.00     0.102 A 
HETATM   14  C   UNL     1       4.104  34.332  58.034  1.00  0.00     0.102 A 
HETATM   15  C   UNL     1       4.592  33.640  56.924  1.00  0.00     0.040 A 
HETATM   16  C   UNL     1       5.226  32.406  57.089  1.00  0.00     0.012 A 
BRANCH  13  17
HETATM   17  O   UNL     1       3.765  34.554  60.357  1.00  0.00    -0.353 OA
HETATM   18  C   UNL     1       2.863  33.905  61.244  1.00  0.00     0.210 C 
ENDBRANCH  13  17
BRANCH  14  19
HETATM   19  O   UNL     1       3.492  35.556  57.956  1.00  0.00    -0.339 OA
BRANCH  19  20
HETATM   20  C   UNL     1       2.138  35.561  57.509  1.00  0.00     0.278 C 
BRANCH  20  21
HETATM   21  C   UNL     1       1.230  35.969  58.665  1.00  0.00     0.239 C 
HETATM   22  N   UNL     1       1.750  36.901  59.519  1.00  0.00    -0.368 N 
HETATM   23  H   UNL     1       2.566  37.433  59.227  1.00  0.00     0.159 HD
HETATM   24  H   UNL     1       1.158  37.265  60.251  1.00  0.00     0.159 HD
HETATM   25  O   UNL     1       0.129  35.468  58.867  1.00  0.00    -0.271 OA
ENDBRANCH  20  21
ENDBRANCH  19  20
ENDBRANCH  14  19
ENDBRANCH   7  11
BRANCH   8  26
HETATM   26  C   UNL     1       8.207  31.366  59.597  1.00  0.00     0.252 C 
HETATM   27  N   UNL     1       8.051  30.773  60.821  1.00  0.00    -0.353 N 
HETATM   28  H   UNL     1       7.673  29.836  60.880  1.00  0.00     0.163 HD
HETATM   29  O   UNL     1       8.856  32.387  59.401  1.00  0.00    -0.268 OA
BRANCH  27  30
HETATM   30  C   UNL     1       8.674  31.322  62.002  1.00  0.00     0.161 C 
BRANCH  30  31
HETATM   31  C   UNL     1       7.658  32.006  62.877  1.00  0.00    -0.041 A 
HETATM   32  C   UNL     1       8.056  32.909  63.872  1.00  0.00     0.009 A 
HETATM   33  C   UNL     1       7.104  33.544  64.674  1.00  0.00     0.001 A 
HETATM   34  C   UNL     1       5.748  33.278  64.492  1.00  0.00     0.000 A 
HETATM   35  C   UNL     1       5.340  32.378  63.510  1.00  0.00     0.001 A 
HETATM   36  C   UNL     1       6.289  31.746  62.706  1.00  0.00     0.009 A 
ENDBRANCH  30  31
ENDBRANCH  27  30
ENDBRANCH   8  26
TORSDOF 8
ENDMDL
MODEL 8
REMARK VINA RESULT:      -7.8      2.439      3.273
REMARK  8 active torsions:
REMARK  status: ('A' for Active; 'I' for Inactive)
REMARK    1  A    between atoms: C_7  and  C_8 
REMARK    2  A    between atoms: C_10  and  O_11 
REMARK    3  A    between atoms: C_13  and  O_14 
REMARK    4  A    between atoms: O_14  and  C_15 
REMARK    5  A    between atoms: C_15  and  C_16 
REMARK       I    between atoms: C_16  and  N_17 
REMARK    6  A    between atoms: C_21  and  C_22 
REMARK       I    between atoms: C_22  and  N_23 
REMARK    7  A    between atoms: N_23  and  C_24 
REMARK    8  A    between atoms: C_24  and  C_25 
ROOT
HETATM    1  C   UNL     1       7.440  25.570  57.390  1.00  0.00     0.069 C 
HETATM    2  C   UNL     1       7.606  26.687  56.400  1.00  0.00     0.024 C 
HETATM    3  N   UNL     1       8.182  27.834  56.900  1.00  0.00    -0.312 N 
HETATM    4  C   UNL     1       8.574  28.909  56.162  1.00  0.00     0.321 C 
HETATM    5  O   UNL     1       9.113  29.883  56.674  1.00  0.00    -0.247 OA
HETATM    6  N   UNL     1       8.355  28.836  54.827  1.00  0.00    -0.330 N 
HETATM    7  C   UNL     1       7.564  27.813  54.169  1.00  0.00     0.160 C 
HETATM    8  C   UNL     1       7.290  26.655  55.091  1.00  0.00     0.059 C 
HETATM    9  H   UNL     1       8.424  27.895  57.883  1.00  0.00     0.170 HD
HETATM   10  H   UNL     1       8.633  29.652  54.300  1.00  0.00     0.165 HD
ENDROOT
BRANCH   7  11
HETATM   11  C   UNL     1       6.292  28.443  53.615  1.00  0.00    -0.028 A 
HETATM   12  C   UNL     1       5.384  29.110  54.458  1.00  0.00     0.049 A 
HETATM   13  C   UNL     1       4.222  29.696  53.947  1.00  0.00     0.102 A 
HETATM   14  C   UNL     1       3.951  29.600  52.571  1.00  0.00     0.102 A 
HETATM   15  C   UNL     1       4.852  28.953  51.723  1.00  0.00     0.040 A 
HETATM   16  C   UNL     1       6.011  28.371  52.243  1.00  0.00     0.012 A 
BRANCH  13  17
HETATM   17  O   UNL     1       3.281  30.350  54.703  1.00  0.00    -0.353 OA
HETATM   18  C   UNL     1       3.740  31.408  55.536  1.00  0.00     0.210 C 
ENDBRANCH  13  17
BRANCH  14  19
HETATM   19  O   UNL     1       2.807  30.215  52.134  1.00  0.00    -0.339 OA
BRANCH  19  20
HETATM   20  C   UNL     1       2.969  31.236  51.153  1.00  0.00     0.278 C 
BRANCH  20  21
HETATM   21  C   UNL     1       3.424  32.521  51.838  1.00  0.00     0.239 C 
HETATM   22  N   UNL     1       2.466  33.166  52.569  1.00  0.00    -0.368 N 
HETATM   23  H   UNL     1       1.617  32.666  52.816  1.00  0.00     0.159 HD
HETATM   24  H   UNL     1       2.738  33.976  53.108  1.00  0.00     0.159 HD
HETATM   25  O   UNL     1       4.549  32.992  51.709  1.00  0.00    -0.271 OA
ENDBRANCH  20  21
ENDBRANCH  19  20
ENDBRANCH  14  19
ENDBRANCH   7  11
BRANCH   8  26
HETATM   26  C   UNL     1       6.703  25.469  54.418  1.00  0.00     0.252 C 
HETATM   27  N   UNL     1       7.601  24.690  53.740  1.00  0.00    -0.353 N 
HETATM   28  H   UNL     1       8.592  24.864  53.839  1.00  0.00     0.163 HD
HETATM   29  O   UNL     1       5.513  25.202  54.546  1.00  0.00    -0.268 OA
BRANCH  27  30
HETATM   30  C   UNL     1       7.196  23.450  53.120  1.00  0.00     0.161 C 
BRANCH  30  31
HETATM   31  C   UNL     1       7.689  22.268  53.911  1.00  0.00    -0.041 A 
HETATM   32  C   UNL     1       8.230  21.147  53.268  1.00  0.00     0.009 A 
HETATM   33  C   UNL     1       8.691  20.058  54.012  1.00  0.00     0.001 A 
HETATM   34  C   UNL     1       8.612  20.078  55.403  1.00  0.00     0.000 A 
HETATM   35  C   UNL     1       8.072  21.185  56.055  1.00  0.00     0.001 A 
HETATM   36  C   UNL     1       7.614  22.275  55.312  1.00  0.00     0.009 A 
ENDBRANCH  30  31
ENDBRANCH  27  30
ENDBRANCH   8  26
TORSDOF 8
ENDMDL
MODEL 9
REMARK VINA RESULT:      -7.8      1.505      2.150
REMARK  8 active torsions:
REMARK  status: ('A' for Active; 'I' for Inactive)
REMARK    1  A    between atoms: C_7  and  C_8 
REMARK    2  A    between atoms: C_10  and  O_11 
REMARK    3  A    between atoms: C_13  and  O_14 
REMARK    4  A    between atoms: O_14  and  C_15 
REMARK    5  A    between atoms: C_15  and  C_16 
REMARK       I    between atoms: C_16  and  N_17 
REMARK    6  A    between atoms: C_21  and  C_22 
REMARK       I    between atoms: C_22  and  N_23 
REMARK    7  A    between atoms: N_23  and  C_24 
REMARK    8  A    between atoms: C_24  and  C_25 
ROOT
HETATM    1  C   UNL     1       5.460  25.452  56.637  1.00  0.00     0.069 C 
HETATM    2  C   UNL     1       5.846  26.519  55.652  1.00  0.00     0.024 C 
HETATM    3  N   UNL     1       5.884  27.799  56.159  1.00  0.00    -0.312 N 
HETATM    4  C   UNL     1       6.355  28.896  55.503  1.00  0.00     0.321 C 
HETATM    5  O   UNL     1       6.389  30.001  56.033  1.00  0.00    -0.247 OA
HETATM    6  N   UNL     1       6.803  28.697  54.241  1.00  0.00    -0.330 N 
HETATM    7  C   UNL     1       6.628  27.474  53.479  1.00  0.00     0.160 C 
HETATM    8  C   UNL     1       6.190  26.337  54.363  1.00  0.00     0.059 C 
HETATM    9  H   UNL     1       5.622  27.973  57.124  1.00  0.00     0.170 HD
HETATM   10  H   UNL     1       7.129  29.526  53.764  1.00  0.00     0.165 HD
ENDROOT
BRANCH   7  11
HETATM   11  C   UNL     1       5.666  27.734  52.327  1.00  0.00    -0.028 A 
HETATM   12  C   UNL     1       4.699  28.753  52.405  1.00  0.00     0.049 A 
HETATM   13  C   UNL     1       3.822  28.998  51.343  1.00  0.00     0.102 A 
HETATM   14  C   UNL     1       3.901  28.200  50.188  1.00  0.00     0.102 A 
HETATM   15  C   UNL     1       4.866  27.195  50.095  1.00  0.00     0.040 A 
HETATM   16  C   UNL     1       5.737  26.959  51.161  1.00  0.00     0.012 A 
BRANCH  13  17
HETATM   17  O   UNL     1       2.843  29.961  51.345  1.00  0.00    -0.353 OA
HETATM   18  C   UNL     1       3.109  31.152  52.075  1.00  0.00     0.210 C 
ENDBRANCH  13  17
BRANCH  14  19
HETATM   19  O   UNL     1       3.027  28.507  49.178  1.00  0.00    -0.339 OA
BRANCH  19  20
HETATM   20  C   UNL     1       3.593  29.072  47.999  1.00  0.00     0.278 C 
BRANCH  20  21
HETATM   21  C   UNL     1       2.765  30.280  47.573  1.00  0.00     0.239 C 
HETATM   22  N   UNL     1       2.820  31.354  48.416  1.00  0.00    -0.368 N 
HETATM   23  H   UNL     1       3.557  31.394  49.115  1.00  0.00     0.159 HD
HETATM   24  H   UNL     1       2.356  32.207  48.137  1.00  0.00     0.159 HD
HETATM   25  O   UNL     1       2.048  30.290  46.578  1.00  0.00    -0.271 OA
ENDBRANCH  20  21
ENDBRANCH  19  20
ENDBRANCH  14  19
ENDBRANCH   7  11
BRANCH   8  26
HETATM   26  C   UNL     1       6.230  25.006  53.705  1.00  0.00     0.252 C 
HETATM   27  N   UNL     1       7.476  24.447  53.616  1.00  0.00    -0.353 N 
HETATM   28  H   UNL     1       8.254  24.873  54.103  1.00  0.00     0.163 HD
HETATM   29  O   UNL     1       5.196  24.453  53.350  1.00  0.00    -0.268 OA
BRANCH  27  30
HETATM   30  C   UNL     1       7.661  23.114  53.093  1.00  0.00     0.161 C 
BRANCH  30  31
HETATM   31  C   UNL     1       8.025  22.151  54.192  1.00  0.00    -0.041 A 
HETATM   32  C   UNL     1       8.383  20.829  53.900  1.00  0.00     0.009 A 
HETATM   33  C   UNL     1       8.726  19.945  54.927  1.00  0.00     0.001 A 
HETATM   34  C   UNL     1       8.709  20.375  56.253  1.00  0.00     0.000 A 
HETATM   35  C   UNL     1       8.350  21.686  56.556  1.00  0.00     0.001 A 
HETATM   36  C   UNL     1       8.010  22.570  55.531  1.00  0.00     0.009 A 
ENDBRANCH  30  31
ENDBRANCH  27  30
ENDBRANCH   8  26
TORSDOF 8
ENDMDL
MODEL 10
REMARK VINA RESULT:      -7.6      2.318      6.113
REMARK  8 active torsions:
REMARK  status: ('A' for Active; 'I' for Inactive)
REMARK    1  A    between atoms: C_7  and  C_8 
REMARK    2  A    between atoms: C_10  and  O_11 
REMARK    3  A    between atoms: C_13  and  O_14 
REMARK    4  A    between atoms: O_14  and  C_15 
REMARK    5  A    between atoms: C_15  and  C_16 
REMARK       I    between atoms: C_16  and  N_17 
REMARK    6  A    between atoms: C_21  and  C_22 
REMARK       I    between atoms: C_22  and  N_23 
REMARK    7  A    between atoms: N_23  and  C_24 
REMARK    8  A    between atoms: C_24  and  C_25 
ROOT
HETATM    1  C   UNL     1       5.541  28.362  49.318  1.00  0.00     0.069 C 
HETATM    2  C   UNL     1       4.577  28.406  50.469  1.00  0.00     0.024 C 
HETATM    3  N   UNL     1       3.310  28.847  50.156  1.00  0.00    -0.312 N 
HETATM    4  C   UNL     1       2.235  28.822  50.993  1.00  0.00     0.321 C 
HETATM    5  O   UNL     1       1.127  29.200  50.632  1.00  0.00    -0.247 OA
HETATM    6  N   UNL     1       2.452  28.336  52.239  1.00  0.00    -0.330 N 
HETATM    7  C   UNL     1       3.757  28.045  52.802  1.00  0.00     0.160 C 
HETATM    8  C   UNL     1       4.821  28.024  51.737  1.00  0.00     0.059 C 
HETATM    9  H   UNL     1       3.095  29.151  49.213  1.00  0.00     0.170 HD
HETATM   10  H   UNL     1       1.648  28.346  52.850  1.00  0.00     0.165 HD
ENDROOT
BRANCH   7  11
HETATM   11  C   UNL     1       4.055  29.039  53.918  1.00  0.00    -0.028 A 
HETATM   12  C   UNL     1       4.573  28.610  55.154  1.00  0.00     0.049 A 
HETATM   13  C   UNL     1       4.854  29.524  56.174  1.00  0.00     0.102 A 
HETATM   14  C   UNL     1       4.599  30.891  55.963  1.00  0.00     0.102 A 
HETATM   15  C   UNL     1       4.098  31.328  54.735  1.00  0.00     0.040 A 
HETATM   16  C   UNL     1       3.820  30.407  53.722  1.00  0.00     0.012 A 
BRANCH  13  17
HETATM   17  O   UNL     1       5.346  29.186  57.411  1.00  0.00    -0.353 OA
HETATM   18  C   UNL     1       6.312  28.143  57.460  1.00  0.00     0.210 C 
ENDBRANCH  13  17
BRANCH  14  19
HETATM   19  O   UNL     1       4.917  31.733  56.996  1.00  0.00    -0.339 OA
BRANCH  19  20
HETATM   20  C   UNL     1       3.825  32.276  57.732  1.00  0.00     0.278 C 
BRANCH  20  21
HETATM   21  C   UNL     1       3.844  31.710  59.149  1.00  0.00     0.239 C 
HETATM   22  N   UNL     1       3.227  30.501  59.305  1.00  0.00    -0.368 N 
HETATM   23  H   UNL     1       3.013  29.948  58.480  1.00  0.00     0.159 HD
HETATM   24  H   UNL     1       3.284  30.046  60.205  1.00  0.00     0.159 HD
HETATM   25  O   UNL     1       4.325  32.307  60.107  1.00  0.00    -0.271 OA
ENDBRANCH  20  21
ENDBRANCH  19  20
ENDBRANCH  14  19
ENDBRANCH   7  11
BRANCH   8  26
HETATM   26  C   UNL     1       6.129  27.492  52.196  1.00  0.00     0.252 C 
HETATM   27  N   UNL     1       6.366  26.186  51.865  1.00  0.00    -0.353 N 
HETATM   28  H   UNL     1       5.739  25.707  51.232  1.00  0.00     0.163 HD
HETATM   29  O   UNL     1       6.937  28.221  52.761  1.00  0.00    -0.268 OA
BRANCH  27  30
HETATM   30  C   UNL     1       7.635  25.560  52.155  1.00  0.00     0.161 C 
BRANCH  30  31
HETATM   31  C   UNL     1       7.509  24.598  53.306  1.00  0.00    -0.041 A 
HETATM   32  C   UNL     1       7.092  25.037  54.569  1.00  0.00     0.009 A 
HETATM   33  C   UNL     1       6.972  24.135  55.629  1.00  0.00     0.001 A 
HETATM   34  C   UNL     1       7.271  22.787  55.436  1.00  0.00     0.000 A 
HETATM   35  C   UNL     1       7.691  22.338  54.186  1.00  0.00     0.001 A 
HETATM   36  C   UNL     1       7.809  23.238  53.126  1.00  0.00     0.009 A 
ENDBRANCH  30  31
ENDBRANCH  27  30
ENDBRANCH   8  26
TORSDOF 8
ENDMDL
