MODEL 1
REMARK VINA RESULT:      -9.6      0.000      0.000
REMARK  10 active torsions:
REMARK  status: ('A' for Active; 'I' for Inactive)
REMARK    1  A    between atoms: C_2  and  N_3 
REMARK    2  A    between atoms: N_3  and  C_5 
REMARK    3  A    between atoms: N_3  and  C_35 
REMARK    4  A    between atoms: C_5  and  C_6 
REMARK    5  A    between atoms: C_6  and  C_7 
REMARK    6  A    between atoms: C_7  and  N_8 
REMARK       I    between atoms: N_8  and  C_9 
REMARK    7  A    between atoms: N_8  and  C_19 
REMARK       I    between atoms: C_9  and  N_10 
REMARK    8  A    between atoms: N_10  and  C_11 
REMARK    9  A    between atoms: C_19  and  C_20 
REMARK   10  A    between atoms: C_21  and  O_22 
ROOT
HETATM    1  N   UNL     1       7.240  26.398  55.525  1.00  0.00    -0.330 N 
HETATM    2  C   UNL     1       7.726  27.133  56.630  1.00  0.00     0.323 C 
HETATM    3  N   UNL     1       8.012  28.449  56.334  1.00  0.00    -0.309 N 
HETATM    4  O   UNL     1       7.765  26.660  57.765  1.00  0.00    -0.247 OA
HETATM    5  H   UNL     1       7.514  28.854  55.551  1.00  0.00     0.170 HD
ENDROOT
BRANCH   1   6
HETATM    6  C   UNL     1       6.816  24.985  55.636  1.00  0.00     0.129 C 
BRANCH   6   7
HETATM    7  C   UNL     1       7.490  23.916  54.772  1.00  0.00     0.048 C 
BRANCH   7   8
HETATM    8  C   UNL     1       8.644  23.198  55.469  1.00  0.00     0.236 C 
BRANCH   8   9
HETATM    9  N   UNL     1       9.124  22.019  54.641  1.00  0.00    -0.072 N 
HETATM   10  H   UNL     1      10.111  22.259  54.427  1.00  0.00     0.279 HD
BRANCH   9  11
HETATM   11  C   UNL     1       8.444  21.846  53.297  1.00  0.00     0.230 C 
HETATM   12  C   UNL     1       8.313  20.387  52.894  1.00  0.00     0.034 C 
ENDBRANCH   9  11
BRANCH   9  13
HETATM   13  C   UNL     1       9.174  20.723  55.429  1.00  0.00     0.230 C 
HETATM   14  C   UNL     1       8.264  20.787  56.643  1.00  0.00     0.034 C 
ENDBRANCH   9  13
ENDBRANCH   8   9
ENDBRANCH   7   8
ENDBRANCH   6   7
ENDBRANCH   1   6
BRANCH   1  15
HETATM   15  C   UNL     1       7.586  26.806  54.142  1.00  0.00     0.170 C 
BRANCH  15  16
HETATM   16  C   UNL     1       6.438  27.237  53.263  1.00  0.00     0.013 A 
HETATM   17  C   UNL     1       5.727  28.422  53.384  1.00  0.00     0.170 A 
HETATM   18  N   UNL     1       4.827  28.877  52.497  1.00  0.00    -0.224 NA
HETATM   19  C   UNL     1       4.570  28.138  51.409  1.00  0.00     0.072 A 
HETATM   20  C   UNL     1       5.197  26.895  51.190  1.00  0.00    -0.004 A 
HETATM   21  C   UNL     1       3.676  28.607  50.457  1.00  0.00     0.072 A 
HETATM   22  C   UNL     1       6.140  26.461  52.134  1.00  0.00     0.027 A 
HETATM   23  C   UNL     1       4.891  26.137  50.047  1.00  0.00     0.053 A 
HETATM   24  C   UNL     1       3.978  26.622  49.115  1.00  0.00     0.103 A 
HETATM   25  C   UNL     1       3.393  27.873  49.306  1.00  0.00     0.104 A 
HETATM   26  O   UNL     1       3.718  25.825  48.032  1.00  0.00    -0.346 OA
HETATM   27  O   UNL     1       2.529  28.441  48.406  1.00  0.00    -0.346 OA
HETATM   28  C   UNL     1       2.596  27.785  47.134  1.00  0.00     0.202 C 
HETATM   29  C   UNL     1       2.561  26.276  47.314  1.00  0.00     0.202 C 
BRANCH  17  30
HETATM   30  O   UNL     1       5.899  29.257  54.445  1.00  0.00    -0.344 OA
HETATM   31  H   UNL     1       6.600  29.868  54.180  1.00  0.00     0.219 HD
ENDBRANCH  17  30
ENDBRANCH  15  16
ENDBRANCH   1  15
BRANCH   3  32
HETATM   32  C   UNL     1       8.671  29.393  57.146  1.00  0.00     0.036 A 
HETATM   33  C   UNL     1      10.002  29.780  56.962  1.00  0.00     0.032 A 
HETATM   34  C   UNL     1      10.571  30.751  57.791  1.00  0.00     0.044 A 
HETATM   35  C   UNL     1       9.808  31.336  58.795  1.00  0.00     0.116 A 
HETATM   36  F   UNL     1      10.357  32.267  59.585  1.00  0.00    -0.206 F 
HETATM   37  C   UNL     1       8.483  30.971  58.986  1.00  0.00     0.044 A 
HETATM   38  C   UNL     1       7.913  30.001  58.159  1.00  0.00     0.032 A 
ENDBRANCH   3  32
TORSDOF 10
ENDMDL
MODEL 2
REMARK VINA RESULT:      -9.3      2.626      6.040
REMARK  10 active torsions:
REMARK  status: ('A' for Active; 'I' for Inactive)
REMARK    1  A    between atoms: C_2  and  N_3 
REMARK    2  A    between atoms: N_3  and  C_5 
REMARK    3  A    between atoms: N_3  and  C_35 
REMARK    4  A    between atoms: C_5  and  C_6 
REMARK    5  A    between atoms: C_6  and  C_7 
REMARK    6  A    between atoms: C_7  and  N_8 
REMARK       I    between atoms: N_8  and  C_9 
REMARK    7  A    between atoms: N_8  and  C_19 
REMARK       I    between atoms: C_9  and  N_10 
REMARK    8  A    between atoms: N_10  and  C_11 
REMARK    9  A    between atoms: C_19  and  C_20 
REMARK   10  A    between atoms: C_21  and  O_22 
ROOT
HETATM    1  N   UNL     1       6.768  27.031  55.756  1.00  0.00    -0.330 N 
HETATM    2  C   UNL     1       6.899  25.624  55.729  1.00  0.00     0.323 C 
HETATM    3  N   UNL     1       7.826  25.175  54.813  1.00  0.00    -0.309 N 
HETATM    4  O   UNL     1       6.324  24.897  56.537  1.00  0.00    -0.247 OA
HETATM    5  H   UNL     1       8.561  25.823  54.559  1.00  0.00     0.170 HD
ENDROOT
BRANCH   1   6
HETATM    6  C   UNL     1       5.873  27.727  56.706  1.00  0.00     0.129 C 
BRANCH   6   7
HETATM    7  C   UNL     1       6.351  28.996  57.416  1.00  0.00     0.048 C 
BRANCH   7   8
HETATM    8  C   UNL     1       7.740  28.868  58.038  1.00  0.00     0.236 C 
BRANCH   8   9
HETATM    9  N   UNL     1       8.655  29.976  57.546  1.00  0.00    -0.072 N 
HETATM   10  H   UNL     1       8.013  30.613  57.038  1.00  0.00     0.279 HD
BRANCH   9  11
HETATM   11  C   UNL     1       9.701  29.555  56.532  1.00  0.00     0.230 C 
HETATM   12  C   UNL     1      11.116  29.672  57.073  1.00  0.00     0.034 C 
ENDBRANCH   9  11
BRANCH   9  13
HETATM   13  C   UNL     1       9.250  30.798  58.675  1.00  0.00     0.230 C 
HETATM   14  C   UNL     1       8.605  30.447  60.004  1.00  0.00     0.034 C 
ENDBRANCH   9  13
ENDBRANCH   8   9
ENDBRANCH   7   8
ENDBRANCH   6   7
ENDBRANCH   1   6
BRANCH   1  15
HETATM   15  C   UNL     1       7.105  27.839  54.559  1.00  0.00     0.170 C 
BRANCH  15  16
HETATM   16  C   UNL     1       6.013  28.001  53.531  1.00  0.00     0.013 A 
HETATM   17  C   UNL     1       5.152  29.083  53.428  1.00  0.00     0.170 A 
HETATM   18  N   UNL     1       4.303  29.302  52.411  1.00  0.00    -0.224 NA
HETATM   19  C   UNL     1       4.257  28.408  51.413  1.00  0.00     0.072 A 
HETATM   20  C   UNL     1       5.052  27.245  51.418  1.00  0.00    -0.004 A 
HETATM   21  C   UNL     1       3.418  28.634  50.330  1.00  0.00     0.072 A 
HETATM   22  C   UNL     1       5.935  27.061  52.492  1.00  0.00     0.027 A 
HETATM   23  C   UNL     1       4.966  26.321  50.363  1.00  0.00     0.053 A 
HETATM   24  C   UNL     1       4.105  26.560  49.297  1.00  0.00     0.103 A 
HETATM   25  C   UNL     1       3.353  27.734  49.267  1.00  0.00     0.104 A 
HETATM   26  O   UNL     1       4.062  25.611  48.311  1.00  0.00    -0.346 OA
HETATM   27  O   UNL     1       2.526  28.066  48.225  1.00  0.00    -0.346 OA
HETATM   28  C   UNL     1       2.809  27.277  47.062  1.00  0.00     0.202 C 
HETATM   29  C   UNL     1       2.942  25.810  47.438  1.00  0.00     0.202 C 
BRANCH  17  30
HETATM   30  O   UNL     1       5.105  30.056  54.379  1.00  0.00    -0.344 OA
HETATM   31  H   UNL     1       4.171  30.137  54.618  1.00  0.00     0.219 HD
ENDBRANCH  17  30
ENDBRANCH  15  16
ENDBRANCH   1  15
BRANCH   3  32
HETATM   32  C   UNL     1       8.068  23.846  54.410  1.00  0.00     0.036 A 
HETATM   33  C   UNL     1       7.517  23.272  53.261  1.00  0.00     0.032 A 
HETATM   34  C   UNL     1       7.836  21.956  52.913  1.00  0.00     0.044 A 
HETATM   35  C   UNL     1       8.709  21.223  53.708  1.00  0.00     0.116 A 
HETATM   36  F   UNL     1       9.014  19.964  53.368  1.00  0.00    -0.206 F 
HETATM   37  C   UNL     1       9.273  21.780  54.846  1.00  0.00     0.044 A 
HETATM   38  C   UNL     1       8.955  23.094  55.195  1.00  0.00     0.032 A 
ENDBRANCH   3  32
TORSDOF 10
ENDMDL
MODEL 3
REMARK VINA RESULT:      -9.2      3.080      8.545
REMARK  10 active torsions:
REMARK  status: ('A' for Active; 'I' for Inactive)
REMARK    1  A    between atoms: C_2  and  N_3 
REMARK    2  A    between atoms: N_3  and  C_5 
REMARK    3  A    between atoms: N_3  and  C_35 
REMARK    4  A    between atoms: C_5  and  C_6 
REMARK    5  A    between atoms: C_6  and  C_7 
REMARK    6  A    between atoms: C_7  and  N_8 
REMARK       I    between atoms: N_8  and  C_9 
REMARK    7  A    between atoms: N_8  and  C_19 
REMARK       I    between atoms: C_9  and  N_10 
REMARK    8  A    between atoms: N_10  and  C_11 
REMARK    9  A    between atoms: C_19  and  C_20 
REMARK   10  A    between atoms: C_21  and  O_22 
ROOT
HETATM    1  N   UNL     1       5.705  25.818  52.287  1.00  0.00    -0.330 N 
HETATM    2  C   UNL     1       6.744  24.896  52.544  1.00  0.00     0.323 C 
HETATM    3  N   UNL     1       6.467  24.031  53.582  1.00  0.00    -0.309 N 
HETATM    4  O   UNL     1       7.735  24.807  51.822  1.00  0.00    -0.247 OA
HETATM    5  H   UNL     1       5.489  23.863  53.782  1.00  0.00     0.170 HD
ENDROOT
BRANCH   1   6
HETATM    6  C   UNL     1       5.768  26.796  51.178  1.00  0.00     0.129 C 
BRANCH   6   7
HETATM    7  C   UNL     1       4.915  26.587  49.925  1.00  0.00     0.048 C 
BRANCH   7   8
HETATM    8  C   UNL     1       3.885  27.690  49.689  1.00  0.00     0.236 C 
BRANCH   8   9
HETATM    9  N   UNL     1       2.739  27.183  48.830  1.00  0.00    -0.072 N 
HETATM   10  H   UNL     1       2.448  26.308  49.306  1.00  0.00     0.279 HD
BRANCH   9  11
HETATM   11  C   UNL     1       3.113  26.777  47.418  1.00  0.00     0.230 C 
HETATM   12  C   UNL     1       2.874  25.299  47.155  1.00  0.00     0.034 C 
ENDBRANCH   9  11
BRANCH   9  13
HETATM   13  C   UNL     1       1.527  28.096  48.862  1.00  0.00     0.230 C 
HETATM   14  C   UNL     1       1.580  29.032  50.055  1.00  0.00     0.034 C 
ENDBRANCH   9  13
ENDBRANCH   8   9
ENDBRANCH   7   8
ENDBRANCH   6   7
ENDBRANCH   1   6
BRANCH   1  15
HETATM   15  C   UNL     1       4.759  26.203  53.362  1.00  0.00     0.170 C 
BRANCH  15  16
HETATM   16  C   UNL     1       5.097  27.452  54.136  1.00  0.00     0.013 A 
HETATM   17  C   UNL     1       4.452  28.675  54.022  1.00  0.00     0.170 A 
HETATM   18  N   UNL     1       4.641  29.728  54.834  1.00  0.00    -0.224 NA
HETATM   19  C   UNL     1       5.529  29.615  55.832  1.00  0.00     0.072 A 
HETATM   20  C   UNL     1       6.279  28.438  56.031  1.00  0.00    -0.004 A 
HETATM   21  C   UNL     1       5.711  30.674  56.710  1.00  0.00     0.072 A 
HETATM   22  C   UNL     1       6.042  27.357  55.169  1.00  0.00     0.027 A 
HETATM   23  C   UNL     1       7.214  28.360  57.076  1.00  0.00     0.053 A 
HETATM   24  C   UNL     1       7.391  29.442  57.934  1.00  0.00     0.103 A 
HETATM   25  C   UNL     1       6.615  30.589  57.768  1.00  0.00     0.104 A 
HETATM   26  O   UNL     1       8.328  29.302  58.922  1.00  0.00    -0.346 OA
HETATM   27  O   UNL     1       6.692  31.672  58.605  1.00  0.00    -0.346 OA
HETATM   28  C   UNL     1       7.363  31.340  59.827  1.00  0.00     0.202 C 
HETATM   29  C   UNL     1       8.635  30.560  59.538  1.00  0.00     0.202 C 
BRANCH  17  30
HETATM   30  O   UNL     1       3.531  28.912  53.049  1.00  0.00    -0.344 OA
HETATM   31  H   UNL     1       3.469  28.088  52.547  1.00  0.00     0.219 HD
ENDBRANCH  17  30
ENDBRANCH  15  16
ENDBRANCH   1  15
BRANCH   3  32
HETATM   32  C   UNL     1       7.345  23.122  54.205  1.00  0.00     0.036 A 
HETATM   33  C   UNL     1       7.826  23.278  55.509  1.00  0.00     0.032 A 
HETATM   34  C   UNL     1       8.667  22.310  56.066  1.00  0.00     0.044 A 
HETATM   35  C   UNL     1       9.018  21.189  55.323  1.00  0.00     0.116 A 
HETATM   36  F   UNL     1       9.821  20.263  55.863  1.00  0.00    -0.206 F 
HETATM   37  C   UNL     1       8.542  21.013  54.032  1.00  0.00     0.044 A 
HETATM   38  C   UNL     1       7.702  21.978  53.474  1.00  0.00     0.032 A 
ENDBRANCH   3  32
TORSDOF 10
ENDMDL
MODEL 4
REMARK VINA RESULT:      -9.2      2.843      6.264
REMARK  10 active torsions:
REMARK  status: ('A' for Active; 'I' for Inactive)
REMARK    1  A    between atoms: C_2  and  N_3 
REMARK    2  A    between atoms: N_3  and  C_5 
REMARK    3  A    between atoms: N_3  and  C_35 
REMARK    4  A    between atoms: C_5  and  C_6 
REMARK    5  A    between atoms: C_6  and  C_7 
REMARK    6  A    between atoms: C_7  and  N_8 
REMARK       I    between atoms: N_8  and  C_9 
REMARK    7  A    between atoms: N_8  and  C_19 
REMARK       I    between atoms: C_9  and  N_10 
REMARK    8  A    between atoms: N_10  and  C_11 
REMARK    9  A    between atoms: C_19  and  C_20 
REMARK   10  A    between atoms: C_21  and  O_22 
ROOT
HETATM    1  N   UNL     1       6.015  29.383  56.138  1.00  0.00    -0.330 N 
HETATM    2  C   UNL     1       5.923  29.976  57.417  1.00  0.00     0.323 C 
HETATM    3  N   UNL     1       7.090  30.588  57.825  1.00  0.00    -0.309 N 
HETATM    4  O   UNL     1       4.863  30.039  58.036  1.00  0.00    -0.247 OA
HETATM    5  H   UNL     1       7.717  30.898  57.093  1.00  0.00     0.170 HD
ENDROOT
BRANCH   1   6
HETATM    6  C   UNL     1       4.862  28.725  55.484  1.00  0.00     0.129 C 
BRANCH   6   7
HETATM    7  C   UNL     1       4.696  28.809  53.964  1.00  0.00     0.048 C 
BRANCH   7   8
HETATM    8  C   UNL     1       4.267  27.494  53.317  1.00  0.00     0.236 C 
BRANCH   8   9
HETATM    9  N   UNL     1       4.992  27.279  52.000  1.00  0.00    -0.072 N 
HETATM   10  H   UNL     1       5.926  27.699  52.166  1.00  0.00     0.279 HD
BRANCH   9  11
HETATM   11  C   UNL     1       4.416  28.022  50.810  1.00  0.00     0.230 C 
HETATM   12  C   UNL     1       4.372  27.166  49.555  1.00  0.00     0.034 C 
ENDBRANCH   9  11
BRANCH   9  13
HETATM   13  C   UNL     1       5.243  25.814  51.694  1.00  0.00     0.230 C 
HETATM   14  C   UNL     1       4.640  24.922  52.764  1.00  0.00     0.034 C 
ENDBRANCH   9  13
ENDBRANCH   8   9
ENDBRANCH   7   8
ENDBRANCH   6   7
ENDBRANCH   1   6
BRANCH   1  15
HETATM   15  C   UNL     1       7.327  28.942  55.607  1.00  0.00     0.170 C 
BRANCH  15  16
HETATM   16  C   UNL     1       7.689  27.495  55.831  1.00  0.00     0.013 A 
HETATM   17  C   UNL     1       7.885  26.890  57.064  1.00  0.00     0.170 A 
HETATM   18  N   UNL     1       8.034  25.571  57.264  1.00  0.00    -0.224 NA
HETATM   19  C   UNL     1       8.009  24.756  56.200  1.00  0.00     0.072 A 
HETATM   20  C   UNL     1       7.857  25.250  54.889  1.00  0.00    -0.004 A 
HETATM   21  C   UNL     1       8.119  23.385  56.385  1.00  0.00     0.072 A 
HETATM   22  C   UNL     1       7.692  26.633  54.724  1.00  0.00     0.027 A 
HETATM   23  C   UNL     1       7.854  24.368  53.794  1.00  0.00     0.053 A 
HETATM   24  C   UNL     1       7.982  22.998  54.004  1.00  0.00     0.103 A 
HETATM   25  C   UNL     1       8.084  22.505  55.304  1.00  0.00     0.104 A 
HETATM   26  O   UNL     1       7.984  22.200  52.892  1.00  0.00    -0.346 OA
HETATM   27  O   UNL     1       8.156  21.167  55.593  1.00  0.00    -0.346 OA
HETATM   28  C   UNL     1       7.755  20.368  54.472  1.00  0.00     0.202 C 
HETATM   29  C   UNL     1       8.420  20.869  53.200  1.00  0.00     0.202 C 
BRANCH  17  30
HETATM   30  O   UNL     1       7.930  27.612  58.218  1.00  0.00    -0.344 OA
HETATM   31  H   UNL     1       8.659  27.234  58.729  1.00  0.00     0.219 HD
ENDBRANCH  17  30
ENDBRANCH  15  16
ENDBRANCH   1  15
BRANCH   3  32
HETATM   32  C   UNL     1       7.392  31.110  59.099  1.00  0.00     0.036 A 
HETATM   33  C   UNL     1       6.711  32.185  59.677  1.00  0.00     0.032 A 
HETATM   34  C   UNL     1       7.051  32.619  60.962  1.00  0.00     0.044 A 
HETATM   35  C   UNL     1       8.061  31.974  61.665  1.00  0.00     0.116 A 
HETATM   36  F   UNL     1       8.380  32.392  62.897  1.00  0.00    -0.206 F 
HETATM   37  C   UNL     1       8.741  30.900  61.110  1.00  0.00     0.044 A 
HETATM   38  C   UNL     1       8.403  30.465  59.827  1.00  0.00     0.032 A 
ENDBRANCH   3  32
TORSDOF 10
ENDMDL
MODEL 5
REMARK VINA RESULT:      -9.0      3.297      7.088
REMARK  10 active torsions:
REMARK  status: ('A' for Active; 'I' for Inactive)
REMARK    1  A    between atoms: C_2  and  N_3 
REMARK    2  A    between atoms: N_3  and  C_5 
REMARK    3  A    between atoms: N_3  and  C_35 
REMARK    4  A    between atoms: C_5  and  C_6 
REMARK    5  A    between atoms: C_6  and  C_7 
REMARK    6  A    between atoms: C_7  and  N_8 
REMARK       I    between atoms: N_8  and  C_9 
REMARK    7  A    between atoms: N_8  and  C_19 
REMARK       I    between atoms: C_9  and  N_10 
REMARK    8  A    between atoms: N_10  and  C_11 
REMARK    9  A    between atoms: C_19  and  C_20 
REMARK   10  A    between atoms: C_21  and  O_22 
ROOT
HETATM    1  N   UNL     1       5.774  30.624  57.123  1.00  0.00    -0.330 N 
HETATM    2  C   UNL     1       6.175  31.564  58.100  1.00  0.00     0.323 C 
HETATM    3  N   UNL     1       6.705  30.986  59.235  1.00  0.00    -0.309 N 
HETATM    4  O   UNL     1       6.161  32.775  57.889  1.00  0.00    -0.247 OA
HETATM    5  H   UNL     1       7.110  30.065  59.126  1.00  0.00     0.170 HD
ENDROOT
BRANCH   1   6
HETATM    6  C   UNL     1       5.235  31.030  55.806  1.00  0.00     0.129 C 
BRANCH   6   7
HETATM    7  C   UNL     1       4.041  30.282  55.207  1.00  0.00     0.048 C 
BRANCH   7   8
HETATM    8  C   UNL     1       3.764  30.633  53.746  1.00  0.00     0.236 C 
BRANCH   8   9
HETATM    9  N   UNL     1       3.121  29.462  53.024  1.00  0.00    -0.072 N 
HETATM   10  H   UNL     1       2.190  29.381  53.475  1.00  0.00     0.279 HD
BRANCH   9  11
HETATM   11  C   UNL     1       3.794  28.119  53.229  1.00  0.00     0.230 C 
HETATM   12  C   UNL     1       5.074  27.980  52.422  1.00  0.00     0.034 C 
ENDBRANCH   9  11
BRANCH   9  13
HETATM   13  C   UNL     1       2.848  29.748  51.559  1.00  0.00     0.230 C 
HETATM   14  C   UNL     1       2.626  31.231  51.324  1.00  0.00     0.034 C 
ENDBRANCH   9  13
ENDBRANCH   8   9
ENDBRANCH   7   8
ENDBRANCH   6   7
ENDBRANCH   1   6
BRANCH   1  15
HETATM   15  C   UNL     1       5.398  29.246  57.518  1.00  0.00     0.170 C 
BRANCH  15  16
HETATM   16  C   UNL     1       6.352  28.149  57.114  1.00  0.00     0.013 A 
HETATM   17  C   UNL     1       7.512  27.796  57.788  1.00  0.00     0.170 A 
HETATM   18  N   UNL     1       8.260  26.713  57.524  1.00  0.00    -0.224 NA
HETATM   19  C   UNL     1       7.883  25.902  56.525  1.00  0.00     0.072 A 
HETATM   20  C   UNL     1       6.746  26.172  55.739  1.00  0.00    -0.004 A 
HETATM   21  C   UNL     1       8.616  24.754  56.261  1.00  0.00     0.072 A 
HETATM   22  C   UNL     1       5.984  27.306  56.055  1.00  0.00     0.027 A 
HETATM   23  C   UNL     1       6.388  25.310  54.688  1.00  0.00     0.053 A 
HETATM   24  C   UNL     1       7.149  24.173  54.431  1.00  0.00     0.103 A 
HETATM   25  C   UNL     1       8.247  23.879  55.240  1.00  0.00     0.104 A 
HETATM   26  O   UNL     1       6.751  23.386  53.385  1.00  0.00    -0.346 OA
HETATM   27  O   UNL     1       9.010  22.751  55.085  1.00  0.00    -0.346 OA
HETATM   28  C   UNL     1       8.342  21.777  54.273  1.00  0.00     0.202 C 
HETATM   29  C   UNL     1       7.762  22.432  53.029  1.00  0.00     0.202 C 
BRANCH  17  30
HETATM   30  O   UNL     1       7.998  28.540  58.819  1.00  0.00    -0.344 OA
HETATM   31  H   UNL     1       8.730  28.026  59.185  1.00  0.00     0.219 HD
ENDBRANCH  17  30
ENDBRANCH  15  16
ENDBRANCH   1  15
BRANCH   3  32
HETATM   32  C   UNL     1       7.031  31.616  60.453  1.00  0.00     0.036 A 
HETATM   33  C   UNL     1       6.133  32.397  61.186  1.00  0.00     0.032 A 
HETATM   34  C   UNL     1       6.525  32.959  62.404  1.00  0.00     0.044 A 
HETATM   35  C   UNL     1       7.808  32.732  62.889  1.00  0.00     0.116 A 
HETATM   36  F   UNL     1       8.178  33.270  64.058  1.00  0.00    -0.206 F 
HETATM   37  C   UNL     1       8.709  31.951  62.179  1.00  0.00     0.044 A 
HETATM   38  C   UNL     1       8.319  31.390  60.962  1.00  0.00     0.032 A 
ENDBRANCH   3  32
TORSDOF 10
ENDMDL
MODEL 6
REMARK VINA RESULT:      -8.9      3.240      8.393
REMARK  10 active torsions:
REMARK  status: ('A' for Active; 'I' for Inactive)
REMARK    1  A    between atoms: C_2  and  N_3 
REMARK    2  A    between atoms: N_3  and  C_5 
REMARK    3  A    between atoms: N_3  and  C_35 
REMARK    4  A    between atoms: C_5  and  C_6 
REMARK    5  A    between atoms: C_6  and  C_7 
REMARK    6  A    between atoms: C_7  and  N_8 
REMARK       I    between atoms: N_8  and  C_9 
REMARK    7  A    between atoms: N_8  and  C_19 
REMARK       I    between atoms: C_9  and  N_10 
REMARK    8  A    between atoms: N_10  and  C_11 
REMARK    9  A    between atoms: C_19  and  C_20 
REMARK   10  A    between atoms: C_21  and  O_22 
ROOT
HETATM    1  N   UNL     1       6.619  26.320  54.283  1.00  0.00    -0.330 N 
HETATM    2  C   UNL     1       5.608  26.209  53.301  1.00  0.00     0.323 C 
HETATM    3  N   UNL     1       5.921  26.839  52.116  1.00  0.00    -0.309 N 
HETATM    4  O   UNL     1       4.611  25.508  53.464  1.00  0.00    -0.247 OA
HETATM    5  H   UNL     1       6.906  26.959  51.914  1.00  0.00     0.170 HD
ENDROOT
BRANCH   1   6
HETATM    6  C   UNL     1       6.515  25.667  55.607  1.00  0.00     0.129 C 
BRANCH   6   7
HETATM    7  C   UNL     1       7.065  24.252  55.806  1.00  0.00     0.048 C 
BRANCH   7   8
HETATM    8  C   UNL     1       8.042  23.812  54.717  1.00  0.00     0.236 C 
BRANCH   8   9
HETATM    9  N   UNL     1       7.989  22.306  54.523  1.00  0.00    -0.072 N 
HETATM   10  H   UNL     1       7.073  22.041  54.930  1.00  0.00     0.279 HD
BRANCH   9  11
HETATM   11  C   UNL     1       9.026  21.513  55.294  1.00  0.00     0.230 C 
HETATM   12  C   UNL     1       8.443  20.834  56.522  1.00  0.00     0.034 C 
ENDBRANCH   9  11
BRANCH   9  13
HETATM   13  C   UNL     1       7.928  21.901  53.061  1.00  0.00     0.230 C 
HETATM   14  C   UNL     1       8.341  20.451  52.880  1.00  0.00     0.034 C 
ENDBRANCH   9  13
ENDBRANCH   8   9
ENDBRANCH   7   8
ENDBRANCH   6   7
ENDBRANCH   1   6
BRANCH   1  15
HETATM   15  C   UNL     1       7.567  27.459  54.258  1.00  0.00     0.170 C 
BRANCH  15  16
HETATM   16  C   UNL     1       7.310  28.567  55.249  1.00  0.00     0.013 A 
HETATM   17  C   UNL     1       6.217  29.421  55.244  1.00  0.00     0.170 A 
HETATM   18  N   UNL     1       5.906  30.285  56.222  1.00  0.00    -0.224 NA
HETATM   19  C   UNL     1       6.710  30.356  57.293  1.00  0.00     0.072 A 
HETATM   20  C   UNL     1       7.875  29.571  57.401  1.00  0.00    -0.004 A 
HETATM   21  C   UNL     1       6.387  31.212  58.337  1.00  0.00     0.072 A 
HETATM   22  C   UNL     1       8.157  28.671  56.363  1.00  0.00     0.027 A 
HETATM   23  C   UNL     1       8.705  29.684  58.529  1.00  0.00     0.053 A 
HETATM   24  C   UNL     1       8.369  30.561  59.556  1.00  0.00     0.103 A 
HETATM   25  C   UNL     1       7.191  31.303  59.472  1.00  0.00     0.104 A 
HETATM   26  O   UNL     1       9.230  30.629  60.618  1.00  0.00    -0.346 OA
HETATM   27  O   UNL     1       6.765  32.145  60.466  1.00  0.00    -0.346 OA
HETATM   28  C   UNL     1       7.454  31.889  61.697  1.00  0.00     0.202 C 
HETATM   29  C   UNL     1       8.949  31.762  61.451  1.00  0.00     0.202 C 
BRANCH  17  30
HETATM   30  O   UNL     1       5.329  29.443  54.212  1.00  0.00    -0.344 OA
HETATM   31  H   UNL     1       5.855  29.285  53.416  1.00  0.00     0.219 HD
ENDBRANCH  17  30
ENDBRANCH  15  16
ENDBRANCH   1  15
BRANCH   3  32
HETATM   32  C   UNL     1       5.076  27.071  51.012  1.00  0.00     0.036 A 
HETATM   33  C   UNL     1       4.892  26.156  49.971  1.00  0.00     0.032 A 
HETATM   34  C   UNL     1       4.007  26.450  48.929  1.00  0.00     0.044 A 
HETATM   35  C   UNL     1       3.306  27.649  48.935  1.00  0.00     0.116 A 
HETATM   36  F   UNL     1       2.457  27.924  47.936  1.00  0.00    -0.206 F 
HETATM   37  C   UNL     1       3.469  28.564  49.965  1.00  0.00     0.044 A 
HETATM   38  C   UNL     1       4.352  28.273  51.006  1.00  0.00     0.032 A 
ENDBRANCH   3  32
TORSDOF 10
ENDMDL
MODEL 7
REMARK VINA RESULT:      -8.8      2.823      6.195
REMARK  10 active torsions:
REMARK  status: ('A' for Active; 'I' for Inactive)
REMARK    1  A    between atoms: C_2  and  N_3 
REMARK    2  A    between atoms: N_3  and  C_5 
REMARK    3  A    between atoms: N_3  and  C_35 
REMARK    4  A    between atoms: C_5  and  C_6 
REMARK    5  A    between atoms: C_6  and  C_7 
REMARK    6  A    between atoms: C_7  and  N_8 
REMARK       I    between atoms: N_8  and  C_9 
REMARK    7  A    between atoms: N_8  and  C_19 
REMARK       I    between atoms: C_9  and  N_10 
REMARK    8  A    between atoms: N_10  and  C_11 
REMARK    9  A    between atoms: C_19  and  C_20 
REMARK   10  A    between atoms: C_21  and  O_22 
ROOT
HETATM    1  N   UNL     1       6.710  26.955  55.698  1.00  0.00    -0.330 N 
HETATM    2  C   UNL     1       6.659  25.601  56.101  1.00  0.00     0.323 C 
HETATM    3  N   UNL     1       7.759  24.868  55.709  1.00  0.00    -0.309 N 
HETATM    4  O   UNL     1       5.773  25.169  56.836  1.00  0.00    -0.247 OA
HETATM    5  H   UNL     1       8.614  25.386  55.548  1.00  0.00     0.170 HD
ENDROOT
BRANCH   1   6
HETATM    6  C   UNL     1       5.662  27.932  56.065  1.00  0.00     0.129 C 
BRANCH   6   7
HETATM    7  C   UNL     1       5.994  29.088  57.011  1.00  0.00     0.048 C 
BRANCH   7   8
HETATM    8  C   UNL     1       7.217  28.833  57.891  1.00  0.00     0.236 C 
BRANCH   8   9
HETATM    9  N   UNL     1       8.385  29.702  57.457  1.00  0.00    -0.072 N 
HETATM   10  H   UNL     1       8.045  30.145  56.583  1.00  0.00     0.279 HD
BRANCH   9  11
HETATM   11  C   UNL     1       9.647  28.953  57.074  1.00  0.00     0.230 C 
HETATM   12  C   UNL     1      10.846  29.873  56.925  1.00  0.00     0.034 C 
ENDBRANCH   9  11
BRANCH   9  13
HETATM   13  C   UNL     1       8.664  30.842  58.420  1.00  0.00     0.230 C 
HETATM   14  C   UNL     1       8.522  30.387  59.861  1.00  0.00     0.034 C 
ENDBRANCH   9  13
ENDBRANCH   8   9
ENDBRANCH   7   8
ENDBRANCH   6   7
ENDBRANCH   1   6
BRANCH   1  15
HETATM   15  C   UNL     1       7.504  27.354  54.511  1.00  0.00     0.170 C 
BRANCH  15  16
HETATM   16  C   UNL     1       6.852  27.144  53.167  1.00  0.00     0.013 A 
HETATM   17  C   UNL     1       7.036  26.045  52.341  1.00  0.00     0.170 A 
HETATM   18  N   UNL     1       6.324  25.781  51.233  1.00  0.00    -0.224 NA
HETATM   19  C   UNL     1       5.363  26.643  50.871  1.00  0.00     0.072 A 
HETATM   20  C   UNL     1       5.103  27.817  51.603  1.00  0.00    -0.004 A 
HETATM   21  C   UNL     1       4.585  26.370  49.754  1.00  0.00     0.072 A 
HETATM   22  C   UNL     1       5.860  28.049  52.761  1.00  0.00     0.027 A 
HETATM   23  C   UNL     1       4.099  28.708  51.185  1.00  0.00     0.053 A 
HETATM   24  C   UNL     1       3.343  28.421  50.052  1.00  0.00     0.103 A 
HETATM   25  C   UNL     1       3.568  27.235  49.354  1.00  0.00     0.104 A 
HETATM   26  O   UNL     1       2.392  29.338  49.695  1.00  0.00    -0.346 OA
HETATM   27  O   UNL     1       2.828  26.858  48.263  1.00  0.00    -0.346 OA
HETATM   28  C   UNL     1       1.614  27.615  48.168  1.00  0.00     0.202 C 
HETATM   29  C   UNL     1       1.897  29.095  48.371  1.00  0.00     0.202 C 
BRANCH  17  30
HETATM   30  O   UNL     1       7.982  25.101  52.602  1.00  0.00    -0.344 OA
HETATM   31  H   UNL     1       7.965  24.979  53.561  1.00  0.00     0.219 HD
ENDBRANCH  17  30
ENDBRANCH  15  16
ENDBRANCH   1  15
BRANCH   3  32
HETATM   32  C   UNL     1       7.939  23.472  55.789  1.00  0.00     0.036 A 
HETATM   33  C   UNL     1       8.361  22.810  56.945  1.00  0.00     0.032 A 
HETATM   34  C   UNL     1       8.482  21.418  56.951  1.00  0.00     0.044 A 
HETATM   35  C   UNL     1       8.174  20.692  55.806  1.00  0.00     0.116 A 
HETATM   36  F   UNL     1       8.289  19.358  55.818  1.00  0.00    -0.206 F 
HETATM   37  C   UNL     1       7.745  21.332  54.653  1.00  0.00     0.044 A 
HETATM   38  C   UNL     1       7.624  22.723  54.645  1.00  0.00     0.032 A 
ENDBRANCH   3  32
TORSDOF 10
ENDMDL
MODEL 8
REMARK VINA RESULT:      -8.7      2.978      6.745
REMARK  10 active torsions:
REMARK  status: ('A' for Active; 'I' for Inactive)
REMARK    1  A    between atoms: C_2  and  N_3 
REMARK    2  A    between atoms: N_3  and  C_5 
REMARK    3  A    between atoms: N_3  and  C_35 
REMARK    4  A    between atoms: C_5  and  C_6 
REMARK    5  A    between atoms: C_6  and  C_7 
REMARK    6  A    between atoms: C_7  and  N_8 
REMARK       I    between atoms: N_8  and  C_9 
REMARK    7  A    between atoms: N_8  and  C_19 
REMARK       I    between atoms: C_9  and  N_10 
REMARK    8  A    between atoms: N_10  and  C_11 
REMARK    9  A    between atoms: C_19  and  C_20 
REMARK   10  A    between atoms: C_21  and  O_22 
ROOT
HETATM    1  N   UNL     1       7.139  26.215  56.894  1.00  0.00    -0.330 N 
HETATM    2  C   UNL     1       7.957  25.103  56.592  1.00  0.00     0.323 C 
HETATM    3  N   UNL     1       7.400  24.244  55.669  1.00  0.00    -0.309 N 
HETATM    4  O   UNL     1       9.103  24.995  57.026  1.00  0.00    -0.247 OA
HETATM    5  H   UNL     1       6.717  24.642  55.036  1.00  0.00     0.170 HD
ENDROOT
BRANCH   1   6
HETATM    6  C   UNL     1       7.570  27.291  57.814  1.00  0.00     0.129 C 
BRANCH   6   7
HETATM    7  C   UNL     1       7.937  28.669  57.258  1.00  0.00     0.048 C 
BRANCH   7   8
HETATM    8  C   UNL     1       8.498  29.627  58.307  1.00  0.00     0.236 C 
BRANCH   8   9
HETATM    9  N   UNL     1       7.377  30.380  59.003  1.00  0.00    -0.072 N 
HETATM   10  H   UNL     1       6.810  29.626  59.435  1.00  0.00     0.279 HD
BRANCH   9  11
HETATM   11  C   UNL     1       6.430  31.132  58.088  1.00  0.00     0.230 C 
HETATM   12  C   UNL     1       5.421  31.969  58.856  1.00  0.00     0.034 C 
ENDBRANCH   9  11
BRANCH   9  13
HETATM   13  C   UNL     1       7.868  31.241  60.153  1.00  0.00     0.230 C 
HETATM   14  C   UNL     1       9.071  30.612  60.831  1.00  0.00     0.034 C 
ENDBRANCH   9  13
ENDBRANCH   8   9
ENDBRANCH   7   8
ENDBRANCH   6   7
ENDBRANCH   1   6
BRANCH   1  15
HETATM   15  C   UNL     1       5.668  26.132  56.728  1.00  0.00     0.170 C 
BRANCH  15  16
HETATM   16  C   UNL     1       5.084  26.867  55.547  1.00  0.00     0.013 A 
HETATM   17  C   UNL     1       4.476  28.113  55.589  1.00  0.00     0.170 A 
HETATM   18  N   UNL     1       4.117  28.835  54.516  1.00  0.00    -0.224 NA
HETATM   19  C   UNL     1       4.342  28.324  53.297  1.00  0.00     0.072 A 
HETATM   20  C   UNL     1       4.917  27.050  53.119  1.00  0.00    -0.004 A 
HETATM   21  C   UNL     1       4.019  29.070  52.172  1.00  0.00     0.072 A 
HETATM   22  C   UNL     1       5.290  26.334  54.266  1.00  0.00     0.027 A 
HETATM   23  C   UNL     1       5.123  26.538  51.827  1.00  0.00     0.053 A 
HETATM   24  C   UNL     1       4.775  27.298  50.714  1.00  0.00     0.103 A 
HETATM   25  C   UNL     1       4.251  28.578  50.888  1.00  0.00     0.104 A 
HETATM   26  O   UNL     1       4.991  26.731  49.487  1.00  0.00    -0.346 OA
HETATM   27  O   UNL     1       3.937  29.406  49.842  1.00  0.00    -0.346 OA
HETATM   28  C   UNL     1       4.539  28.957  48.621  1.00  0.00     0.202 C 
HETATM   29  C   UNL     1       4.327  27.462  48.446  1.00  0.00     0.202 C 
BRANCH  17  30
HETATM   30  O   UNL     1       4.194  28.734  56.767  1.00  0.00    -0.344 OA
HETATM   31  H   UNL     1       4.427  29.663  56.631  1.00  0.00     0.219 HD
ENDBRANCH  17  30
ENDBRANCH  15  16
ENDBRANCH   1  15
BRANCH   3  32
HETATM   32  C   UNL     1       7.862  22.968  55.287  1.00  0.00     0.036 A 
HETATM   33  C   UNL     1       8.028  21.905  56.180  1.00  0.00     0.032 A 
HETATM   34  C   UNL     1       8.458  20.659  55.713  1.00  0.00     0.044 A 
HETATM   35  C   UNL     1       8.712  20.479  54.359  1.00  0.00     0.116 A 
HETATM   36  F   UNL     1       9.121  19.283  53.916  1.00  0.00    -0.206 F 
HETATM   37  C   UNL     1       8.543  21.520  53.457  1.00  0.00     0.044 A 
HETATM   38  C   UNL     1       8.114  22.764  53.922  1.00  0.00     0.032 A 
ENDBRANCH   3  32
TORSDOF 10
ENDMDL
MODEL 9
REMARK VINA RESULT:      -8.6      3.447      8.705
REMARK  10 active torsions:
REMARK  status: ('A' for Active; 'I' for Inactive)
REMARK    1  A    between atoms: C_2  and  N_3 
REMARK    2  A    between atoms: N_3  and  C_5 
REMARK    3  A    between atoms: N_3  and  C_35 
REMARK    4  A    between atoms: C_5  and  C_6 
REMARK    5  A    between atoms: C_6  and  C_7 
REMARK    6  A    between atoms: C_7  and  N_8 
REMARK       I    between atoms: N_8  and  C_9 
REMARK    7  A    between atoms: N_8  and  C_19 
REMARK       I    between atoms: C_9  and  N_10 
REMARK    8  A    between atoms: N_10  and  C_11 
REMARK    9  A    between atoms: C_19  and  C_20 
REMARK   10  A    between atoms: C_21  and  O_22 
ROOT
HETATM    1  N   UNL     1       4.884  28.561  53.272  1.00  0.00    -0.330 N 
HETATM    2  C   UNL     1       4.085  29.011  52.196  1.00  0.00     0.323 C 
HETATM    3  N   UNL     1       4.454  28.481  50.978  1.00  0.00    -0.309 N 
HETATM    4  O   UNL     1       3.086  29.708  52.368  1.00  0.00    -0.247 OA
HETATM    5  H   UNL     1       4.937  27.592  50.999  1.00  0.00     0.170 HD
ENDROOT
BRANCH   1   6
HETATM    6  C   UNL     1       4.624  28.958  54.673  1.00  0.00     0.129 C 
BRANCH   6   7
HETATM    7  C   UNL     1       5.769  29.479  55.544  1.00  0.00     0.048 C 
BRANCH   7   8
HETATM    8  C   UNL     1       5.422  29.573  57.028  1.00  0.00     0.236 C 
BRANCH   8   9
HETATM    9  N   UNL     1       6.601  29.145  57.886  1.00  0.00    -0.072 N 
HETATM   10  H   UNL     1       6.196  29.080  58.839  1.00  0.00     0.279 HD
BRANCH   9  11
HETATM   11  C   UNL     1       7.732  30.149  57.988  1.00  0.00     0.230 C 
HETATM   12  C   UNL     1       8.108  30.458  59.427  1.00  0.00     0.034 C 
ENDBRANCH   9  11
BRANCH   9  13
HETATM   13  C   UNL     1       7.100  27.751  57.551  1.00  0.00     0.230 C 
HETATM   14  C   UNL     1       8.569  27.775  57.168  1.00  0.00     0.034 C 
ENDBRANCH   9  13
ENDBRANCH   8   9
ENDBRANCH   7   8
ENDBRANCH   6   7
ENDBRANCH   1   6
BRANCH   1  15
HETATM   15  C   UNL     1       6.273  28.102  53.034  1.00  0.00     0.170 C 
BRANCH  15  16
HETATM   16  C   UNL     1       6.509  26.614  53.105  1.00  0.00     0.013 A 
HETATM   17  C   UNL     1       6.557  25.749  52.021  1.00  0.00     0.170 A 
HETATM   18  N   UNL     1       6.938  24.463  52.074  1.00  0.00    -0.224 NA
HETATM   19  C   UNL     1       7.290  23.948  53.262  1.00  0.00     0.072 A 
HETATM   20  C   UNL     1       7.245  24.711  54.445  1.00  0.00    -0.004 A 
HETATM   21  C   UNL     1       7.728  22.633  53.335  1.00  0.00     0.072 A 
HETATM   22  C   UNL     1       6.854  26.054  54.344  1.00  0.00     0.027 A 
HETATM   23  C   UNL     1       7.604  24.135  55.676  1.00  0.00     0.053 A 
HETATM   24  C   UNL     1       8.024  22.809  55.727  1.00  0.00     0.103 A 
HETATM   25  C   UNL     1       8.115  22.068  54.549  1.00  0.00     0.104 A 
HETATM   26  O   UNL     1       8.346  22.310  56.960  1.00  0.00    -0.346 OA
HETATM   27  O   UNL     1       8.573  20.776  54.512  1.00  0.00    -0.346 OA
HETATM   28  C   UNL     1       9.265  20.433  55.720  1.00  0.00     0.202 C 
HETATM   29  C   UNL     1       8.466  20.881  56.933  1.00  0.00     0.202 C 
BRANCH  17  30
HETATM   30  O   UNL     1       6.222  26.153  50.765  1.00  0.00    -0.344 OA
HETATM   31  H   UNL     1       6.870  25.738  50.180  1.00  0.00     0.219 HD
ENDBRANCH  17  30
ENDBRANCH  15  16
ENDBRANCH   1  15
BRANCH   3  32
HETATM   32  C   UNL     1       3.990  28.851  49.699  1.00  0.00     0.036 A 
HETATM   33  C   UNL     1       2.923  28.224  49.050  1.00  0.00     0.032 A 
HETATM   34  C   UNL     1       2.503  28.677  47.795  1.00  0.00     0.044 A 
HETATM   35  C   UNL     1       3.145  29.756  47.199  1.00  0.00     0.116 A 
HETATM   36  F   UNL     1       2.737  30.187  45.999  1.00  0.00    -0.206 F 
HETATM   37  C   UNL     1       4.200  30.395  47.833  1.00  0.00     0.044 A 
HETATM   38  C   UNL     1       4.621  29.945  49.086  1.00  0.00     0.032 A 
ENDBRANCH   3  32
TORSDOF 10
ENDMDL
MODEL 10
REMARK VINA RESULT:      -8.5      3.544      8.860
REMARK  10 active torsions:
REMARK  status: ('A' for Active; 'I' for Inactive)
REMARK    1  A    between atoms: C_2  and  N_3 
REMARK    2  A    between atoms: N_3  and  C_5 
REMARK    3  A    between atoms: N_3  and  C_35 
REMARK    4  A    between atoms: C_5  and  C_6 
REMARK    5  A    between atoms: C_6  and  C_7 
REMARK    6  A    between atoms: C_7  and  N_8 
REMARK       I    between atoms: N_8  and  C_9 
REMARK    7  A    between atoms: N_8  and  C_19 
REMARK       I    between atoms: C_9  and  N_10 
REMARK    8  A    between atoms: N_10  and  C_11 
REMARK    9  A    between atoms: C_19  and  C_20 
REMARK   10  A    between atoms: C_21  and  O_22 
ROOT
HETATM    1  N   UNL     1       5.178  28.429  54.980  1.00  0.00    -0.330 N 
HETATM    2  C   UNL     1       4.651  28.532  53.673  1.00  0.00     0.323 C 
HETATM    3  N   UNL     1       5.525  28.116  52.692  1.00  0.00    -0.309 N 
HETATM    4  O   UNL     1       3.481  28.847  53.462  1.00  0.00    -0.247 OA
HETATM    5  H   UNL     1       6.235  27.451  52.972  1.00  0.00     0.170 HD
ENDROOT
BRANCH   1   6
HETATM    6  C   UNL     1       4.387  28.765  56.184  1.00  0.00     0.129 C 
BRANCH   6   7
HETATM    7  C   UNL     1       5.090  29.299  57.435  1.00  0.00     0.048 C 
BRANCH   7   8
HETATM    8  C   UNL     1       5.153  30.823  57.504  1.00  0.00     0.236 C 
BRANCH   8   9
HETATM    9  N   UNL     1       5.034  31.303  58.941  1.00  0.00    -0.072 N 
HETATM   10  H   UNL     1       5.128  30.432  59.496  1.00  0.00     0.279 HD
BRANCH   9  11
HETATM   11  C   UNL     1       3.689  31.890  59.323  1.00  0.00     0.230 C 
HETATM   12  C   UNL     1       3.568  32.145  60.816  1.00  0.00     0.034 C 
ENDBRANCH   9  11
BRANCH   9  13
HETATM   13  C   UNL     1       6.189  32.192  59.365  1.00  0.00     0.230 C 
HETATM   14  C   UNL     1       7.523  31.532  59.067  1.00  0.00     0.034 C 
ENDBRANCH   9  13
ENDBRANCH   8   9
ENDBRANCH   7   8
ENDBRANCH   6   7
ENDBRANCH   1   6
BRANCH   1  15
HETATM   15  C   UNL     1       6.643  28.470  55.204  1.00  0.00     0.170 C 
BRANCH  15  16
HETATM   16  C   UNL     1       7.291  27.179  55.638  1.00  0.00     0.013 A 
HETATM   17  C   UNL     1       7.889  26.946  56.868  1.00  0.00     0.170 A 
HETATM   18  N   UNL     1       8.306  25.750  57.312  1.00  0.00    -0.224 NA
HETATM   19  C   UNL     1       8.156  24.684  56.512  1.00  0.00     0.072 A 
HETATM   20  C   UNL     1       7.600  24.793  55.223  1.00  0.00    -0.004 A 
HETATM   21  C   UNL     1       8.541  23.429  56.965  1.00  0.00     0.072 A 
HETATM   22  C   UNL     1       7.165  26.059  54.802  1.00  0.00     0.027 A 
HETATM   23  C   UNL     1       7.474  23.658  54.405  1.00  0.00     0.053 A 
HETATM   24  C   UNL     1       7.882  22.413  54.874  1.00  0.00     0.103 A 
HETATM   25  C   UNL     1       8.388  22.295  56.168  1.00  0.00     0.104 A 
HETATM   26  O   UNL     1       7.743  21.353  54.019  1.00  0.00    -0.346 OA
HETATM   27  O   UNL     1       8.758  21.096  56.721  1.00  0.00    -0.346 OA
HETATM   28  C   UNL     1       8.232  19.992  55.973  1.00  0.00     0.202 C 
HETATM   29  C   UNL     1       8.463  20.203  54.485  1.00  0.00     0.202 C 
BRANCH  17  30
HETATM   30  O   UNL     1       8.097  27.948  57.765  1.00  0.00    -0.344 OA
HETATM   31  H   UNL     1       7.802  27.597  58.617  1.00  0.00     0.219 HD
ENDBRANCH  17  30
ENDBRANCH  15  16
ENDBRANCH   1  15
BRANCH   3  32
HETATM   32  C   UNL     1       5.386  28.254  51.296  1.00  0.00     0.036 A 
HETATM   33  C   UNL     1       5.644  29.441  50.605  1.00  0.00     0.032 A 
HETATM   34  C   UNL     1       5.515  29.484  49.214  1.00  0.00     0.044 A 
HETATM   35  C   UNL     1       5.138  28.341  48.519  1.00  0.00     0.116 A 
HETATM   36  F   UNL     1       5.020  28.386  47.186  1.00  0.00    -0.206 F 
HETATM   37  C   UNL     1       4.889  27.151  49.188  1.00  0.00     0.044 A 
HETATM   38  C   UNL     1       5.016  27.107  50.577  1.00  0.00     0.032 A 
ENDBRANCH   3  32
TORSDOF 10
ENDMDL
