MODEL 1
REMARK VINA RESULT:      -9.6      0.000      0.000
REMARK  2 active torsions:
REMARK  status: ('A' for Active; 'I' for Inactive)
REMARK    1  A    between atoms: C_9  and  C_10 
REMARK       I    between atoms: C_10  and  N_11 
REMARK    2  A    between atoms: N_11  and  C_12 
ROOT
HETATM    1  C   UNL     1       5.733  25.321  54.708  1.00  0.00     0.267 C 
HETATM    2  N   UNL     1       4.781  25.668  53.793  1.00  0.00    -0.156 N 
HETATM    3  O   UNL     1       5.314  24.825  55.759  1.00  0.00    -0.270 OA
HETATM    4  H   UNL     1       3.836  25.467  54.108  1.00  0.00     0.187 HD
ENDROOT
BRANCH   1   5
HETATM    5  C   UNL     1       7.256  25.461  54.446  1.00  0.00     0.282 C 
HETATM    6  N   UNL     1       8.164  25.225  55.630  1.00  0.00    -0.058 N 
HETATM    7  C   UNL     1       8.034  23.876  56.225  1.00  0.00     0.272 C 
HETATM    8  H   UNL     1       9.138  25.396  55.363  1.00  0.00     0.278 HD
HETATM    9  H   UNL     1       7.930  25.944  56.342  1.00  0.00     0.278 HD
HETATM   10  C   UNL     1       8.046  22.787  55.195  1.00  0.00    -0.026 A 
HETATM   11  C   UNL     1       7.867  23.072  53.824  1.00  0.00    -0.048 A 
HETATM   12  C   UNL     1       8.176  21.455  55.614  1.00  0.00     0.009 A 
HETATM   13  C   UNL     1       7.853  22.020  52.899  1.00  0.00     0.008 A 
HETATM   14  C   UNL     1       7.725  24.500  53.335  1.00  0.00     0.082 C 
HETATM   15  C   UNL     1       7.986  20.700  53.330  1.00  0.00     0.001 A 
HETATM   16  C   UNL     1       8.146  20.417  54.684  1.00  0.00     0.001 A 
ENDBRANCH   1   5
BRANCH   2  17
HETATM   17  C   UNL     1       4.961  26.262  52.578  1.00  0.00     0.708 A 
HETATM   18  N   UNL     1       5.356  27.492  52.330  1.00  0.00    -0.062 NA
HETATM   19  C   UNL     1       5.284  27.632  50.958  1.00  0.00     0.103 A 
HETATM   20  C   UNL     1       4.825  26.462  50.369  1.00  0.00     0.078 A 
HETATM   21  C   UNL     1       5.569  28.743  50.152  1.00  0.00     0.034 A 
HETATM   22  N   UNL     1       4.665  25.592  51.416  1.00  0.00    -0.188 N 
HETATM   23  C   UNL     1       4.611  26.325  48.997  1.00  0.00     0.032 A 
HETATM   24  H   UNL     1       4.342  24.638  51.340  1.00  0.00     0.184 HD
HETATM   25  C   UNL     1       4.887  27.446  48.208  1.00  0.00     0.002 A 
HETATM   26  C   UNL     1       5.362  28.633  48.771  1.00  0.00     0.002 A 
ENDBRANCH   2  17
TORSDOF 2
ENDMDL
MODEL 2
REMARK VINA RESULT:      -9.3      3.026      4.275
REMARK  2 active torsions:
REMARK  status: ('A' for Active; 'I' for Inactive)
REMARK    1  A    between atoms: C_9  and  C_10 
REMARK       I    between atoms: C_10  and  N_11 
REMARK    2  A    between atoms: N_11  and  C_12 
ROOT
HETATM    1  C   UNL     1       5.538  25.407  53.441  1.00  0.00     0.267 C 
HETATM    2  N   UNL     1       4.664  26.315  53.965  1.00  0.00    -0.156 N 
HETATM    3  O   UNL     1       5.031  24.473  52.813  1.00  0.00    -0.270 OA
HETATM    4  H   UNL     1       3.694  26.095  53.762  1.00  0.00     0.187 HD
ENDROOT
BRANCH   1   5
HETATM    5  C   UNL     1       7.080  25.549  53.550  1.00  0.00     0.282 C 
HETATM    6  N   UNL     1       7.654  25.554  54.948  1.00  0.00    -0.058 N 
HETATM    7  C   UNL     1       7.359  24.327  55.721  1.00  0.00     0.272 C 
HETATM    8  H   UNL     1       8.666  25.706  54.908  1.00  0.00     0.278 HD
HETATM    9  H   UNL     1       7.257  26.378  55.438  1.00  0.00     0.278 HD
HETATM   10  C   UNL     1       7.618  23.075  54.938  1.00  0.00    -0.026 A 
HETATM   11  C   UNL     1       7.796  23.108  53.538  1.00  0.00    -0.048 A 
HETATM   12  C   UNL     1       7.620  21.842  55.606  1.00  0.00     0.009 A 
HETATM   13  C   UNL     1       8.003  21.911  52.842  1.00  0.00     0.008 A 
HETATM   14  C   UNL     1       7.802  24.424  52.783  1.00  0.00     0.082 C 
HETATM   15  C   UNL     1       8.005  20.692  53.521  1.00  0.00     0.001 A 
HETATM   16  C   UNL     1       7.813  20.656  54.899  1.00  0.00     0.001 A 
ENDBRANCH   1   5
BRANCH   2  17
HETATM   17  C   UNL     1       4.948  27.411  54.727  1.00  0.00     0.708 A 
HETATM   18  N   UNL     1       5.438  27.442  55.947  1.00  0.00    -0.062 NA
HETATM   19  C   UNL     1       5.448  28.776  56.305  1.00  0.00     0.103 A 
HETATM   20  C   UNL     1       4.942  29.563  55.279  1.00  0.00     0.078 A 
HETATM   21  C   UNL     1       5.850  29.383  57.503  1.00  0.00     0.034 A 
HETATM   22  N   UNL     1       4.668  28.676  54.271  1.00  0.00    -0.188 N 
HETATM   23  C   UNL     1       4.791  30.947  55.375  1.00  0.00     0.032 A 
HETATM   24  H   UNL     1       4.286  28.918  53.368  1.00  0.00     0.184 HD
HETATM   25  C   UNL     1       5.184  31.535  56.582  1.00  0.00     0.002 A 
HETATM   26  C   UNL     1       5.708  30.770  57.627  1.00  0.00     0.002 A 
ENDBRANCH   2  17
TORSDOF 2
ENDMDL
MODEL 3
REMARK VINA RESULT:      -9.2      1.951      3.292
REMARK  2 active torsions:
REMARK  status: ('A' for Active; 'I' for Inactive)
REMARK    1  A    between atoms: C_9  and  C_10 
REMARK       I    between atoms: C_10  and  N_11 
REMARK    2  A    between atoms: N_11  and  C_12 
ROOT
HETATM    1  C   UNL     1       6.011  27.800  52.849  1.00  0.00     0.267 C 
HETATM    2  N   UNL     1       5.936  28.342  51.599  1.00  0.00    -0.156 N 
HETATM    3  O   UNL     1       6.959  28.179  53.544  1.00  0.00    -0.270 OA
HETATM    4  H   UNL     1       6.685  29.000  51.406  1.00  0.00     0.187 HD
ENDROOT
BRANCH   1   5
HETATM    5  C   UNL     1       4.950  26.820  53.417  1.00  0.00     0.282 C 
HETATM    6  N   UNL     1       4.511  25.703  52.498  1.00  0.00    -0.058 N 
HETATM    7  C   UNL     1       5.612  24.816  52.065  1.00  0.00     0.272 C 
HETATM    8  H   UNL     1       3.774  25.152  52.947  1.00  0.00     0.278 HD
HETATM    9  H   UNL     1       4.073  26.146  51.667  1.00  0.00     0.278 HD
HETATM   10  C   UNL     1       6.490  24.387  53.203  1.00  0.00    -0.026 A 
HETATM   11  C   UNL     1       6.439  25.037  54.454  1.00  0.00    -0.048 A 
HETATM   12  C   UNL     1       7.421  23.359  52.994  1.00  0.00     0.009 A 
HETATM   13  C   UNL     1       7.300  24.625  55.479  1.00  0.00     0.008 A 
HETATM   14  C   UNL     1       5.443  26.151  54.716  1.00  0.00     0.082 C 
HETATM   15  C   UNL     1       8.219  23.600  55.258  1.00  0.00     0.001 A 
HETATM   16  C   UNL     1       8.282  22.968  54.019  1.00  0.00     0.001 A 
ENDBRANCH   1   5
BRANCH   2  17
HETATM   17  C   UNL     1       5.022  28.075  50.621  1.00  0.00     0.708 A 
HETATM   18  N   UNL     1       3.758  28.436  50.577  1.00  0.00    -0.062 NA
HETATM   19  C   UNL     1       3.246  27.841  49.440  1.00  0.00     0.103 A 
HETATM   20  C   UNL     1       4.223  27.096  48.794  1.00  0.00     0.078 A 
HETATM   21  C   UNL     1       1.946  27.871  48.917  1.00  0.00     0.034 A 
HETATM   22  N   UNL     1       5.354  27.293  49.542  1.00  0.00    -0.188 N 
HETATM   23  C   UNL     1       3.982  26.348  47.641  1.00  0.00     0.032 A 
HETATM   24  H   UNL     1       6.261  26.892  49.348  1.00  0.00     0.184 HD
HETATM   25  C   UNL     1       2.677  26.378  47.139  1.00  0.00     0.002 A 
HETATM   26  C   UNL     1       1.676  27.129  47.762  1.00  0.00     0.002 A 
ENDBRANCH   2  17
TORSDOF 2
ENDMDL
MODEL 4
REMARK VINA RESULT:      -9.1      1.659      6.974
REMARK  2 active torsions:
REMARK  status: ('A' for Active; 'I' for Inactive)
REMARK    1  A    between atoms: C_9  and  C_10 
REMARK       I    between atoms: C_10  and  N_11 
REMARK    2  A    between atoms: N_11  and  C_12 
ROOT
HETATM    1  C   UNL     1       6.519  26.964  53.116  1.00  0.00     0.267 C 
HETATM    2  N   UNL     1       7.666  26.275  53.381  1.00  0.00    -0.156 N 
HETATM    3  O   UNL     1       6.637  28.189  53.016  1.00  0.00    -0.270 OA
HETATM    4  H   UNL     1       8.481  26.877  53.460  1.00  0.00     0.187 HD
ENDROOT
BRANCH   1   5
HETATM    5  C   UNL     1       5.147  26.275  52.881  1.00  0.00     0.282 C 
HETATM    6  N   UNL     1       3.921  27.113  53.157  1.00  0.00    -0.058 N 
HETATM    7  C   UNL     1       3.840  28.344  52.339  1.00  0.00     0.272 C 
HETATM    8  H   UNL     1       3.076  26.550  53.024  1.00  0.00     0.278 HD
HETATM    9  H   UNL     1       3.944  27.366  54.164  1.00  0.00     0.278 HD
HETATM   10  C   UNL     1       4.117  28.091  50.888  1.00  0.00    -0.026 A 
HETATM   11  C   UNL     1       4.705  26.885  50.452  1.00  0.00    -0.048 A 
HETATM   12  C   UNL     1       3.840  29.103  49.955  1.00  0.00     0.009 A 
HETATM   13  C   UNL     1       4.976  26.704  49.089  1.00  0.00     0.008 A 
HETATM   14  C   UNL     1       5.015  25.769  51.431  1.00  0.00     0.082 C 
HETATM   15  C   UNL     1       4.693  27.718  48.174  1.00  0.00     0.001 A 
HETATM   16  C   UNL     1       4.128  28.915  48.604  1.00  0.00     0.001 A 
ENDBRANCH   1   5
BRANCH   2  17
HETATM   17  C   UNL     1       7.814  24.932  53.575  1.00  0.00     0.708 A 
HETATM   18  N   UNL     1       7.973  23.997  52.665  1.00  0.00    -0.062 NA
HETATM   19  C   UNL     1       7.977  22.804  53.360  1.00  0.00     0.103 A 
HETATM   20  C   UNL     1       7.805  23.028  54.720  1.00  0.00     0.078 A 
HETATM   21  C   UNL     1       8.094  21.489  52.889  1.00  0.00     0.034 A 
HETATM   22  N   UNL     1       7.744  24.392  54.836  1.00  0.00    -0.188 N 
HETATM   23  C   UNL     1       7.725  22.003  55.663  1.00  0.00     0.032 A 
HETATM   24  H   UNL     1       7.625  24.900  55.701  1.00  0.00     0.184 HD
HETATM   25  C   UNL     1       7.830  20.696  55.175  1.00  0.00     0.002 A 
HETATM   26  C   UNL     1       8.015  20.441  53.814  1.00  0.00     0.002 A 
ENDBRANCH   2  17
TORSDOF 2
ENDMDL
MODEL 5
REMARK VINA RESULT:      -9.0      2.972      6.920
REMARK  2 active torsions:
REMARK  status: ('A' for Active; 'I' for Inactive)
REMARK    1  A    between atoms: C_9  and  C_10 
REMARK       I    between atoms: C_10  and  N_11 
REMARK    2  A    between atoms: N_11  and  C_12 
ROOT
HETATM    1  C   UNL     1       6.640  27.059  53.520  1.00  0.00     0.267 C 
HETATM    2  N   UNL     1       7.681  26.177  53.479  1.00  0.00    -0.156 N 
HETATM    3  O   UNL     1       6.909  28.224  53.212  1.00  0.00    -0.270 OA
HETATM    4  H   UNL     1       8.555  26.609  53.194  1.00  0.00     0.187 HD
ENDROOT
BRANCH   1   5
HETATM    5  C   UNL     1       5.184  26.641  53.859  1.00  0.00     0.282 C 
HETATM    6  N   UNL     1       4.962  26.038  55.227  1.00  0.00    -0.058 N 
HETATM    7  C   UNL     1       5.341  26.930  56.344  1.00  0.00     0.272 C 
HETATM    8  H   UNL     1       3.985  25.749  55.326  1.00  0.00     0.278 HD
HETATM    9  H   UNL     1       5.525  25.167  55.271  1.00  0.00     0.278 HD
HETATM   10  C   UNL     1       4.809  28.322  56.176  1.00  0.00    -0.026 A 
HETATM   11  C   UNL     1       4.304  28.771  54.938  1.00  0.00    -0.048 A 
HETATM   12  C   UNL     1       4.875  29.212  57.259  1.00  0.00     0.009 A 
HETATM   13  C   UNL     1       3.848  30.090  54.817  1.00  0.00     0.008 A 
HETATM   14  C   UNL     1       4.216  27.837  53.745  1.00  0.00     0.082 C 
HETATM   15  C   UNL     1       3.918  30.962  55.903  1.00  0.00     0.001 A 
HETATM   16  C   UNL     1       4.430  30.526  57.122  1.00  0.00     0.001 A 
ENDBRANCH   1   5
BRANCH   2  17
HETATM   17  C   UNL     1       7.672  24.852  53.802  1.00  0.00     0.708 A 
HETATM   18  N   UNL     1       7.627  24.313  55.001  1.00  0.00    -0.062 NA
HETATM   19  C   UNL     1       7.737  22.951  54.796  1.00  0.00     0.103 A 
HETATM   20  C   UNL     1       7.862  22.667  53.443  1.00  0.00     0.078 A 
HETATM   21  C   UNL     1       7.767  21.902  55.726  1.00  0.00     0.034 A 
HETATM   22  N   UNL     1       7.777  23.889  52.829  1.00  0.00    -0.188 N 
HETATM   23  C   UNL     1       8.034  21.377  52.942  1.00  0.00     0.032 A 
HETATM   24  H   UNL     1       7.828  24.047  51.832  1.00  0.00     0.184 HD
HETATM   25  C   UNL     1       8.075  20.342  53.882  1.00  0.00     0.002 A 
HETATM   26  C   UNL     1       7.940  20.597  55.249  1.00  0.00     0.002 A 
ENDBRANCH   2  17
TORSDOF 2
ENDMDL
MODEL 6
REMARK VINA RESULT:      -8.9      4.333      6.364
REMARK  2 active torsions:
REMARK  status: ('A' for Active; 'I' for Inactive)
REMARK    1  A    between atoms: C_9  and  C_10 
REMARK       I    between atoms: C_10  and  N_11 
REMARK    2  A    between atoms: N_11  and  C_12 
ROOT
HETATM    1  C   UNL     1       7.308  27.427  54.438  1.00  0.00     0.267 C 
HETATM    2  N   UNL     1       7.924  28.586  54.811  1.00  0.00    -0.156 N 
HETATM    3  O   UNL     1       7.499  27.066  53.272  1.00  0.00    -0.270 OA
HETATM    4  H   UNL     1       8.470  29.003  54.063  1.00  0.00     0.187 HD
ENDROOT
BRANCH   1   5
HETATM    5  C   UNL     1       6.469  26.558  55.412  1.00  0.00     0.282 C 
HETATM    6  N   UNL     1       5.339  25.763  54.798  1.00  0.00    -0.058 N 
HETATM    7  C   UNL     1       5.777  24.804  53.760  1.00  0.00     0.272 C 
HETATM    8  H   UNL     1       4.820  25.272  55.531  1.00  0.00     0.278 HD
HETATM    9  H   UNL     1       4.676  26.446  54.383  1.00  0.00     0.278 HD
HETATM   10  C   UNL     1       6.960  23.989  54.190  1.00  0.00    -0.026 A 
HETATM   11  C   UNL     1       7.734  24.353  55.312  1.00  0.00    -0.048 A 
HETATM   12  C   UNL     1       7.336  22.877  53.421  1.00  0.00     0.009 A 
HETATM   13  C   UNL     1       8.850  23.581  55.659  1.00  0.00     0.008 A 
HETATM   14  C   UNL     1       7.355  25.547  56.167  1.00  0.00     0.082 C 
HETATM   15  C   UNL     1       9.211  22.477  54.886  1.00  0.00     0.001 A 
HETATM   16  C   UNL     1       8.458  22.125  53.769  1.00  0.00     0.001 A 
ENDBRANCH   1   5
BRANCH   2  17
HETATM   17  C   UNL     1       7.853  29.225  56.015  1.00  0.00     0.708 A 
HETATM   18  N   UNL     1       6.839  29.898  56.513  1.00  0.00    -0.062 NA
HETATM   19  C   UNL     1       7.299  30.428  57.703  1.00  0.00     0.103 A 
HETATM   20  C   UNL     1       8.625  30.074  57.917  1.00  0.00     0.078 A 
HETATM   21  C   UNL     1       6.646  31.246  58.635  1.00  0.00     0.034 A 
HETATM   22  N   UNL     1       8.942  29.276  56.850  1.00  0.00    -0.188 N 
HETATM   23  C   UNL     1       9.366  30.504  59.019  1.00  0.00     0.032 A 
HETATM   24  H   UNL     1       9.840  28.840  56.692  1.00  0.00     0.184 HD
HETATM   25  C   UNL     1       8.704  31.330  59.933  1.00  0.00     0.002 A 
HETATM   26  C   UNL     1       7.367  31.693  59.749  1.00  0.00     0.002 A 
ENDBRANCH   2  17
TORSDOF 2
ENDMDL
MODEL 7
REMARK VINA RESULT:      -8.9      1.955      2.952
REMARK  2 active torsions:
REMARK  status: ('A' for Active; 'I' for Inactive)
REMARK    1  A    between atoms: C_9  and  C_10 
REMARK       I    between atoms: C_10  and  N_11 
REMARK    2  A    between atoms: N_11  and  C_12 
ROOT
HETATM    1  C   UNL     1       6.509  27.624  53.971  1.00  0.00     0.267 C 
HETATM    2  N   UNL     1       6.359  28.487  52.924  1.00  0.00    -0.156 N 
HETATM    3  O   UNL     1       7.569  27.718  54.598  1.00  0.00    -0.270 OA
HETATM    4  H   UNL     1       7.157  29.103  52.800  1.00  0.00     0.187 HD
ENDROOT
BRANCH   1   5
HETATM    5  C   UNL     1       5.408  26.625  54.415  1.00  0.00     0.282 C 
HETATM    6  N   UNL     1       4.769  25.803  53.320  1.00  0.00    -0.058 N 
HETATM    7  C   UNL     1       5.725  24.960  52.568  1.00  0.00     0.272 C 
HETATM    8  H   UNL     1       4.023  25.220  53.711  1.00  0.00     0.278 HD
HETATM    9  H   UNL     1       4.305  26.467  52.670  1.00  0.00     0.278 HD
HETATM   10  C   UNL     1       6.654  24.200  53.466  1.00  0.00    -0.026 A 
HETATM   11  C   UNL     1       6.790  24.530  54.831  1.00  0.00    -0.048 A 
HETATM   12  C   UNL     1       7.449  23.181  52.919  1.00  0.00     0.009 A 
HETATM   13  C   UNL     1       7.694  23.814  55.626  1.00  0.00     0.008 A 
HETATM   14  C   UNL     1       5.946  25.624  55.457  1.00  0.00     0.082 C 
HETATM   15  C   UNL     1       8.475  22.802  55.069  1.00  0.00     0.001 A 
HETATM   16  C   UNL     1       8.355  22.485  53.719  1.00  0.00     0.001 A 
ENDBRANCH   1   5
BRANCH   2  17
HETATM   17  C   UNL     1       5.315  28.573  52.050  1.00  0.00     0.708 A 
HETATM   18  N   UNL     1       4.107  29.042  52.279  1.00  0.00    -0.062 NA
HETATM   19  C   UNL     1       3.400  28.821  51.113  1.00  0.00     0.103 A 
HETATM   20  C   UNL     1       4.200  28.195  50.166  1.00  0.00     0.078 A 
HETATM   21  C   UNL     1       2.062  29.105  50.805  1.00  0.00     0.034 A 
HETATM   22  N   UNL     1       5.424  28.084  50.772  1.00  0.00    -0.188 N 
HETATM   23  C   UNL     1       3.739  27.808  48.907  1.00  0.00     0.032 A 
HETATM   24  H   UNL     1       6.247  27.672  50.355  1.00  0.00     0.184 HD
HETATM   25  C   UNL     1       2.399  28.087  48.620  1.00  0.00     0.002 A 
HETATM   26  C   UNL     1       1.574  28.727  49.549  1.00  0.00     0.002 A 
ENDBRANCH   2  17
TORSDOF 2
ENDMDL
MODEL 8
REMARK VINA RESULT:      -8.8      1.816      7.168
REMARK  2 active torsions:
REMARK  status: ('A' for Active; 'I' for Inactive)
REMARK    1  A    between atoms: C_9  and  C_10 
REMARK       I    between atoms: C_10  and  N_11 
REMARK    2  A    between atoms: N_11  and  C_12 
ROOT
HETATM    1  C   UNL     1       4.556  27.231  52.994  1.00  0.00     0.267 C 
HETATM    2  N   UNL     1       4.718  26.165  53.830  1.00  0.00    -0.156 N 
HETATM    3  O   UNL     1       3.516  27.880  53.146  1.00  0.00    -0.270 OA
HETATM    4  H   UNL     1       3.947  26.048  54.480  1.00  0.00     0.187 HD
ENDROOT
BRANCH   1   5
HETATM    5  C   UNL     1       5.622  27.667  51.954  1.00  0.00     0.282 C 
HETATM    6  N   UNL     1       5.954  26.663  50.874  1.00  0.00    -0.058 N 
HETATM    7  C   UNL     1       4.794  26.270  50.044  1.00  0.00     0.272 C 
HETATM    8  H   UNL     1       6.703  27.027  50.278  1.00  0.00     0.278 HD
HETATM    9  H   UNL     1       6.344  25.825  51.347  1.00  0.00     0.278 HD
HETATM   10  C   UNL     1       3.990  27.448  49.583  1.00  0.00    -0.026 A 
HETATM   11  C   UNL     1       4.155  28.723  50.164  1.00  0.00    -0.048 A 
HETATM   12  C   UNL     1       3.011  27.260  48.595  1.00  0.00     0.009 A 
HETATM   13  C   UNL     1       3.359  29.789  49.725  1.00  0.00     0.008 A 
HETATM   14  C   UNL     1       5.204  28.964  51.233  1.00  0.00     0.082 C 
HETATM   15  C   UNL     1       2.391  29.587  48.741  1.00  0.00     0.001 A 
HETATM   16  C   UNL     1       2.216  28.326  48.177  1.00  0.00     0.001 A 
ENDBRANCH   1   5
BRANCH   2  17
HETATM   17  C   UNL     1       5.745  25.265  53.855  1.00  0.00     0.708 A 
HETATM   18  N   UNL     1       6.013  24.322  52.978  1.00  0.00    -0.062 NA
HETATM   19  C   UNL     1       7.086  23.628  53.503  1.00  0.00     0.103 A 
HETATM   20  C   UNL     1       7.462  24.160  54.729  1.00  0.00     0.078 A 
HETATM   21  C   UNL     1       7.769  22.513  52.997  1.00  0.00     0.034 A 
HETATM   22  N   UNL     1       6.620  25.225  54.912  1.00  0.00    -0.188 N 
HETATM   23  C   UNL     1       8.490  23.633  55.512  1.00  0.00     0.032 A 
HETATM   24  H   UNL     1       6.624  25.842  55.712  1.00  0.00     0.184 HD
HETATM   25  C   UNL     1       9.153  22.513  55.000  1.00  0.00     0.002 A 
HETATM   26  C   UNL     1       8.804  21.963  53.763  1.00  0.00     0.002 A 
ENDBRANCH   2  17
TORSDOF 2
ENDMDL
MODEL 9
REMARK VINA RESULT:      -8.7      1.658      2.288
REMARK  2 active torsions:
REMARK  status: ('A' for Active; 'I' for Inactive)
REMARK    1  A    between atoms: C_9  and  C_10 
REMARK       I    between atoms: C_10  and  N_11 
REMARK    2  A    between atoms: N_11  and  C_12 
ROOT
HETATM    1  C   UNL     1       5.367  25.524  52.210  1.00  0.00     0.267 C 
HETATM    2  N   UNL     1       4.508  26.348  51.544  1.00  0.00    -0.156 N 
HETATM    3  O   UNL     1       4.860  24.531  52.739  1.00  0.00    -0.270 OA
HETATM    4  H   UNL     1       3.546  26.024  51.572  1.00  0.00     0.187 HD
ENDROOT
BRANCH   1   5
HETATM    5  C   UNL     1       6.902  25.756  52.261  1.00  0.00     0.282 C 
HETATM    6  N   UNL     1       7.449  26.342  53.541  1.00  0.00    -0.058 N 
HETATM    7  C   UNL     1       7.179  25.518  54.740  1.00  0.00     0.272 C 
HETATM    8  H   UNL     1       8.456  26.504  53.449  1.00  0.00     0.278 HD
HETATM    9  H   UNL     1       7.015  27.278  53.658  1.00  0.00     0.278 HD
HETATM   10  C   UNL     1       7.494  24.067  54.526  1.00  0.00    -0.026 A 
HETATM   11  C   UNL     1       7.698  23.544  53.232  1.00  0.00    -0.048 A 
HETATM   12  C   UNL     1       7.523  23.206  55.633  1.00  0.00     0.009 A 
HETATM   13  C   UNL     1       7.957  22.176  53.075  1.00  0.00     0.008 A 
HETATM   14  C   UNL     1       7.675  24.446  52.012  1.00  0.00     0.082 C 
HETATM   15  C   UNL     1       7.986  21.333  54.185  1.00  0.00     0.001 A 
HETATM   16  C   UNL     1       7.769  21.844  55.461  1.00  0.00     0.001 A 
ENDBRANCH   1   5
BRANCH   2  17
HETATM   17  C   UNL     1       4.792  27.521  50.907  1.00  0.00     0.708 A 
HETATM   18  N   UNL     1       5.257  28.634  51.433  1.00  0.00    -0.062 NA
HETATM   19  C   UNL     1       5.281  29.548  50.398  1.00  0.00     0.103 A 
HETATM   20  C   UNL     1       4.807  28.973  49.226  1.00  0.00     0.078 A 
HETATM   21  C   UNL     1       5.667  30.895  50.397  1.00  0.00     0.034 A 
HETATM   22  N   UNL     1       4.541  27.673  49.566  1.00  0.00    -0.188 N 
HETATM   23  C   UNL     1       4.676  29.673  48.026  1.00  0.00     0.032 A 
HETATM   24  H   UNL     1       4.181  26.967  48.939  1.00  0.00     0.184 HD
HETATM   25  C   UNL     1       5.053  31.020  48.045  1.00  0.00     0.002 A 
HETATM   26  C   UNL     1       5.543  31.622  49.207  1.00  0.00     0.002 A 
ENDBRANCH   2  17
TORSDOF 2
ENDMDL
MODEL 10
REMARK VINA RESULT:      -8.6      4.607      6.091
REMARK  2 active torsions:
REMARK  status: ('A' for Active; 'I' for Inactive)
REMARK    1  A    between atoms: C_9  and  C_10 
REMARK       I    between atoms: C_10  and  N_11 
REMARK    2  A    between atoms: N_11  and  C_12 
ROOT
HETATM    1  C   UNL     1       7.709  26.878  57.288  1.00  0.00     0.267 C 
HETATM    2  N   UNL     1       7.991  28.176  57.597  1.00  0.00    -0.156 N 
HETATM    3  O   UNL     1       8.641  26.078  57.418  1.00  0.00    -0.270 OA
HETATM    4  H   UNL     1       8.951  28.312  57.900  1.00  0.00     0.187 HD
ENDROOT
BRANCH   1   5
HETATM    5  C   UNL     1       6.297  26.391  56.863  1.00  0.00     0.282 C 
HETATM    6  N   UNL     1       5.763  26.942  55.561  1.00  0.00    -0.058 N 
HETATM    7  C   UNL     1       6.609  26.632  54.387  1.00  0.00     0.272 C 
HETATM    8  H   UNL     1       4.810  26.603  55.404  1.00  0.00     0.278 HD
HETATM    9  H   UNL     1       5.688  27.972  55.673  1.00  0.00     0.278 HD
HETATM   10  C   UNL     1       7.023  25.192  54.339  1.00  0.00    -0.026 A 
HETATM   11  C   UNL     1       6.885  24.350  55.463  1.00  0.00    -0.048 A 
HETATM   12  C   UNL     1       7.617  24.692  53.170  1.00  0.00     0.009 A 
HETATM   13  C   UNL     1       7.315  23.019  55.384  1.00  0.00     0.008 A 
HETATM   14  C   UNL     1       6.246  24.855  56.743  1.00  0.00     0.082 C 
HETATM   15  C   UNL     1       7.902  22.537  54.215  1.00  0.00     0.001 A 
HETATM   16  C   UNL     1       8.054  23.370  53.110  1.00  0.00     0.001 A 
ENDBRANCH   1   5
BRANCH   2  17
HETATM   17  C   UNL     1       7.166  29.260  57.508  1.00  0.00     0.708 A 
HETATM   18  N   UNL     1       6.517  29.697  56.450  1.00  0.00    -0.062 NA
HETATM   19  C   UNL     1       5.905  30.867  56.853  1.00  0.00     0.103 A 
HETATM   20  C   UNL     1       6.203  31.145  58.180  1.00  0.00     0.078 A 
HETATM   21  C   UNL     1       5.104  31.759  56.126  1.00  0.00     0.034 A 
HETATM   22  N   UNL     1       6.973  30.088  58.586  1.00  0.00    -0.188 N 
HETATM   23  C   UNL     1       5.756  32.289  58.844  1.00  0.00     0.032 A 
HETATM   24  H   UNL     1       7.363  29.969  59.511  1.00  0.00     0.184 HD
HETATM   25  C   UNL     1       4.969  33.175  58.101  1.00  0.00     0.002 A 
HETATM   26  C   UNL     1       4.644  32.915  56.767  1.00  0.00     0.002 A 
ENDBRANCH   2  17
TORSDOF 2
ENDMDL
