MODEL 1
REMARK VINA RESULT:      -9.1      0.000      0.000
REMARK  5 active torsions:
REMARK  status: ('A' for Active; 'I' for Inactive)
REMARK    1  A    between atoms: C_3  and  O_4 
REMARK    2  A    between atoms: O_4  and  C_5 
REMARK    3  A    between atoms: C_8  and  N_9 
REMARK       I    between atoms: N_9  and  C_10 
REMARK    4  A    between atoms: C_10  and  C_11 
REMARK    5  A    between atoms: C_11  and  C_12 
ROOT
HETATM    1  C   UNL     1       7.937  23.097  52.550  1.00  0.00     0.004 A 
HETATM    2  C   UNL     1       7.066  24.057  53.065  1.00  0.00     0.037 A 
HETATM    3  C   UNL     1       6.730  24.044  54.420  1.00  0.00     0.077 A 
HETATM    4  C   UNL     1       7.289  23.089  55.273  1.00  0.00     0.059 A 
HETATM    5  C   UNL     1       8.169  22.129  54.759  1.00  0.00     0.047 A 
HETATM    6  C   UNL     1       8.756  21.155  55.631  1.00  0.00     0.099 C 
HETATM    7  N   UNL     1       9.236  20.365  56.333  1.00  0.00    -0.191 NA
HETATM    8  C   UNL     1       8.488  22.133  53.396  1.00  0.00     0.023 A 
ENDROOT
BRANCH   3   9
HETATM    9  O   UNL     1       5.915  25.062  54.864  1.00  0.00    -0.311 OA
BRANCH   9  10
HETATM   10  C   UNL     1       6.520  26.042  55.612  1.00  0.00     0.076 A 
HETATM   11  C   UNL     1       6.602  25.879  56.992  1.00  0.00     0.039 A 
HETATM   12  C   UNL     1       7.258  26.838  57.770  1.00  0.00     0.032 A 
HETATM   13  C   UNL     1       7.861  27.947  57.170  1.00  0.00     0.034 A 
HETATM   14  C   UNL     1       7.798  28.081  55.774  1.00  0.00     0.032 A 
HETATM   15  C   UNL     1       7.128  27.133  54.995  1.00  0.00     0.039 A 
BRANCH  13  16
HETATM   16  N   UNL     1       8.562  28.943  57.883  1.00  0.00    -0.327 N 
HETATM   17  C   UNL     1       8.081  30.178  58.300  1.00  0.00     0.227 C 
HETATM   18  O   UNL     1       6.973  30.638  58.036  1.00  0.00    -0.273 OA
HETATM   19  H   UNL     1       9.534  28.742  58.081  1.00  0.00     0.169 HD
BRANCH  17  20
HETATM   20  C   UNL     1       9.133  30.962  59.094  1.00  0.00     0.159 C 
BRANCH  20  21
HETATM   21  C   UNL     1       8.734  31.291  60.502  1.00  0.00     0.017 A 
HETATM   22  N   UNL     1       7.519  30.935  61.045  1.00  0.00    -0.369 N 
HETATM   23  H   UNL     1       6.811  30.393  60.556  1.00  0.00     0.165 HD
HETATM   24  C   UNL     1       7.433  31.390  62.333  1.00  0.00     0.088 A 
HETATM   25  C   UNL     1       8.602  32.052  62.628  1.00  0.00     0.019 A 
HETATM   26  C   UNL     1       9.422  31.992  61.477  1.00  0.00     0.027 A 
ENDBRANCH  20  21
ENDBRANCH  17  20
ENDBRANCH  13  16
ENDBRANCH   9  10
ENDBRANCH   3   9
TORSDOF 5
ENDMDL
MODEL 2
REMARK VINA RESULT:      -8.8      1.438      2.027
REMARK  5 active torsions:
REMARK  status: ('A' for Active; 'I' for Inactive)
REMARK    1  A    between atoms: C_3  and  O_4 
REMARK    2  A    between atoms: O_4  and  C_5 
REMARK    3  A    between atoms: C_8  and  N_9 
REMARK       I    between atoms: N_9  and  C_10 
REMARK    4  A    between atoms: C_10  and  C_11 
REMARK    5  A    between atoms: C_11  and  C_12 
ROOT
HETATM    1  C   UNL     1       8.236  22.854  56.651  1.00  0.00     0.004 A 
HETATM    2  C   UNL     1       7.459  23.935  56.231  1.00  0.00     0.037 A 
HETATM    3  C   UNL     1       7.013  24.006  54.910  1.00  0.00     0.077 A 
HETATM    4  C   UNL     1       7.316  22.980  54.011  1.00  0.00     0.059 A 
HETATM    5  C   UNL     1       8.089  21.893  54.432  1.00  0.00     0.047 A 
HETATM    6  C   UNL     1       8.393  20.831  53.518  1.00  0.00     0.099 C 
HETATM    7  N   UNL     1       8.639  19.968  52.783  1.00  0.00    -0.191 NA
HETATM    8  C   UNL     1       8.551  21.834  55.753  1.00  0.00     0.023 A 
ENDROOT
BRANCH   3   9
HETATM    9  O   UNL     1       6.199  25.069  54.590  1.00  0.00    -0.311 OA
BRANCH   9  10
HETATM   10  C   UNL     1       6.350  26.201  55.353  1.00  0.00     0.076 A 
HETATM   11  C   UNL     1       7.398  27.070  55.064  1.00  0.00     0.039 A 
HETATM   12  C   UNL     1       7.544  28.254  55.793  1.00  0.00     0.032 A 
HETATM   13  C   UNL     1       6.626  28.590  56.792  1.00  0.00     0.034 A 
HETATM   14  C   UNL     1       5.556  27.719  57.050  1.00  0.00     0.032 A 
HETATM   15  C   UNL     1       5.417  26.526  56.334  1.00  0.00     0.039 A 
BRANCH  13  16
HETATM   16  N   UNL     1       6.690  29.777  57.553  1.00  0.00    -0.327 N 
HETATM   17  C   UNL     1       7.647  30.122  58.499  1.00  0.00     0.227 C 
HETATM   18  O   UNL     1       8.559  29.396  58.888  1.00  0.00    -0.273 OA
HETATM   19  H   UNL     1       5.931  30.433  57.411  1.00  0.00     0.169 HD
BRANCH  17  20
HETATM   20  C   UNL     1       7.402  31.521  59.075  1.00  0.00     0.159 C 
BRANCH  20  21
HETATM   21  C   UNL     1       7.676  31.648  60.545  1.00  0.00     0.017 A 
HETATM   22  N   UNL     1       8.087  30.592  61.330  1.00  0.00    -0.369 N 
HETATM   23  H   UNL     1       8.273  29.657  60.978  1.00  0.00     0.165 HD
HETATM   24  C   UNL     1       8.234  31.006  62.626  1.00  0.00     0.088 A 
HETATM   25  C   UNL     1       7.912  32.342  62.685  1.00  0.00     0.019 A 
HETATM   26  C   UNL     1       7.559  32.748  61.376  1.00  0.00     0.027 A 
ENDBRANCH  20  21
ENDBRANCH  17  20
ENDBRANCH  13  16
ENDBRANCH   9  10
ENDBRANCH   3   9
TORSDOF 5
ENDMDL
MODEL 3
REMARK VINA RESULT:      -8.7      1.663      9.454
REMARK  5 active torsions:
REMARK  status: ('A' for Active; 'I' for Inactive)
REMARK    1  A    between atoms: C_3  and  O_4 
REMARK    2  A    between atoms: O_4  and  C_5 
REMARK    3  A    between atoms: C_8  and  N_9 
REMARK       I    between atoms: N_9  and  C_10 
REMARK    4  A    between atoms: C_10  and  C_11 
REMARK    5  A    between atoms: C_11  and  C_12 
ROOT
HETATM    1  C   UNL     1       9.389  32.013  61.853  1.00  0.00     0.004 A 
HETATM    2  C   UNL     1       9.207  31.880  60.476  1.00  0.00     0.037 A 
HETATM    3  C   UNL     1       7.919  31.784  59.946  1.00  0.00     0.077 A 
HETATM    4  C   UNL     1       6.806  31.852  60.788  1.00  0.00     0.059 A 
HETATM    5  C   UNL     1       6.987  31.993  62.168  1.00  0.00     0.047 A 
HETATM    6  C   UNL     1       5.850  32.077  63.036  1.00  0.00     0.099 C 
HETATM    7  N   UNL     1       4.932  32.148  63.743  1.00  0.00    -0.191 NA
HETATM    8  C   UNL     1       8.281  32.069  62.699  1.00  0.00     0.023 A 
ENDROOT
BRANCH   3   9
HETATM    9  O   UNL     1       7.820  31.719  58.574  1.00  0.00    -0.311 OA
BRANCH   9  10
HETATM   10  C   UNL     1       7.526  30.487  58.043  1.00  0.00     0.076 A 
HETATM   11  C   UNL     1       8.526  29.520  57.998  1.00  0.00     0.039 A 
HETATM   12  C   UNL     1       8.238  28.242  57.509  1.00  0.00     0.032 A 
HETATM   13  C   UNL     1       6.944  27.916  57.094  1.00  0.00     0.034 A 
HETATM   14  C   UNL     1       5.939  28.892  57.176  1.00  0.00     0.032 A 
HETATM   15  C   UNL     1       6.228  30.176  57.648  1.00  0.00     0.039 A 
BRANCH  13  16
HETATM   16  N   UNL     1       6.569  26.643  56.613  1.00  0.00    -0.327 N 
HETATM   17  C   UNL     1       6.894  26.075  55.387  1.00  0.00     0.227 C 
HETATM   18  O   UNL     1       7.501  26.636  54.480  1.00  0.00    -0.273 OA
HETATM   19  H   UNL     1       5.969  26.100  57.223  1.00  0.00     0.169 HD
BRANCH  17  20
HETATM   20  C   UNL     1       6.341  24.651  55.255  1.00  0.00     0.159 C 
BRANCH  20  21
HETATM   21  C   UNL     1       7.316  23.651  54.705  1.00  0.00     0.017 A 
HETATM   22  N   UNL     1       8.315  23.079  55.460  1.00  0.00    -0.369 N 
HETATM   23  H   UNL     1       8.453  23.253  56.452  1.00  0.00     0.165 HD
HETATM   24  C   UNL     1       9.056  22.228  54.684  1.00  0.00     0.088 A 
HETATM   25  C   UNL     1       8.535  22.252  53.412  1.00  0.00     0.019 A 
HETATM   26  C   UNL     1       7.440  23.148  53.422  1.00  0.00     0.027 A 
ENDBRANCH  20  21
ENDBRANCH  17  20
ENDBRANCH  13  16
ENDBRANCH   9  10
ENDBRANCH   3   9
TORSDOF 5
ENDMDL
MODEL 4
REMARK VINA RESULT:      -8.5      2.294      9.304
REMARK  5 active torsions:
REMARK  status: ('A' for Active; 'I' for Inactive)
REMARK    1  A    between atoms: C_3  and  O_4 
REMARK    2  A    between atoms: O_4  and  C_5 
REMARK    3  A    between atoms: C_8  and  N_9 
REMARK       I    between atoms: N_9  and  C_10 
REMARK    4  A    between atoms: C_10  and  C_11 
REMARK    5  A    between atoms: C_11  and  C_12 
ROOT
HETATM    1  C   UNL     1       9.283  32.249  62.008  1.00  0.00     0.004 A 
HETATM    2  C   UNL     1       9.094  32.135  60.630  1.00  0.00     0.037 A 
HETATM    3  C   UNL     1       7.804  32.033  60.106  1.00  0.00     0.077 A 
HETATM    4  C   UNL     1       6.695  32.076  60.955  1.00  0.00     0.059 A 
HETATM    5  C   UNL     1       6.883  32.198  62.336  1.00  0.00     0.047 A 
HETATM    6  C   UNL     1       5.750  32.257  63.212  1.00  0.00     0.099 C 
HETATM    7  N   UNL     1       4.835  32.306  63.925  1.00  0.00    -0.191 NA
HETATM    8  C   UNL     1       8.179  32.281  62.861  1.00  0.00     0.023 A 
ENDROOT
BRANCH   3   9
HETATM    9  O   UNL     1       7.698  31.989  58.733  1.00  0.00    -0.311 OA
BRANCH   9  10
HETATM   10  C   UNL     1       7.836  30.752  58.153  1.00  0.00     0.076 A 
HETATM   11  C   UNL     1       9.117  30.259  57.921  1.00  0.00     0.039 A 
HETATM   12  C   UNL     1       9.284  28.981  57.378  1.00  0.00     0.032 A 
HETATM   13  C   UNL     1       8.175  28.179  57.095  1.00  0.00     0.034 A 
HETATM   14  C   UNL     1       6.891  28.677  57.366  1.00  0.00     0.032 A 
HETATM   15  C   UNL     1       6.720  29.961  57.892  1.00  0.00     0.039 A 
BRANCH  13  16
HETATM   16  N   UNL     1       8.262  26.871  56.571  1.00  0.00    -0.327 N 
HETATM   17  C   UNL     1       8.106  25.674  57.260  1.00  0.00     0.227 C 
HETATM   18  O   UNL     1       7.946  25.566  58.473  1.00  0.00    -0.273 OA
HETATM   19  H   UNL     1       8.497  26.805  55.588  1.00  0.00     0.169 HD
BRANCH  17  20
HETATM   20  C   UNL     1       8.223  24.462  56.330  1.00  0.00     0.159 C 
BRANCH  20  21
HETATM   21  C   UNL     1       7.356  24.527  55.107  1.00  0.00     0.017 A 
HETATM   22  N   UNL     1       6.048  24.958  55.132  1.00  0.00    -0.369 N 
HETATM   23  H   UNL     1       5.575  25.300  55.964  1.00  0.00     0.165 HD
HETATM   24  C   UNL     1       5.510  24.885  53.875  1.00  0.00     0.088 A 
HETATM   25  C   UNL     1       6.476  24.398  53.027  1.00  0.00     0.019 A 
HETATM   26  C   UNL     1       7.640  24.171  53.801  1.00  0.00     0.027 A 
ENDBRANCH  20  21
ENDBRANCH  17  20
ENDBRANCH  13  16
ENDBRANCH   9  10
ENDBRANCH   3   9
TORSDOF 5
ENDMDL
MODEL 5
REMARK VINA RESULT:      -8.1      7.201     13.679
REMARK  5 active torsions:
REMARK  status: ('A' for Active; 'I' for Inactive)
REMARK    1  A    between atoms: C_3  and  O_4 
REMARK    2  A    between atoms: O_4  and  C_5 
REMARK    3  A    between atoms: C_8  and  N_9 
REMARK       I    between atoms: N_9  and  C_10 
REMARK    4  A    between atoms: C_10  and  C_11 
REMARK    5  A    between atoms: C_11  and  C_12 
ROOT
HETATM    1  C   UNL     1       8.304  35.529  70.139  1.00  0.00     0.004 A 
HETATM    2  C   UNL     1       7.176  35.497  69.318  1.00  0.00     0.037 A 
HETATM    3  C   UNL     1       6.293  34.417  69.383  1.00  0.00     0.077 A 
HETATM    4  C   UNL     1       6.518  33.380  70.292  1.00  0.00     0.059 A 
HETATM    5  C   UNL     1       7.645  33.416  71.121  1.00  0.00     0.047 A 
HETATM    6  C   UNL     1       7.874  32.361  72.066  1.00  0.00     0.099 C 
HETATM    7  N   UNL     1       8.062  31.512  72.833  1.00  0.00    -0.191 NA
HETATM    8  C   UNL     1       8.539  34.490  71.040  1.00  0.00     0.023 A 
ENDROOT
BRANCH   3   9
HETATM    9  O   UNL     1       5.171  34.489  68.588  1.00  0.00    -0.311 OA
BRANCH   9  10
HETATM   10  C   UNL     1       5.362  34.271  67.246  1.00  0.00     0.076 A 
HETATM   11  C   UNL     1       6.640  33.956  66.793  1.00  0.00     0.039 A 
HETATM   12  C   UNL     1       6.852  33.680  65.439  1.00  0.00     0.032 A 
HETATM   13  C   UNL     1       5.783  33.687  64.538  1.00  0.00     0.034 A 
HETATM   14  C   UNL     1       4.495  33.976  65.015  1.00  0.00     0.032 A 
HETATM   15  C   UNL     1       4.283  34.269  66.366  1.00  0.00     0.039 A 
BRANCH  13  16
HETATM   16  N   UNL     1       5.911  33.395  63.163  1.00  0.00    -0.327 N 
HETATM   17  C   UNL     1       5.495  32.245  62.503  1.00  0.00     0.227 C 
HETATM   18  O   UNL     1       5.017  31.249  63.039  1.00  0.00    -0.273 OA
HETATM   19  H   UNL     1       6.389  34.093  62.606  1.00  0.00     0.169 HD
BRANCH  17  20
HETATM   20  C   UNL     1       5.765  32.323  60.996  1.00  0.00     0.159 C 
BRANCH  20  21
HETATM   21  C   UNL     1       7.112  31.814  60.575  1.00  0.00     0.017 A 
HETATM   22  N   UNL     1       7.735  30.744  61.178  1.00  0.00    -0.369 N 
HETATM   23  H   UNL     1       7.326  30.190  61.926  1.00  0.00     0.165 HD
HETATM   24  C   UNL     1       8.956  30.528  60.597  1.00  0.00     0.088 A 
HETATM   25  C   UNL     1       9.129  31.471  59.610  1.00  0.00     0.019 A 
HETATM   26  C   UNL     1       7.969  32.282  59.595  1.00  0.00     0.027 A 
ENDBRANCH  20  21
ENDBRANCH  17  20
ENDBRANCH  13  16
ENDBRANCH   9  10
ENDBRANCH   3   9
TORSDOF 5
ENDMDL
MODEL 6
REMARK VINA RESULT:      -7.9      3.102      3.863
REMARK  5 active torsions:
REMARK  status: ('A' for Active; 'I' for Inactive)
REMARK    1  A    between atoms: C_3  and  O_4 
REMARK    2  A    between atoms: O_4  and  C_5 
REMARK    3  A    between atoms: C_8  and  N_9 
REMARK       I    between atoms: N_9  and  C_10 
REMARK    4  A    between atoms: C_10  and  C_11 
REMARK    5  A    between atoms: C_11  and  C_12 
ROOT
HETATM    1  C   UNL     1       8.375  20.189  53.186  1.00  0.00     0.004 A 
HETATM    2  C   UNL     1       8.199  21.390  52.498  1.00  0.00     0.037 A 
HETATM    3  C   UNL     1       8.034  22.584  53.204  1.00  0.00     0.077 A 
HETATM    4  C   UNL     1       8.074  22.585  54.600  1.00  0.00     0.059 A 
HETATM    5  C   UNL     1       8.257  21.382  55.291  1.00  0.00     0.047 A 
HETATM    6  C   UNL     1       8.312  21.378  56.724  1.00  0.00     0.099 C 
HETATM    7  N   UNL     1       8.360  21.371  57.883  1.00  0.00    -0.191 NA
HETATM    8  C   UNL     1       8.403  20.184  54.581  1.00  0.00     0.023 A 
ENDROOT
BRANCH   3   9
HETATM    9  O   UNL     1       7.931  23.735  52.454  1.00  0.00    -0.311 OA
BRANCH   9  10
HETATM   10  C   UNL     1       7.144  24.731  52.976  1.00  0.00     0.076 A 
HETATM   11  C   UNL     1       5.777  24.507  53.107  1.00  0.00     0.039 A 
HETATM   12  C   UNL     1       4.962  25.487  53.683  1.00  0.00     0.032 A 
HETATM   13  C   UNL     1       5.514  26.681  54.157  1.00  0.00     0.034 A 
HETATM   14  C   UNL     1       6.899  26.878  54.046  1.00  0.00     0.032 A 
HETATM   15  C   UNL     1       7.714  25.908  53.456  1.00  0.00     0.039 A 
BRANCH  13  16
HETATM   16  N   UNL     1       4.763  27.706  54.772  1.00  0.00    -0.327 N 
HETATM   17  C   UNL     1       4.684  27.996  56.128  1.00  0.00     0.227 C 
HETATM   18  O   UNL     1       5.202  27.341  57.029  1.00  0.00    -0.273 OA
HETATM   19  H   UNL     1       4.194  28.269  54.151  1.00  0.00     0.169 HD
BRANCH  17  20
HETATM   20  C   UNL     1       3.803  29.220  56.400  1.00  0.00     0.159 C 
BRANCH  20  21
HETATM   21  C   UNL     1       4.459  30.293  57.218  1.00  0.00     0.017 A 
HETATM   22  N   UNL     1       3.913  30.796  58.378  1.00  0.00    -0.369 N 
HETATM   23  H   UNL     1       3.049  30.462  58.795  1.00  0.00     0.165 HD
HETATM   24  C   UNL     1       4.724  31.775  58.888  1.00  0.00     0.088 A 
HETATM   25  C   UNL     1       5.804  31.912  58.047  1.00  0.00     0.019 A 
HETATM   26  C   UNL     1       5.639  30.980  56.994  1.00  0.00     0.027 A 
ENDBRANCH  20  21
ENDBRANCH  17  20
ENDBRANCH  13  16
ENDBRANCH   9  10
ENDBRANCH   3   9
TORSDOF 5
ENDMDL
MODEL 7
REMARK VINA RESULT:      -7.7      4.008      9.234
REMARK  5 active torsions:
REMARK  status: ('A' for Active; 'I' for Inactive)
REMARK    1  A    between atoms: C_3  and  O_4 
REMARK    2  A    between atoms: O_4  and  C_5 
REMARK    3  A    between atoms: C_8  and  N_9 
REMARK       I    between atoms: N_9  and  C_10 
REMARK    4  A    between atoms: C_10  and  C_11 
REMARK    5  A    between atoms: C_11  and  C_12 
ROOT
HETATM    1  C   UNL     1      10.084  29.206  56.809  1.00  0.00     0.004 A 
HETATM    2  C   UNL     1       8.983  28.352  56.872  1.00  0.00     0.037 A 
HETATM    3  C   UNL     1       7.935  28.624  57.754  1.00  0.00     0.077 A 
HETATM    4  C   UNL     1       7.970  29.768  58.555  1.00  0.00     0.059 A 
HETATM    5  C   UNL     1       9.071  30.629  58.487  1.00  0.00     0.047 A 
HETATM    6  C   UNL     1       9.107  31.812  59.296  1.00  0.00     0.099 C 
HETATM    7  N   UNL     1       9.140  32.772  59.947  1.00  0.00    -0.191 NA
HETATM    8  C   UNL     1      10.129  30.344  57.616  1.00  0.00     0.023 A 
ENDROOT
BRANCH   3   9
HETATM    9  O   UNL     1       6.855  27.769  57.711  1.00  0.00    -0.311 OA
BRANCH   9  10
HETATM   10  C   UNL     1       6.396  27.433  56.462  1.00  0.00     0.076 A 
HETATM   11  C   UNL     1       6.159  26.092  56.172  1.00  0.00     0.039 A 
HETATM   12  C   UNL     1       5.643  25.729  54.924  1.00  0.00     0.032 A 
HETATM   13  C   UNL     1       5.333  26.705  53.974  1.00  0.00     0.034 A 
HETATM   14  C   UNL     1       5.547  28.055  54.292  1.00  0.00     0.032 A 
HETATM   15  C   UNL     1       6.078  28.420  55.533  1.00  0.00     0.039 A 
BRANCH  13  16
HETATM   16  N   UNL     1       4.786  26.421  52.704  1.00  0.00    -0.327 N 
HETATM   17  C   UNL     1       5.454  25.931  51.588  1.00  0.00     0.227 C 
HETATM   18  O   UNL     1       6.665  25.743  51.508  1.00  0.00    -0.273 OA
HETATM   19  H   UNL     1       3.801  26.630  52.590  1.00  0.00     0.169 HD
BRANCH  17  20
HETATM   20  C   UNL     1       4.503  25.704  50.408  1.00  0.00     0.159 C 
BRANCH  20  21
HETATM   21  C   UNL     1       4.588  26.743  49.328  1.00  0.00     0.017 A 
HETATM   22  N   UNL     1       5.595  27.679  49.261  1.00  0.00    -0.369 N 
HETATM   23  H   UNL     1       6.378  27.724  49.908  1.00  0.00     0.165 HD
HETATM   24  C   UNL     1       5.395  28.502  48.185  1.00  0.00     0.088 A 
HETATM   25  C   UNL     1       4.244  28.099  47.551  1.00  0.00     0.019 A 
HETATM   26  C   UNL     1       3.733  26.991  48.269  1.00  0.00     0.027 A 
ENDBRANCH  20  21
ENDBRANCH  17  20
ENDBRANCH  13  16
ENDBRANCH   9  10
ENDBRANCH   3   9
TORSDOF 5
ENDMDL
MODEL 8
REMARK VINA RESULT:      -7.7      4.630      7.307
REMARK  5 active torsions:
REMARK  status: ('A' for Active; 'I' for Inactive)
REMARK    1  A    between atoms: C_3  and  O_4 
REMARK    2  A    between atoms: O_4  and  C_5 
REMARK    3  A    between atoms: C_8  and  N_9 
REMARK       I    between atoms: N_9  and  C_10 
REMARK    4  A    between atoms: C_10  and  C_11 
REMARK    5  A    between atoms: C_11  and  C_12 
ROOT
HETATM    1  C   UNL     1       9.861  29.670  56.162  1.00  0.00     0.004 A 
HETATM    2  C   UNL     1      10.301  30.258  57.348  1.00  0.00     0.037 A 
HETATM    3  C   UNL     1       9.483  30.249  58.480  1.00  0.00     0.077 A 
HETATM    4  C   UNL     1       8.233  29.625  58.438  1.00  0.00     0.059 A 
HETATM    5  C   UNL     1       7.794  29.028  57.250  1.00  0.00     0.047 A 
HETATM    6  C   UNL     1       6.519  28.375  57.204  1.00  0.00     0.099 C 
HETATM    7  N   UNL     1       5.489  27.843  57.163  1.00  0.00    -0.191 NA
HETATM    8  C   UNL     1       8.609  29.056  56.112  1.00  0.00     0.023 A 
ENDROOT
BRANCH   3   9
HETATM    9  O   UNL     1      10.013  30.792  59.629  1.00  0.00    -0.311 OA
BRANCH   9  10
HETATM   10  C   UNL     1       9.116  31.334  60.515  1.00  0.00     0.076 A 
HETATM   11  C   UNL     1       9.115  30.881  61.831  1.00  0.00     0.039 A 
HETATM   12  C   UNL     1       8.246  31.453  62.765  1.00  0.00     0.032 A 
HETATM   13  C   UNL     1       7.396  32.499  62.396  1.00  0.00     0.034 A 
HETATM   14  C   UNL     1       7.431  32.967  61.073  1.00  0.00     0.032 A 
HETATM   15  C   UNL     1       8.287  32.386  60.133  1.00  0.00     0.039 A 
BRANCH  13  16
HETATM   16  N   UNL     1       6.509  33.145  63.285  1.00  0.00    -0.327 N 
HETATM   17  C   UNL     1       5.297  32.664  63.764  1.00  0.00     0.227 C 
HETATM   18  O   UNL     1       4.758  31.616  63.417  1.00  0.00    -0.273 OA
HETATM   19  H   UNL     1       6.778  34.076  63.577  1.00  0.00     0.169 HD
BRANCH  17  20
HETATM   20  C   UNL     1       4.648  33.638  64.753  1.00  0.00     0.159 C 
BRANCH  20  21
HETATM   21  C   UNL     1       4.434  35.023  64.216  1.00  0.00     0.017 A 
HETATM   22  N   UNL     1       3.290  35.405  63.550  1.00  0.00    -0.369 N 
HETATM   23  H   UNL     1       2.488  34.799  63.399  1.00  0.00     0.165 HD
HETATM   24  C   UNL     1       3.393  36.714  63.162  1.00  0.00     0.088 A 
HETATM   25  C   UNL     1       4.616  37.185  63.576  1.00  0.00     0.019 A 
HETATM   26  C   UNL     1       5.274  36.122  64.240  1.00  0.00     0.027 A 
ENDBRANCH  20  21
ENDBRANCH  17  20
ENDBRANCH  13  16
ENDBRANCH   9  10
ENDBRANCH   3   9
TORSDOF 5
ENDMDL
MODEL 9
REMARK VINA RESULT:      -7.7      2.342      9.625
REMARK  5 active torsions:
REMARK  status: ('A' for Active; 'I' for Inactive)
REMARK    1  A    between atoms: C_3  and  O_4 
REMARK    2  A    between atoms: O_4  and  C_5 
REMARK    3  A    between atoms: C_8  and  N_9 
REMARK       I    between atoms: N_9  and  C_10 
REMARK    4  A    between atoms: C_10  and  C_11 
REMARK    5  A    between atoms: C_11  and  C_12 
ROOT
HETATM    1  C   UNL     1       4.431  33.275  60.652  1.00  0.00     0.004 A 
HETATM    2  C   UNL     1       5.007  32.851  59.454  1.00  0.00     0.037 A 
HETATM    3  C   UNL     1       6.346  32.457  59.421  1.00  0.00     0.077 A 
HETATM    4  C   UNL     1       7.107  32.458  60.592  1.00  0.00     0.059 A 
HETATM    5  C   UNL     1       6.529  32.876  61.796  1.00  0.00     0.047 A 
HETATM    6  C   UNL     1       7.301  32.866  63.004  1.00  0.00     0.099 C 
HETATM    7  N   UNL     1       7.921  32.858  63.985  1.00  0.00    -0.191 NA
HETATM    8  C   UNL     1       5.191  33.288  61.823  1.00  0.00     0.023 A 
ENDROOT
BRANCH   3   9
HETATM    9  O   UNL     1       6.822  31.991  58.215  1.00  0.00    -0.311 OA
BRANCH   9  10
HETATM   10  C   UNL     1       6.749  30.635  58.017  1.00  0.00     0.076 A 
HETATM   11  C   UNL     1       5.574  30.094  57.504  1.00  0.00     0.039 A 
HETATM   12  C   UNL     1       5.492  28.722  57.245  1.00  0.00     0.032 A 
HETATM   13  C   UNL     1       6.593  27.891  57.469  1.00  0.00     0.034 A 
HETATM   14  C   UNL     1       7.781  28.456  57.956  1.00  0.00     0.032 A 
HETATM   15  C   UNL     1       7.861  29.825  58.232  1.00  0.00     0.039 A 
BRANCH  13  16
HETATM   16  N   UNL     1       6.597  26.503  57.209  1.00  0.00    -0.327 N 
HETATM   17  C   UNL     1       6.988  25.866  56.038  1.00  0.00     0.227 C 
HETATM   18  O   UNL     1       7.319  26.427  54.997  1.00  0.00    -0.273 OA
HETATM   19  H   UNL     1       6.245  25.914  57.954  1.00  0.00     0.169 HD
BRANCH  17  20
HETATM   20  C   UNL     1       6.898  24.340  56.162  1.00  0.00     0.159 C 
BRANCH  20  21
HETATM   21  C   UNL     1       7.497  23.584  55.013  1.00  0.00     0.017 A 
HETATM   22  N   UNL     1       6.956  23.584  53.746  1.00  0.00    -0.369 N 
HETATM   23  H   UNL     1       6.136  24.120  53.475  1.00  0.00     0.165 HD
HETATM   24  C   UNL     1       7.706  22.791  52.920  1.00  0.00     0.088 A 
HETATM   25  C   UNL     1       8.741  22.267  53.658  1.00  0.00     0.019 A 
HETATM   26  C   UNL     1       8.612  22.765  54.977  1.00  0.00     0.027 A 
ENDBRANCH  20  21
ENDBRANCH  17  20
ENDBRANCH  13  16
ENDBRANCH   9  10
ENDBRANCH   3   9
TORSDOF 5
ENDMDL
MODEL 10
REMARK VINA RESULT:      -7.5      6.865     10.218
REMARK  5 active torsions:
REMARK  status: ('A' for Active; 'I' for Inactive)
REMARK    1  A    between atoms: C_3  and  O_4 
REMARK    2  A    between atoms: O_4  and  C_5 
REMARK    3  A    between atoms: C_8  and  N_9 
REMARK       I    between atoms: N_9  and  C_10 
REMARK    4  A    between atoms: C_10  and  C_11 
REMARK    5  A    between atoms: C_11  and  C_12 
ROOT
HETATM    1  C   UNL     1       1.327  30.541  48.275  1.00  0.00     0.004 A 
HETATM    2  C   UNL     1       2.653  30.164  48.492  1.00  0.00     0.037 A 
HETATM    3  C   UNL     1       3.149  28.988  47.924  1.00  0.00     0.077 A 
HETATM    4  C   UNL     1       2.329  28.201  47.112  1.00  0.00     0.059 A 
HETATM    5  C   UNL     1       1.001  28.582  46.888  1.00  0.00     0.047 A 
HETATM    6  C   UNL     1       0.159  27.785  46.045  1.00  0.00     0.099 C 
HETATM    7  N   UNL     1      -0.526  27.145  45.361  1.00  0.00    -0.191 NA
HETATM    8  C   UNL     1       0.502  29.751  47.474  1.00  0.00     0.023 A 
ENDROOT
BRANCH   3   9
HETATM    9  O   UNL     1       4.483  28.719  48.132  1.00  0.00    -0.311 OA
BRANCH   9  10
HETATM   10  C   UNL     1       4.787  27.981  49.250  1.00  0.00     0.076 A 
HETATM   11  C   UNL     1       4.574  26.606  49.225  1.00  0.00     0.039 A 
HETATM   12  C   UNL     1       4.922  25.826  50.332  1.00  0.00     0.032 A 
HETATM   13  C   UNL     1       5.514  26.412  51.455  1.00  0.00     0.034 A 
HETATM   14  C   UNL     1       5.752  27.795  51.452  1.00  0.00     0.032 A 
HETATM   15  C   UNL     1       5.389  28.580  50.353  1.00  0.00     0.039 A 
BRANCH  13  16
HETATM   16  N   UNL     1       5.917  25.691  52.599  1.00  0.00    -0.327 N 
HETATM   17  C   UNL     1       7.166  25.136  52.851  1.00  0.00     0.227 C 
HETATM   18  O   UNL     1       8.108  25.117  52.064  1.00  0.00    -0.273 OA
HETATM   19  H   UNL     1       5.200  25.536  53.298  1.00  0.00     0.169 HD
BRANCH  17  20
HETATM   20  C   UNL     1       7.228  24.472  54.231  1.00  0.00     0.159 C 
BRANCH  20  21
HETATM   21  C   UNL     1       7.525  23.002  54.203  1.00  0.00     0.017 A 
HETATM   22  N   UNL     1       7.685  22.286  53.037  1.00  0.00    -0.369 N 
HETATM   23  H   UNL     1       7.652  22.695  52.107  1.00  0.00     0.165 HD
HETATM   24  C   UNL     1       7.924  20.970  53.327  1.00  0.00     0.088 A 
HETATM   25  C   UNL     1       7.915  20.828  54.695  1.00  0.00     0.019 A 
HETATM   26  C   UNL     1       7.664  22.106  55.249  1.00  0.00     0.027 A 
ENDBRANCH  20  21
ENDBRANCH  17  20
ENDBRANCH  13  16
ENDBRANCH   9  10
ENDBRANCH   3   9
TORSDOF 5
ENDMDL
