MODEL 1
REMARK VINA RESULT:      -9.9      0.000      0.000
REMARK  5 active torsions:
REMARK  status: ('A' for Active; 'I' for Inactive)
REMARK    1  A    between atoms: C_8  and  N_9 
REMARK    2  A    between atoms: C_12  and  N_13 
REMARK    3  A    between atoms: N_13  and  C_15 
REMARK    4  A    between atoms: C_15  and  C_16 
REMARK    5  A    between atoms: C_20  and  C_21 
ROOT
HETATM    1  N   UNL     1       4.733  28.367  54.126  1.00  0.00    -0.065 N 
HETATM    2  H   UNL     1       5.725  28.603  54.033  1.00  0.00     0.280 HD
HETATM    3  C   UNL     1       3.947  29.440  53.396  1.00  0.00     0.270 C 
ENDROOT
BRANCH   1   4
HETATM    4  C   UNL     1       4.376  28.299  55.627  1.00  0.00     0.191 C 
HETATM    5  C   UNL     1       5.347  27.431  56.441  1.00  0.00     0.053 C 
HETATM    6  C   UNL     1       6.708  28.092  56.643  1.00  0.00     0.126 C 
HETATM    7  N   UNL     1       6.507  29.405  57.265  1.00  0.00    -0.366 N 
HETATM    8  C   UNL     1       5.682  30.336  56.489  1.00  0.00     0.126 C 
HETATM    9  C   UNL     1       4.309  29.708  56.253  1.00  0.00     0.053 C 
BRANCH   7  10
HETATM   10  C   UNL     1       7.655  29.962  57.844  1.00  0.00     0.129 A 
HETATM   11  N   UNL     1       7.532  30.882  58.819  1.00  0.00    -0.218 NA
HETATM   12  C   UNL     1       8.662  31.461  59.297  1.00  0.00     0.102 A 
HETATM   13  N   UNL     1       9.886  31.170  58.838  1.00  0.00    -0.348 N 
HETATM   14  C   UNL     1       8.524  32.509  60.356  1.00  0.00     0.091 C 
HETATM   15  C   UNL     1      10.042  30.254  57.871  1.00  0.00     0.010 A 
HETATM   16  H   UNL     1      10.694  31.659  59.221  1.00  0.00     0.167 HD
HETATM   17  C   UNL     1      11.415  29.966  57.354  1.00  0.00     0.068 C 
HETATM   18  C   UNL     1       8.911  29.624  57.352  1.00  0.00     0.075 A 
ENDBRANCH   7  10
ENDBRANCH   1   4
BRANCH   1  19
HETATM   19  C   UNL     1       4.570  27.042  53.351  1.00  0.00     0.295 C 
BRANCH  19  20
HETATM   20  C   UNL     1       5.683  26.042  53.437  1.00  0.00     0.082 A 
HETATM   21  N   UNL     1       6.931  26.361  53.071  1.00  0.00    -0.177 NA
HETATM   22  N   UNL     1       7.629  25.220  53.250  1.00  0.00    -0.277 N 
HETATM   23  H   UNL     1       8.623  25.213  53.040  1.00  0.00     0.189 HD
HETATM   24  C   UNL     1       6.876  24.179  53.727  1.00  0.00     0.062 A 
HETATM   25  C   UNL     1       5.604  24.698  53.872  1.00  0.00     0.062 A 
BRANCH  24  26
HETATM   26  C   UNL     1       7.419  22.850  53.998  1.00  0.00    -0.008 A 
HETATM   27  C   UNL     1       7.860  22.037  52.946  1.00  0.00     0.014 A 
HETATM   28  C   UNL     1       8.373  20.763  53.199  1.00  0.00     0.001 A 
HETATM   29  C   UNL     1       8.458  20.290  54.506  1.00  0.00     0.000 A 
HETATM   30  C   UNL     1       8.031  21.090  55.562  1.00  0.00     0.001 A 
HETATM   31  C   UNL     1       7.513  22.364  55.310  1.00  0.00     0.014 A 
ENDBRANCH  24  26
ENDBRANCH  19  20
ENDBRANCH   1  19
TORSDOF 5
ENDMDL
MODEL 2
REMARK VINA RESULT:      -9.3      1.489      2.579
REMARK  5 active torsions:
REMARK  status: ('A' for Active; 'I' for Inactive)
REMARK    1  A    between atoms: C_8  and  N_9 
REMARK    2  A    between atoms: C_12  and  N_13 
REMARK    3  A    between atoms: N_13  and  C_15 
REMARK    4  A    between atoms: C_15  and  C_16 
REMARK    5  A    between atoms: C_20  and  C_21 
ROOT
HETATM    1  N   UNL     1       6.286  28.698  54.418  1.00  0.00    -0.065 N 
HETATM    2  H   UNL     1       6.896  29.516  54.492  1.00  0.00     0.280 HD
HETATM    3  C   UNL     1       4.903  29.203  54.055  1.00  0.00     0.270 C 
ENDROOT
BRANCH   1   4
HETATM    4  C   UNL     1       6.299  27.944  55.766  1.00  0.00     0.191 C 
HETATM    5  C   UNL     1       7.644  28.041  56.501  1.00  0.00     0.053 C 
HETATM    6  C   UNL     1       7.893  29.422  57.102  1.00  0.00     0.126 C 
HETATM    7  N   UNL     1       6.771  29.763  57.983  1.00  0.00    -0.366 N 
HETATM    8  C   UNL     1       5.461  29.804  57.326  1.00  0.00     0.126 C 
HETATM    9  C   UNL     1       5.175  28.440  56.699  1.00  0.00     0.053 C 
BRANCH   7  10
HETATM   10  C   UNL     1       7.024  30.810  58.879  1.00  0.00     0.129 A 
HETATM   11  N   UNL     1       8.228  30.902  59.474  1.00  0.00    -0.218 NA
HETATM   12  C   UNL     1       8.410  31.878  60.399  1.00  0.00     0.102 A 
HETATM   13  N   UNL     1       7.448  32.740  60.755  1.00  0.00    -0.348 N 
HETATM   14  C   UNL     1       9.736  31.961  61.086  1.00  0.00     0.091 C 
HETATM   15  C   UNL     1       6.240  32.677  60.176  1.00  0.00     0.010 A 
HETATM   16  H   UNL     1       7.640  33.435  61.475  1.00  0.00     0.167 HD
HETATM   17  C   UNL     1       5.174  33.631  60.609  1.00  0.00     0.068 C 
HETATM   18  C   UNL     1       6.006  31.695  59.213  1.00  0.00     0.075 A 
ENDBRANCH   7  10
ENDBRANCH   1   4
BRANCH   1  19
HETATM   19  C   UNL     1       6.838  27.903  53.216  1.00  0.00     0.295 C 
BRANCH  19  20
HETATM   20  C   UNL     1       6.692  26.411  53.238  1.00  0.00     0.082 A 
HETATM   21  N   UNL     1       5.583  25.817  52.779  1.00  0.00    -0.177 NA
HETATM   22  N   UNL     1       5.801  24.502  52.995  1.00  0.00    -0.277 N 
HETATM   23  H   UNL     1       5.088  23.833  52.719  1.00  0.00     0.189 HD
HETATM   24  C   UNL     1       7.016  24.229  53.567  1.00  0.00     0.062 A 
HETATM   25  C   UNL     1       7.622  25.461  53.721  1.00  0.00     0.062 A 
BRANCH  24  26
HETATM   26  C   UNL     1       7.469  22.878  53.889  1.00  0.00    -0.008 A 
HETATM   27  C   UNL     1       7.456  22.423  55.215  1.00  0.00     0.014 A 
HETATM   28  C   UNL     1       7.894  21.135  55.529  1.00  0.00     0.001 A 
HETATM   29  C   UNL     1       8.344  20.284  54.522  1.00  0.00     0.000 A 
HETATM   30  C   UNL     1       8.354  20.719  53.200  1.00  0.00     0.001 A 
HETATM   31  C   UNL     1       7.919  22.010  52.884  1.00  0.00     0.014 A 
ENDBRANCH  24  26
ENDBRANCH  19  20
ENDBRANCH   1  19
TORSDOF 5
ENDMDL
MODEL 3
REMARK VINA RESULT:      -9.3      1.967      3.594
REMARK  5 active torsions:
REMARK  status: ('A' for Active; 'I' for Inactive)
REMARK    1  A    between atoms: C_8  and  N_9 
REMARK    2  A    between atoms: C_12  and  N_13 
REMARK    3  A    between atoms: N_13  and  C_15 
REMARK    4  A    between atoms: C_15  and  C_16 
REMARK    5  A    between atoms: C_20  and  C_21 
ROOT
HETATM    1  N   UNL     1       6.916  27.937  56.980  1.00  0.00    -0.065 N 
HETATM    2  H   UNL     1       6.260  28.034  57.760  1.00  0.00     0.280 HD
HETATM    3  C   UNL     1       8.010  26.988  57.431  1.00  0.00     0.270 C 
ENDROOT
BRANCH   1   4
HETATM    4  C   UNL     1       7.466  29.334  56.617  1.00  0.00     0.191 C 
HETATM    5  C   UNL     1       6.378  30.417  56.561  1.00  0.00     0.053 C 
HETATM    6  C   UNL     1       5.866  30.816  57.943  1.00  0.00     0.126 C 
HETATM    7  N   UNL     1       7.005  31.237  58.766  1.00  0.00    -0.366 N 
HETATM    8  C   UNL     1       8.036  30.213  58.962  1.00  0.00     0.126 C 
HETATM    9  C   UNL     1       8.571  29.776  57.599  1.00  0.00     0.053 C 
BRANCH   7  10
HETATM   10  C   UNL     1       6.664  31.971  59.909  1.00  0.00     0.129 A 
HETATM   11  N   UNL     1       5.628  32.828  59.868  1.00  0.00    -0.218 NA
HETATM   12  C   UNL     1       5.380  33.584  60.967  1.00  0.00     0.102 A 
HETATM   13  N   UNL     1       6.122  33.524  62.081  1.00  0.00    -0.348 N 
HETATM   14  C   UNL     1       4.250  34.563  60.910  1.00  0.00     0.091 C 
HETATM   15  C   UNL     1       7.158  32.675  62.155  1.00  0.00     0.010 A 
HETATM   16  H   UNL     1       5.898  34.137  62.864  1.00  0.00     0.167 HD
HETATM   17  C   UNL     1       7.988  32.647  63.397  1.00  0.00     0.068 C 
HETATM   18  C   UNL     1       7.449  31.871  61.053  1.00  0.00     0.075 A 
ENDBRANCH   7  10
ENDBRANCH   1   4
BRANCH   1  19
HETATM   19  C   UNL     1       6.105  27.241  55.867  1.00  0.00     0.295 C 
BRANCH  19  20
HETATM   20  C   UNL     1       6.754  26.105  55.136  1.00  0.00     0.082 A 
HETATM   21  N   UNL     1       7.385  26.302  53.972  1.00  0.00    -0.177 NA
HETATM   22  N   UNL     1       7.798  25.069  53.609  1.00  0.00    -0.277 N 
HETATM   23  H   UNL     1       8.317  24.958  52.743  1.00  0.00     0.189 HD
HETATM   24  C   UNL     1       7.462  24.087  54.505  1.00  0.00     0.062 A 
HETATM   25  C   UNL     1       6.793  24.744  55.519  1.00  0.00     0.062 A 
BRANCH  24  26
HETATM   26  C   UNL     1       7.806  22.679  54.322  1.00  0.00    -0.008 A 
HETATM   27  C   UNL     1       7.919  21.827  55.429  1.00  0.00     0.014 A 
HETATM   28  C   UNL     1       8.255  20.482  55.261  1.00  0.00     0.001 A 
HETATM   29  C   UNL     1       8.475  19.971  53.984  1.00  0.00     0.000 A 
HETATM   30  C   UNL     1       8.358  20.803  52.874  1.00  0.00     0.001 A 
HETATM   31  C   UNL     1       8.026  22.151  53.042  1.00  0.00     0.014 A 
ENDBRANCH  24  26
ENDBRANCH  19  20
ENDBRANCH   1  19
TORSDOF 5
ENDMDL
MODEL 4
REMARK VINA RESULT:      -9.2      1.948      8.932
REMARK  5 active torsions:
REMARK  status: ('A' for Active; 'I' for Inactive)
REMARK    1  A    between atoms: C_8  and  N_9 
REMARK    2  A    between atoms: C_12  and  N_13 
REMARK    3  A    between atoms: N_13  and  C_15 
REMARK    4  A    between atoms: C_15  and  C_16 
REMARK    5  A    between atoms: C_20  and  C_21 
ROOT
HETATM    1  N   UNL     1       6.026  28.276  55.842  1.00  0.00    -0.065 N 
HETATM    2  H   UNL     1       6.528  27.637  56.464  1.00  0.00     0.280 HD
HETATM    3  C   UNL     1       4.596  28.355  56.342  1.00  0.00     0.270 C 
ENDROOT
BRANCH   1   4
HETATM    4  C   UNL     1       6.111  27.734  54.398  1.00  0.00     0.191 C 
HETATM    5  C   UNL     1       7.520  27.257  54.013  1.00  0.00     0.053 C 
HETATM    6  C   UNL     1       7.905  25.943  54.686  1.00  0.00     0.126 C 
HETATM    7  N   UNL     1       6.888  24.934  54.370  1.00  0.00    -0.366 N 
HETATM    8  C   UNL     1       5.530  25.267  54.811  1.00  0.00     0.126 C 
HETATM    9  C   UNL     1       5.107  26.586  54.167  1.00  0.00     0.053 C 
BRANCH   7  10
HETATM   10  C   UNL     1       7.284  23.609  54.598  1.00  0.00     0.129 A 
HETATM   11  N   UNL     1       7.511  23.187  55.855  1.00  0.00    -0.218 NA
HETATM   12  C   UNL     1       7.975  21.924  56.031  1.00  0.00     0.102 A 
HETATM   13  N   UNL     1       8.228  21.087  55.015  1.00  0.00    -0.348 N 
HETATM   14  C   UNL     1       8.261  21.465  57.425  1.00  0.00     0.091 C 
HETATM   15  C   UNL     1       8.006  21.477  53.751  1.00  0.00     0.010 A 
HETATM   16  H   UNL     1       8.599  20.159  55.212  1.00  0.00     0.167 HD
HETATM   17  C   UNL     1       8.322  20.537  52.633  1.00  0.00     0.068 C 
HETATM   18  C   UNL     1       7.522  22.765  53.519  1.00  0.00     0.075 A 
ENDBRANCH   7  10
ENDBRANCH   1   4
BRANCH   1  19
HETATM   19  C   UNL     1       6.690  29.650  56.069  1.00  0.00     0.295 C 
BRANCH  19  20
HETATM   20  C   UNL     1       7.174  29.973  57.450  1.00  0.00     0.082 A 
HETATM   21  N   UNL     1       8.121  29.234  58.042  1.00  0.00    -0.177 NA
HETATM   22  N   UNL     1       8.262  29.795  59.261  1.00  0.00    -0.277 N 
HETATM   23  H   UNL     1       8.942  29.404  59.907  1.00  0.00     0.189 HD
HETATM   24  C   UNL     1       7.447  30.877  59.470  1.00  0.00     0.062 A 
HETATM   25  C   UNL     1       6.738  31.021  58.294  1.00  0.00     0.062 A 
BRANCH  24  26
HETATM   26  C   UNL     1       7.429  31.643  60.714  1.00  0.00    -0.008 A 
HETATM   27  C   UNL     1       8.259  31.278  61.783  1.00  0.00     0.014 A 
HETATM   28  C   UNL     1       8.241  32.003  62.977  1.00  0.00     0.001 A 
HETATM   29  C   UNL     1       7.399  33.104  63.114  1.00  0.00     0.000 A 
HETATM   30  C   UNL     1       6.575  33.483  62.058  1.00  0.00     0.001 A 
HETATM   31  C   UNL     1       6.589  32.756  60.864  1.00  0.00     0.014 A 
ENDBRANCH  24  26
ENDBRANCH  19  20
ENDBRANCH   1  19
TORSDOF 5
ENDMDL
MODEL 5
REMARK VINA RESULT:      -9.2      1.712      8.640
REMARK  5 active torsions:
REMARK  status: ('A' for Active; 'I' for Inactive)
REMARK    1  A    between atoms: C_8  and  N_9 
REMARK    2  A    between atoms: C_12  and  N_13 
REMARK    3  A    between atoms: N_13  and  C_15 
REMARK    4  A    between atoms: C_15  and  C_16 
REMARK    5  A    between atoms: C_20  and  C_21 
ROOT
HETATM    1  N   UNL     1       5.585  28.152  55.274  1.00  0.00    -0.065 N 
HETATM    2  H   UNL     1       6.013  27.533  55.968  1.00  0.00     0.280 HD
HETATM    3  C   UNL     1       4.108  28.245  55.607  1.00  0.00     0.270 C 
ENDROOT
BRANCH   1   4
HETATM    4  C   UNL     1       5.833  27.567  53.866  1.00  0.00     0.191 C 
HETATM    5  C   UNL     1       7.307  27.226  53.603  1.00  0.00     0.053 C 
HETATM    6  C   UNL     1       7.774  25.986  54.362  1.00  0.00     0.126 C 
HETATM    7  N   UNL     1       6.892  24.865  54.022  1.00  0.00    -0.366 N 
HETATM    8  C   UNL     1       5.478  25.070  54.352  1.00  0.00     0.126 C 
HETATM    9  C   UNL     1       4.971  26.311  53.620  1.00  0.00     0.053 C 
BRANCH   7  10
HETATM   10  C   UNL     1       7.403  23.599  54.338  1.00  0.00     0.129 A 
HETATM   11  N   UNL     1       7.610  22.699  53.359  1.00  0.00    -0.218 NA
HETATM   12  C   UNL     1       8.024  21.456  53.711  1.00  0.00     0.102 A 
HETATM   13  N   UNL     1       8.226  21.083  54.982  1.00  0.00    -0.348 N 
HETATM   14  C   UNL     1       8.221  20.444  52.628  1.00  0.00     0.091 C 
HETATM   15  C   UNL     1       8.035  21.959  55.980  1.00  0.00     0.010 A 
HETATM   16  H   UNL     1       8.514  20.126  55.183  1.00  0.00     0.167 HD
HETATM   17  C   UNL     1       8.238  21.511  57.391  1.00  0.00     0.068 C 
HETATM   18  C   UNL     1       7.615  23.252  55.668  1.00  0.00     0.075 A 
ENDBRANCH   7  10
ENDBRANCH   1   4
BRANCH   1  19
HETATM   19  C   UNL     1       6.224  29.533  55.533  1.00  0.00     0.295 C 
BRANCH  19  20
HETATM   20  C   UNL     1       7.002  29.716  56.801  1.00  0.00     0.082 A 
HETATM   21  N   UNL     1       8.063  28.948  57.079  1.00  0.00    -0.177 NA
HETATM   22  N   UNL     1       8.469  29.376  58.293  1.00  0.00    -0.277 N 
HETATM   23  H   UNL     1       9.279  28.938  58.723  1.00  0.00     0.189 HD
HETATM   24  C   UNL     1       7.712  30.399  58.802  1.00  0.00     0.062 A 
HETATM   25  C   UNL     1       6.757  30.649  57.836  1.00  0.00     0.062 A 
BRANCH  24  26
HETATM   26  C   UNL     1       7.968  31.021  60.099  1.00  0.00    -0.008 A 
HETATM   27  C   UNL     1       7.118  32.025  60.583  1.00  0.00     0.014 A 
HETATM   28  C   UNL     1       7.361  32.628  61.818  1.00  0.00     0.001 A 
HETATM   29  C   UNL     1       8.452  32.231  62.588  1.00  0.00     0.000 A 
HETATM   30  C   UNL     1       9.301  31.229  62.123  1.00  0.00     0.001 A 
HETATM   31  C   UNL     1       9.060  30.627  60.885  1.00  0.00     0.014 A 
ENDBRANCH  24  26
ENDBRANCH  19  20
ENDBRANCH   1  19
TORSDOF 5
ENDMDL
MODEL 6
REMARK VINA RESULT:      -9.1      3.687      7.684
REMARK  5 active torsions:
REMARK  status: ('A' for Active; 'I' for Inactive)
REMARK    1  A    between atoms: C_8  and  N_9 
REMARK    2  A    between atoms: C_12  and  N_13 
REMARK    3  A    between atoms: N_13  and  C_15 
REMARK    4  A    between atoms: C_15  and  C_16 
REMARK    5  A    between atoms: C_20  and  C_21 
ROOT
HETATM    1  N   UNL     1       4.755  28.181  53.910  1.00  0.00    -0.065 N 
HETATM    2  H   UNL     1       4.207  27.432  53.478  1.00  0.00     0.280 HD
HETATM    3  C   UNL     1       4.061  28.553  55.207  1.00  0.00     0.270 C 
ENDROOT
BRANCH   1   4
HETATM    4  C   UNL     1       4.832  29.370  52.926  1.00  0.00     0.191 C 
HETATM    5  C   UNL     1       5.610  29.043  51.642  1.00  0.00     0.053 C 
HETATM    6  C   UNL     1       4.839  28.122  50.700  1.00  0.00     0.126 C 
HETATM    7  N   UNL     1       3.538  28.732  50.403  1.00  0.00    -0.366 N 
HETATM    8  C   UNL     1       2.687  28.970  51.572  1.00  0.00     0.126 C 
HETATM    9  C   UNL     1       3.426  29.881  52.550  1.00  0.00     0.053 C 
BRANCH   7  10
HETATM   10  C   UNL     1       2.884  28.203  49.283  1.00  0.00     0.129 A 
HETATM   11  N   UNL     1       3.193  26.967  48.851  1.00  0.00    -0.218 NA
HETATM   12  C   UNL     1       2.602  26.521  47.714  1.00  0.00     0.102 A 
HETATM   13  N   UNL     1       1.738  27.255  47.000  1.00  0.00    -0.348 N 
HETATM   14  C   UNL     1       2.971  25.161  47.213  1.00  0.00     0.091 C 
HETATM   15  C   UNL     1       1.405  28.489  47.407  1.00  0.00     0.010 A 
HETATM   16  H   UNL     1       1.347  26.872  46.140  1.00  0.00     0.167 HD
HETATM   17  C   UNL     1       0.462  29.300  46.580  1.00  0.00     0.068 C 
HETATM   18  C   UNL     1       1.981  28.990  48.575  1.00  0.00     0.075 A 
ENDBRANCH   7  10
ENDBRANCH   1   4
BRANCH   1  19
HETATM   19  C   UNL     1       6.109  27.528  54.259  1.00  0.00     0.295 C 
BRANCH  19  20
HETATM   20  C   UNL     1       6.296  26.081  53.916  1.00  0.00     0.082 A 
HETATM   21  N   UNL     1       5.633  25.520  52.897  1.00  0.00    -0.177 NA
HETATM   22  N   UNL     1       6.024  24.229  52.921  1.00  0.00    -0.277 N 
HETATM   23  H   UNL     1       5.652  23.589  52.225  1.00  0.00     0.189 HD
HETATM   24  C   UNL     1       6.924  23.941  53.913  1.00  0.00     0.062 A 
HETATM   25  C   UNL     1       7.129  25.141  54.567  1.00  0.00     0.062 A 
BRANCH  24  26
HETATM   26  C   UNL     1       7.488  22.611  54.129  1.00  0.00    -0.008 A 
HETATM   27  C   UNL     1       7.925  21.842  53.042  1.00  0.00     0.014 A 
HETATM   28  C   UNL     1       8.458  20.567  53.241  1.00  0.00     0.001 A 
HETATM   29  C   UNL     1       8.566  20.047  54.529  1.00  0.00     0.000 A 
HETATM   30  C   UNL     1       8.143  20.803  55.619  1.00  0.00     0.001 A 
HETATM   31  C   UNL     1       7.606  22.078  55.421  1.00  0.00     0.014 A 
ENDBRANCH  24  26
ENDBRANCH  19  20
ENDBRANCH   1  19
TORSDOF 5
ENDMDL
MODEL 7
REMARK VINA RESULT:      -9.0      1.517      2.193
REMARK  5 active torsions:
REMARK  status: ('A' for Active; 'I' for Inactive)
REMARK    1  A    between atoms: C_8  and  N_9 
REMARK    2  A    between atoms: C_12  and  N_13 
REMARK    3  A    between atoms: N_13  and  C_15 
REMARK    4  A    between atoms: C_15  and  C_16 
REMARK    5  A    between atoms: C_20  and  C_21 
ROOT
HETATM    1  N   UNL     1       6.204  28.613  54.264  1.00  0.00    -0.065 N 
HETATM    2  H   UNL     1       6.816  29.424  54.382  1.00  0.00     0.280 HD
HETATM    3  C   UNL     1       4.848  29.135  53.828  1.00  0.00     0.270 C 
ENDROOT
BRANCH   1   4
HETATM    4  C   UNL     1       6.132  27.845  55.603  1.00  0.00     0.191 C 
HETATM    5  C   UNL     1       7.442  27.902  56.403  1.00  0.00     0.053 C 
HETATM    6  C   UNL     1       7.696  29.269  57.031  1.00  0.00     0.126 C 
HETATM    7  N   UNL     1       6.540  29.630  57.861  1.00  0.00    -0.366 N 
HETATM    8  C   UNL     1       5.265  29.710  57.141  1.00  0.00     0.126 C 
HETATM    9  C   UNL     1       4.977  28.361  56.486  1.00  0.00     0.053 C 
BRANCH   7  10
HETATM   10  C   UNL     1       6.776  30.660  58.780  1.00  0.00     0.129 A 
HETATM   11  N   UNL     1       5.813  31.566  59.029  1.00  0.00    -0.218 NA
HETATM   12  C   UNL     1       6.106  32.598  59.859  1.00  0.00     0.102 A 
HETATM   13  N   UNL     1       7.306  32.762  60.430  1.00  0.00    -0.348 N 
HETATM   14  C   UNL     1       5.047  33.625  60.109  1.00  0.00     0.091 C 
HETATM   15  C   UNL     1       8.286  31.873  60.207  1.00  0.00     0.010 A 
HETATM   16  H   UNL     1       7.471  33.573  61.026  1.00  0.00     0.167 HD
HETATM   17  C   UNL     1       9.625  32.092  60.831  1.00  0.00     0.068 C 
HETATM   18  C   UNL     1       8.031  30.790  59.365  1.00  0.00     0.075 A 
ENDBRANCH   7  10
ENDBRANCH   1   4
BRANCH   1  19
HETATM   19  C   UNL     1       6.816  27.825  53.087  1.00  0.00     0.295 C 
BRANCH  19  20
HETATM   20  C   UNL     1       6.698  26.331  53.110  1.00  0.00     0.082 A 
HETATM   21  N   UNL     1       5.644  25.711  52.564  1.00  0.00    -0.177 NA
HETATM   22  N   UNL     1       5.869  24.403  52.808  1.00  0.00    -0.277 N 
HETATM   23  H   UNL     1       5.196  23.718  52.479  1.00  0.00     0.189 HD
HETATM   24  C   UNL     1       7.037  24.158  53.484  1.00  0.00     0.062 A 
HETATM   25  C   UNL     1       7.603  25.403  53.678  1.00  0.00     0.062 A 
BRANCH  24  26
HETATM   26  C   UNL     1       7.487  22.819  53.854  1.00  0.00    -0.008 A 
HETATM   27  C   UNL     1       7.530  22.433  55.201  1.00  0.00     0.014 A 
HETATM   28  C   UNL     1       7.967  21.156  55.561  1.00  0.00     0.001 A 
HETATM   29  C   UNL     1       8.359  20.248  54.581  1.00  0.00     0.000 A 
HETATM   30  C   UNL     1       8.313  20.615  53.238  1.00  0.00     0.001 A 
HETATM   31  C   UNL     1       7.880  21.894  52.876  1.00  0.00     0.014 A 
ENDBRANCH  24  26
ENDBRANCH  19  20
ENDBRANCH   1  19
TORSDOF 5
ENDMDL
MODEL 8
REMARK VINA RESULT:      -9.0      2.839      6.332
REMARK  5 active torsions:
REMARK  status: ('A' for Active; 'I' for Inactive)
REMARK    1  A    between atoms: C_8  and  N_9 
REMARK    2  A    between atoms: C_12  and  N_13 
REMARK    3  A    between atoms: N_13  and  C_15 
REMARK    4  A    between atoms: C_15  and  C_16 
REMARK    5  A    between atoms: C_20  and  C_21 
ROOT
HETATM    1  N   UNL     1       6.248  27.865  56.488  1.00  0.00    -0.065 N 
HETATM    2  H   UNL     1       5.794  27.095  55.990  1.00  0.00     0.280 HD
HETATM    3  C   UNL     1       5.206  28.485  57.399  1.00  0.00     0.270 C 
ENDROOT
BRANCH   1   4
HETATM    4  C   UNL     1       6.794  28.873  55.453  1.00  0.00     0.191 C 
HETATM    5  C   UNL     1       7.365  28.200  54.195  1.00  0.00     0.053 C 
HETATM    6  C   UNL     1       6.281  27.627  53.285  1.00  0.00     0.126 C 
HETATM    7  N   UNL     1       5.337  28.696  52.944  1.00  0.00    -0.366 N 
HETATM    8  C   UNL     1       4.662  29.313  54.090  1.00  0.00     0.126 C 
HETATM    9  C   UNL     1       5.713  29.892  55.035  1.00  0.00     0.053 C 
BRANCH   7  10
HETATM   10  C   UNL     1       4.518  28.426  51.840  1.00  0.00     0.129 A 
HETATM   11  N   UNL     1       4.924  27.546  50.907  1.00  0.00    -0.218 NA
HETATM   12  C   UNL     1       4.144  27.373  49.810  1.00  0.00     0.102 A 
HETATM   13  N   UNL     1       3.001  28.042  49.609  1.00  0.00    -0.348 N 
HETATM   14  C   UNL     1       4.611  26.420  48.755  1.00  0.00     0.091 C 
HETATM   15  C   UNL     1       2.567  28.922  50.524  1.00  0.00     0.010 A 
HETATM   16  H   UNL     1       2.473  27.885  48.752  1.00  0.00     0.167 HD
HETATM   17  C   UNL     1       1.305  29.679  50.265  1.00  0.00     0.068 C 
HETATM   18  C   UNL     1       3.330  29.130  51.673  1.00  0.00     0.075 A 
ENDBRANCH   7  10
ENDBRANCH   1   4
BRANCH   1  19
HETATM   19  C   UNL     1       7.317  27.188  57.372  1.00  0.00     0.295 C 
BRANCH  19  20
HETATM   20  C   UNL     1       7.734  25.793  57.017  1.00  0.00     0.082 A 
HETATM   21  N   UNL     1       8.579  25.104  57.794  1.00  0.00    -0.177 NA
HETATM   22  N   UNL     1       8.743  23.932  57.145  1.00  0.00    -0.277 N 
HETATM   23  H   UNL     1       9.350  23.225  57.551  1.00  0.00     0.189 HD
HETATM   24  C   UNL     1       8.024  23.838  55.982  1.00  0.00     0.062 A 
HETATM   25  C   UNL     1       7.345  25.037  55.886  1.00  0.00     0.062 A 
BRANCH  24  26
HETATM   26  C   UNL     1       8.044  22.662  55.116  1.00  0.00    -0.008 A 
HETATM   27  C   UNL     1       8.140  21.377  55.668  1.00  0.00     0.014 A 
HETATM   28  C   UNL     1       8.166  20.250  54.844  1.00  0.00     0.001 A 
HETATM   29  C   UNL     1       8.090  20.392  53.461  1.00  0.00     0.000 A 
HETATM   30  C   UNL     1       7.986  21.661  52.899  1.00  0.00     0.001 A 
HETATM   31  C   UNL     1       7.963  22.791  53.722  1.00  0.00     0.014 A 
ENDBRANCH  24  26
ENDBRANCH  19  20
ENDBRANCH   1  19
TORSDOF 5
ENDMDL
MODEL 9
REMARK VINA RESULT:      -9.0      1.928      3.281
REMARK  5 active torsions:
REMARK  status: ('A' for Active; 'I' for Inactive)
REMARK    1  A    between atoms: C_8  and  N_9 
REMARK    2  A    between atoms: C_12  and  N_13 
REMARK    3  A    between atoms: N_13  and  C_15 
REMARK    4  A    between atoms: C_15  and  C_16 
REMARK    5  A    between atoms: C_20  and  C_21 
ROOT
HETATM    1  N   UNL     1       5.756  28.015  55.930  1.00  0.00    -0.065 N 
HETATM    2  H   UNL     1       5.844  27.404  55.114  1.00  0.00     0.280 HD
HETATM    3  C   UNL     1       4.273  28.207  56.188  1.00  0.00     0.270 C 
ENDROOT
BRANCH   1   4
HETATM    4  C   UNL     1       6.475  29.350  55.633  1.00  0.00     0.191 C 
HETATM    5  C   UNL     1       5.740  30.573  56.201  1.00  0.00     0.053 C 
HETATM    6  C   UNL     1       5.852  30.681  57.719  1.00  0.00     0.126 C 
HETATM    7  N   UNL     1       7.272  30.685  58.088  1.00  0.00    -0.366 N 
HETATM    8  C   UNL     1       8.019  29.491  57.680  1.00  0.00     0.126 C 
HETATM    9  C   UNL     1       7.924  29.338  56.163  1.00  0.00     0.053 C 
BRANCH   7  10
HETATM   10  C   UNL     1       7.541  31.146  59.384  1.00  0.00     0.129 A 
HETATM   11  N   UNL     1       8.447  30.506  60.145  1.00  0.00    -0.218 NA
HETATM   12  C   UNL     1       8.619  30.928  61.424  1.00  0.00     0.102 A 
HETATM   13  N   UNL     1       7.924  31.939  61.962  1.00  0.00    -0.348 N 
HETATM   14  C   UNL     1       9.600  30.196  62.283  1.00  0.00     0.091 C 
HETATM   15  C   UNL     1       7.018  32.600  61.226  1.00  0.00     0.010 A 
HETATM   16  H   UNL     1       8.082  32.193  62.936  1.00  0.00     0.167 HD
HETATM   17  C   UNL     1       6.234  33.706  61.857  1.00  0.00     0.068 C 
HETATM   18  C   UNL     1       6.810  32.208  59.904  1.00  0.00     0.075 A 
ENDBRANCH   7  10
ENDBRANCH   1   4
BRANCH   1  19
HETATM   19  C   UNL     1       6.345  27.198  57.100  1.00  0.00     0.295 C 
BRANCH  19  20
HETATM   20  C   UNL     1       7.046  25.915  56.772  1.00  0.00     0.082 A 
HETATM   21  N   UNL     1       8.174  25.562  57.400  1.00  0.00    -0.177 NA
HETATM   22  N   UNL     1       8.521  24.392  56.823  1.00  0.00    -0.277 N 
HETATM   23  H   UNL     1       9.359  23.915  57.141  1.00  0.00     0.189 HD
HETATM   24  C   UNL     1       7.649  23.975  55.851  1.00  0.00     0.062 A 
HETATM   25  C   UNL     1       6.668  24.947  55.811  1.00  0.00     0.062 A 
BRANCH  24  26
HETATM   26  C   UNL     1       7.820  22.738  55.093  1.00  0.00    -0.008 A 
HETATM   27  C   UNL     1       7.963  21.513  55.759  1.00  0.00     0.014 A 
HETATM   28  C   UNL     1       8.133  20.328  55.040  1.00  0.00     0.001 A 
HETATM   29  C   UNL     1       8.157  20.352  53.648  1.00  0.00     0.000 A 
HETATM   30  C   UNL     1       8.008  21.560  52.973  1.00  0.00     0.001 A 
HETATM   31  C   UNL     1       7.840  22.748  53.691  1.00  0.00     0.014 A 
ENDBRANCH  24  26
ENDBRANCH  19  20
ENDBRANCH   1  19
TORSDOF 5
ENDMDL
MODEL 10
REMARK VINA RESULT:      -8.5      4.833      8.716
REMARK  5 active torsions:
REMARK  status: ('A' for Active; 'I' for Inactive)
REMARK    1  A    between atoms: C_8  and  N_9 
REMARK    2  A    between atoms: C_12  and  N_13 
REMARK    3  A    between atoms: N_13  and  C_15 
REMARK    4  A    between atoms: C_15  and  C_16 
REMARK    5  A    between atoms: C_20  and  C_21 
ROOT
HETATM    1  N   UNL     1       4.872  27.954  51.655  1.00  0.00    -0.065 N 
HETATM    2  H   UNL     1       3.969  28.414  51.514  1.00  0.00     0.280 HD
HETATM    3  C   UNL     1       5.799  28.972  52.292  1.00  0.00     0.270 C 
ENDROOT
BRANCH   1   4
HETATM    4  C   UNL     1       5.396  27.460  50.288  1.00  0.00     0.191 C 
HETATM    5  C   UNL     1       4.421  26.513  49.573  1.00  0.00     0.053 C 
HETATM    6  C   UNL     1       3.199  27.234  49.010  1.00  0.00     0.126 C 
HETATM    7  N   UNL     1       3.653  28.312  48.124  1.00  0.00    -0.366 N 
HETATM    8  C   UNL     1       4.498  29.323  48.765  1.00  0.00     0.126 C 
HETATM    9  C   UNL     1       5.732  28.641  49.354  1.00  0.00     0.053 C 
BRANCH   7  10
HETATM   10  C   UNL     1       2.672  28.812  47.258  1.00  0.00     0.129 A 
HETATM   11  N   UNL     1       2.840  30.018  46.684  1.00  0.00    -0.218 NA
HETATM   12  C   UNL     1       1.831  30.508  45.920  1.00  0.00     0.102 A 
HETATM   13  N   UNL     1       0.679  29.855  45.720  1.00  0.00    -0.348 N 
HETATM   14  C   UNL     1       2.002  31.863  45.310  1.00  0.00     0.091 C 
HETATM   15  C   UNL     1       0.483  28.648  46.273  1.00  0.00     0.010 A 
HETATM   16  H   UNL     1      -0.050  30.288  45.154  1.00  0.00     0.167 HD
HETATM   17  C   UNL     1      -0.821  27.952  46.060  1.00  0.00     0.068 C 
HETATM   18  C   UNL     1       1.494  28.099  47.063  1.00  0.00     0.075 A 
ENDBRANCH   7  10
ENDBRANCH   1   4
BRANCH   1  19
HETATM   19  C   UNL     1       4.592  26.845  52.691  1.00  0.00     0.295 C 
BRANCH  19  20
HETATM   20  C   UNL     1       5.710  25.906  53.029  1.00  0.00     0.082 A 
HETATM   21  N   UNL     1       6.981  26.326  53.058  1.00  0.00    -0.177 NA
HETATM   22  N   UNL     1       7.688  25.215  53.357  1.00  0.00    -0.277 N 
HETATM   23  H   UNL     1       8.698  25.282  53.442  1.00  0.00     0.189 HD
HETATM   24  C   UNL     1       6.914  24.097  53.531  1.00  0.00     0.062 A 
HETATM   25  C   UNL     1       5.616  24.529  53.337  1.00  0.00     0.062 A 
BRANCH  24  26
HETATM   26  C   UNL     1       7.461  22.784  53.862  1.00  0.00    -0.008 A 
HETATM   27  C   UNL     1       7.551  22.369  55.198  1.00  0.00     0.014 A 
HETATM   28  C   UNL     1       8.080  21.118  55.520  1.00  0.00     0.001 A 
HETATM   29  C   UNL     1       8.518  20.263  54.512  1.00  0.00     0.000 A 
HETATM   30  C   UNL     1       8.427  20.657  53.180  1.00  0.00     0.001 A 
HETATM   31  C   UNL     1       7.902  21.912  52.856  1.00  0.00     0.014 A 
ENDBRANCH  24  26
ENDBRANCH  19  20
ENDBRANCH   1  19
TORSDOF 5
ENDMDL
