MODEL 1
REMARK VINA RESULT:     -12.1      0.000      0.000
REMARK  5 active torsions:
REMARK  status: ('A' for Active; 'I' for Inactive)
REMARK    1  A    between atoms: C_4  and  N_5 
REMARK       I    between atoms: N_5  and  C_6 
REMARK    2  A    between atoms: C_6  and  C_7 
REMARK    3  A    between atoms: C_8  and  N_9 
REMARK    4  A    between atoms: N_10  and  N_11 
REMARK    5  A    between atoms: C_12  and  C_13 
ROOT
HETATM    1  C   UNL     1       5.523  25.233  53.104  1.00  0.00     0.105 C 
HETATM    2  C   UNL     1       5.348  26.226  54.063  1.00  0.00     0.123 C 
HETATM    3  N   UNL     1       6.247  26.021  55.100  1.00  0.00    -0.202 N 
HETATM    4  C   UNL     1       6.821  24.775  54.932  1.00  0.00     0.183 A 
HETATM    5  C   UNL     1       6.399  24.280  53.699  1.00  0.00     0.124 A 
HETATM    6  N   UNL     1       6.816  23.062  53.265  1.00  0.00    -0.242 NA
HETATM    7  C   UNL     1       7.579  22.375  54.129  1.00  0.00     0.086 A 
HETATM    8  C   UNL     1       7.975  22.899  55.386  1.00  0.00     0.088 A 
HETATM    9  N   UNL     1       7.626  24.126  55.806  1.00  0.00    -0.225 NA
HETATM   10  C   UNL     1       7.982  21.090  53.783  1.00  0.00     0.034 A 
HETATM   11  C   UNL     1       8.750  20.307  54.646  1.00  0.00     0.002 A 
HETATM   12  C   UNL     1       9.133  20.819  55.876  1.00  0.00     0.002 A 
HETATM   13  C   UNL     1       8.746  22.112  56.232  1.00  0.00     0.034 A 
ENDROOT
BRANCH   1  14
HETATM   14  C   UNL     1       4.909  25.186  51.772  1.00  0.00     0.262 C 
HETATM   15  N   UNL     1       5.019  26.388  51.093  1.00  0.00    -0.323 N 
HETATM   16  H   UNL     1       5.490  27.127  51.610  1.00  0.00     0.169 HD
HETATM   17  O   UNL     1       4.368  24.177  51.337  1.00  0.00    -0.267 OA
BRANCH  15  18
HETATM   18  C   UNL     1       4.565  26.733  49.811  1.00  0.00     0.036 A 
HETATM   19  C   UNL     1       3.863  25.873  48.967  1.00  0.00     0.036 A 
HETATM   20  C   UNL     1       3.465  26.300  47.689  1.00  0.00    -0.059 A 
HETATM   21  C   UNL     1       2.722  25.361  46.784  1.00  0.00     0.048 C 
HETATM   22  C   UNL     1       3.730  27.616  47.286  1.00  0.00     0.013 A 
HETATM   23  C   UNL     1       4.435  28.489  48.119  1.00  0.00    -0.059 A 
HETATM   24  C   UNL     1       4.856  28.033  49.374  1.00  0.00     0.036 A 
HETATM   25  C   UNL     1       4.675  29.912  47.715  1.00  0.00     0.048 C 
ENDBRANCH  15  18
ENDBRANCH   1  14
BRANCH   2  26
HETATM   26  N   UNL     1       4.509  27.313  54.096  1.00  0.00    -0.286 NA
HETATM   27  H   UNL     1       3.887  27.401  53.287  1.00  0.00     0.125 HD
HETATM   28  H   UNL     1       3.898  27.309  54.925  1.00  0.00     0.125 HD
ENDBRANCH   2  26
BRANCH   3  29
HETATM   29  N   UNL     1       6.365  26.931  56.119  1.00  0.00    -0.176 NA
HETATM   30  C   UNL     1       7.180  27.908  55.893  1.00  0.00     0.153 C 
BRANCH  30  31
HETATM   31  C   UNL     1       7.338  28.920  56.917  1.00  0.00     0.011 A 
HETATM   32  C   UNL     1       8.539  29.615  57.274  1.00  0.00     0.004 A 
HETATM   33  C   UNL     1       8.213  30.516  58.290  1.00  0.00     0.043 A 
HETATM   34  C   UNL     1       9.872  29.580  56.813  1.00  0.00     0.014 A 
HETATM   35  C   UNL     1       9.151  31.379  58.870  1.00  0.00     0.030 A 
HETATM   36  N   UNL     1       6.871  30.366  58.551  1.00  0.00    -0.364 N 
HETATM   37  C   UNL     1      10.463  31.325  58.393  1.00  0.00     0.002 A 
HETATM   38  C   UNL     1      10.821  30.440  57.379  1.00  0.00     0.001 A 
HETATM   39  H   UNL     1       6.360  30.894  59.245  1.00  0.00     0.165 HD
HETATM   40  C   UNL     1       6.332  29.419  57.725  1.00  0.00     0.102 A 
ENDBRANCH  30  31
ENDBRANCH   3  29
TORSDOF 5
ENDMDL
MODEL 2
REMARK VINA RESULT:     -12.0      1.523      2.085
REMARK  5 active torsions:
REMARK  status: ('A' for Active; 'I' for Inactive)
REMARK    1  A    between atoms: C_4  and  N_5 
REMARK       I    between atoms: N_5  and  C_6 
REMARK    2  A    between atoms: C_6  and  C_7 
REMARK    3  A    between atoms: C_8  and  N_9 
REMARK    4  A    between atoms: N_10  and  N_11 
REMARK    5  A    between atoms: C_12  and  C_13 
ROOT
HETATM    1  C   UNL     1       5.859  27.147  53.472  1.00  0.00     0.105 C 
HETATM    2  C   UNL     1       6.178  28.018  54.508  1.00  0.00     0.123 C 
HETATM    3  N   UNL     1       7.229  27.488  55.244  1.00  0.00    -0.202 N 
HETATM    4  C   UNL     1       7.418  26.180  54.839  1.00  0.00     0.183 A 
HETATM    5  C   UNL     1       6.594  25.955  53.738  1.00  0.00     0.124 A 
HETATM    6  N   UNL     1       6.578  24.744  53.123  1.00  0.00    -0.242 NA
HETATM    7  C   UNL     1       7.340  23.799  53.696  1.00  0.00     0.086 A 
HETATM    8  C   UNL     1       8.153  24.055  54.830  1.00  0.00     0.088 A 
HETATM    9  N   UNL     1       8.232  25.261  55.412  1.00  0.00    -0.225 NA
HETATM   10  C   UNL     1       7.315  22.515  53.165  1.00  0.00     0.034 A 
HETATM   11  C   UNL     1       8.058  21.476  53.729  1.00  0.00     0.002 A 
HETATM   12  C   UNL     1       8.850  21.726  54.840  1.00  0.00     0.002 A 
HETATM   13  C   UNL     1       8.894  23.014  55.376  1.00  0.00     0.034 A 
ENDROOT
BRANCH   1  14
HETATM   14  C   UNL     1       4.939  27.411  52.360  1.00  0.00     0.262 C 
HETATM   15  N   UNL     1       5.462  27.027  51.136  1.00  0.00    -0.323 N 
HETATM   16  H   UNL     1       6.400  26.636  51.178  1.00  0.00     0.169 HD
HETATM   17  O   UNL     1       3.836  27.914  52.529  1.00  0.00    -0.267 OA
BRANCH  15  18
HETATM   18  C   UNL     1       4.893  27.115  49.856  1.00  0.00     0.036 A 
HETATM   19  C   UNL     1       4.194  26.082  49.233  1.00  0.00     0.036 A 
HETATM   20  C   UNL     1       3.675  26.253  47.939  1.00  0.00    -0.059 A 
HETATM   21  C   UNL     1       2.937  25.130  47.274  1.00  0.00     0.048 C 
HETATM   22  C   UNL     1       3.819  27.490  47.296  1.00  0.00     0.013 A 
HETATM   23  C   UNL     1       4.519  28.535  47.905  1.00  0.00    -0.059 A 
HETATM   24  C   UNL     1       5.061  28.332  49.180  1.00  0.00     0.036 A 
HETATM   25  C   UNL     1       4.629  29.876  47.244  1.00  0.00     0.048 C 
ENDBRANCH  15  18
ENDBRANCH   1  14
BRANCH   2  26
HETATM   26  N   UNL     1       5.667  29.249  54.845  1.00  0.00    -0.286 NA
HETATM   27  H   UNL     1       5.176  29.279  55.743  1.00  0.00     0.125 HD
HETATM   28  H   UNL     1       6.398  29.973  54.897  1.00  0.00     0.125 HD
ENDBRANCH   2  26
BRANCH   3  29
HETATM   29  N   UNL     1       7.818  28.208  56.251  1.00  0.00    -0.176 NA
HETATM   30  C   UNL     1       8.762  29.006  55.878  1.00  0.00     0.153 C 
BRANCH  30  31
HETATM   31  C   UNL     1       9.415  29.816  56.887  1.00  0.00     0.011 A 
HETATM   32  C   UNL     1       8.791  30.573  57.931  1.00  0.00     0.004 A 
HETATM   33  C   UNL     1       9.809  31.169  58.678  1.00  0.00     0.043 A 
HETATM   34  C   UNL     1       7.454  30.790  58.327  1.00  0.00     0.014 A 
HETATM   35  C   UNL     1       9.558  31.973  59.796  1.00  0.00     0.030 A 
HETATM   36  N   UNL     1      11.003  30.802  58.104  1.00  0.00    -0.364 N 
HETATM   37  C   UNL     1       8.226  32.170  60.168  1.00  0.00     0.002 A 
HETATM   38  C   UNL     1       7.187  31.588  59.446  1.00  0.00     0.001 A 
HETATM   39  H   UNL     1      11.913  31.090  58.439  1.00  0.00     0.165 HD
HETATM   40  C   UNL     1      10.780  29.979  57.035  1.00  0.00     0.102 A 
ENDBRANCH  30  31
ENDBRANCH   3  29
TORSDOF 5
ENDMDL
MODEL 3
REMARK VINA RESULT:     -11.8      2.146      8.017
REMARK  5 active torsions:
REMARK  status: ('A' for Active; 'I' for Inactive)
REMARK    1  A    between atoms: C_4  and  N_5 
REMARK       I    between atoms: N_5  and  C_6 
REMARK    2  A    between atoms: C_6  and  C_7 
REMARK    3  A    between atoms: C_8  and  N_9 
REMARK    4  A    between atoms: N_10  and  N_11 
REMARK    5  A    between atoms: C_12  and  C_13 
ROOT
HETATM    1  C   UNL     1       7.493  26.661  55.804  1.00  0.00     0.105 C 
HETATM    2  C   UNL     1       7.341  27.244  54.550  1.00  0.00     0.123 C 
HETATM    3  N   UNL     1       7.101  26.250  53.611  1.00  0.00    -0.202 N 
HETATM    4  C   UNL     1       7.342  25.027  54.209  1.00  0.00     0.183 A 
HETATM    5  C   UNL     1       7.570  25.258  55.564  1.00  0.00     0.124 A 
HETATM    6  N   UNL     1       7.831  24.225  56.407  1.00  0.00    -0.242 NA
HETATM    7  C   UNL     1       7.921  23.019  55.824  1.00  0.00     0.086 A 
HETATM    8  C   UNL     1       7.703  22.820  54.437  1.00  0.00     0.088 A 
HETATM    9  N   UNL     1       7.381  23.818  53.600  1.00  0.00    -0.225 NA
HETATM   10  C   UNL     1       8.259  21.925  56.613  1.00  0.00     0.034 A 
HETATM   11  C   UNL     1       8.401  20.647  56.069  1.00  0.00     0.002 A 
HETATM   12  C   UNL     1       8.192  20.454  54.712  1.00  0.00     0.002 A 
HETATM   13  C   UNL     1       7.840  21.542  53.910  1.00  0.00     0.034 A 
ENDROOT
BRANCH   1  14
HETATM   14  C   UNL     1       7.574  27.362  57.090  1.00  0.00     0.262 C 
HETATM   15  N   UNL     1       7.411  28.731  56.961  1.00  0.00    -0.323 N 
HETATM   16  H   UNL     1       7.273  29.055  56.006  1.00  0.00     0.169 HD
HETATM   17  O   UNL     1       7.764  26.771  58.146  1.00  0.00    -0.267 OA
BRANCH  15  18
HETATM   18  C   UNL     1       7.423  29.728  57.948  1.00  0.00     0.036 A 
HETATM   19  C   UNL     1       8.355  29.801  58.982  1.00  0.00     0.036 A 
HETATM   20  C   UNL     1       8.277  30.826  59.939  1.00  0.00    -0.059 A 
HETATM   21  C   UNL     1       9.278  30.887  61.055  1.00  0.00     0.048 C 
HETATM   22  C   UNL     1       7.284  31.809  59.820  1.00  0.00     0.013 A 
HETATM   23  C   UNL     1       6.340  31.748  58.791  1.00  0.00    -0.059 A 
HETATM   24  C   UNL     1       6.412  30.697  57.869  1.00  0.00     0.036 A 
HETATM   25  C   UNL     1       5.310  32.825  58.628  1.00  0.00     0.048 C 
ENDBRANCH  15  18
ENDBRANCH   1  14
BRANCH   2  26
HETATM   26  N   UNL     1       7.350  28.560  54.158  1.00  0.00    -0.286 NA
HETATM   27  H   UNL     1       7.806  28.737  53.257  1.00  0.00     0.125 HD
HETATM   28  H   UNL     1       6.400  28.950  54.076  1.00  0.00     0.125 HD
ENDBRANCH   2  26
BRANCH   3  29
HETATM   29  N   UNL     1       6.795  26.567  52.313  1.00  0.00    -0.176 NA
HETATM   30  C   UNL     1       5.534  26.684  52.057  1.00  0.00     0.153 C 
BRANCH  30  31
HETATM   31  C   UNL     1       5.137  27.040  50.710  1.00  0.00     0.011 A 
HETATM   32  C   UNL     1       5.158  28.342  50.113  1.00  0.00     0.004 A 
HETATM   33  C   UNL     1       4.717  28.203  48.796  1.00  0.00     0.043 A 
HETATM   34  C   UNL     1       5.534  29.626  50.562  1.00  0.00     0.014 A 
HETATM   35  C   UNL     1       4.629  29.282  47.907  1.00  0.00     0.030 A 
HETATM   36  N   UNL     1       4.426  26.874  48.602  1.00  0.00    -0.364 N 
HETATM   37  C   UNL     1       5.009  30.542  48.376  1.00  0.00     0.002 A 
HETATM   38  C   UNL     1       5.455  30.714  49.684  1.00  0.00     0.001 A 
HETATM   39  H   UNL     1       4.083  26.482  47.735  1.00  0.00     0.165 HD
HETATM   40  C   UNL     1       4.685  26.163  49.741  1.00  0.00     0.102 A 
ENDBRANCH  30  31
ENDBRANCH   3  29
TORSDOF 5
ENDMDL
MODEL 4
REMARK VINA RESULT:     -11.8      2.019      8.408
REMARK  5 active torsions:
REMARK  status: ('A' for Active; 'I' for Inactive)
REMARK    1  A    between atoms: C_4  and  N_5 
REMARK       I    between atoms: N_5  and  C_6 
REMARK    2  A    between atoms: C_6  and  C_7 
REMARK    3  A    between atoms: C_8  and  N_9 
REMARK    4  A    between atoms: N_10  and  N_11 
REMARK    5  A    between atoms: C_12  and  C_13 
ROOT
HETATM    1  C   UNL     1       7.412  26.639  55.554  1.00  0.00     0.105 C 
HETATM    2  C   UNL     1       7.304  27.274  54.321  1.00  0.00     0.123 C 
HETATM    3  N   UNL     1       7.077  26.322  53.337  1.00  0.00    -0.202 N 
HETATM    4  C   UNL     1       7.284  25.073  53.891  1.00  0.00     0.183 A 
HETATM    5  C   UNL     1       7.476  25.247  55.260  1.00  0.00     0.124 A 
HETATM    6  N   UNL     1       7.699  24.176  56.067  1.00  0.00    -0.242 NA
HETATM    7  C   UNL     1       7.789  22.993  55.439  1.00  0.00     0.086 A 
HETATM    8  C   UNL     1       7.607  22.853  54.040  1.00  0.00     0.088 A 
HETATM    9  N   UNL     1       7.323  23.889  53.235  1.00  0.00    -0.225 NA
HETATM   10  C   UNL     1       8.089  21.864  56.192  1.00  0.00     0.034 A 
HETATM   11  C   UNL     1       8.229  20.607  55.602  1.00  0.00     0.002 A 
HETATM   12  C   UNL     1       8.055  20.472  54.232  1.00  0.00     0.002 A 
HETATM   13  C   UNL     1       7.740  21.595  53.466  1.00  0.00     0.034 A 
ENDROOT
BRANCH   1  14
HETATM   14  C   UNL     1       7.467  27.287  56.870  1.00  0.00     0.262 C 
HETATM   15  N   UNL     1       7.386  28.667  56.786  1.00  0.00    -0.323 N 
HETATM   16  H   UNL     1       7.316  29.033  55.840  1.00  0.00     0.169 HD
HETATM   17  O   UNL     1       7.570  26.648  57.909  1.00  0.00    -0.267 OA
BRANCH  15  18
HETATM   18  C   UNL     1       7.403  29.625  57.812  1.00  0.00     0.036 A 
HETATM   19  C   UNL     1       8.355  29.672  58.829  1.00  0.00     0.036 A 
HETATM   20  C   UNL     1       8.281  30.658  59.827  1.00  0.00    -0.059 A 
HETATM   21  C   UNL     1       9.303  30.690  60.925  1.00  0.00     0.048 C 
HETATM   22  C   UNL     1       7.272  31.629  59.765  1.00  0.00     0.013 A 
HETATM   23  C   UNL     1       6.309  31.594  58.754  1.00  0.00    -0.059 A 
HETATM   24  C   UNL     1       6.378  30.582  57.789  1.00  0.00     0.036 A 
HETATM   25  C   UNL     1       5.261  32.662  58.653  1.00  0.00     0.048 C 
ENDBRANCH  15  18
ENDBRANCH   1  14
BRANCH   2  26
HETATM   26  N   UNL     1       7.342  28.605  53.983  1.00  0.00    -0.286 NA
HETATM   27  H   UNL     1       6.582  29.170  54.373  1.00  0.00     0.125 HD
HETATM   28  H   UNL     1       8.217  29.059  54.284  1.00  0.00     0.125 HD
ENDBRANCH   2  26
BRANCH   3  29
HETATM   29  N   UNL     1       6.811  26.696  52.044  1.00  0.00    -0.176 NA
HETATM   30  C   UNL     1       5.574  26.968  51.793  1.00  0.00     0.153 C 
BRANCH  30  31
HETATM   31  C   UNL     1       5.223  27.392  50.452  1.00  0.00     0.011 A 
HETATM   32  C   UNL     1       4.490  26.650  49.470  1.00  0.00     0.004 A 
HETATM   33  C   UNL     1       4.367  27.462  48.341  1.00  0.00     0.043 A 
HETATM   34  C   UNL     1       3.897  25.370  49.442  1.00  0.00     0.014 A 
HETATM   35  C   UNL     1       3.687  27.059  47.186  1.00  0.00     0.030 A 
HETATM   36  N   UNL     1       5.011  28.645  48.619  1.00  0.00    -0.364 N 
HETATM   37  C   UNL     1       3.107  25.787  47.185  1.00  0.00     0.002 A 
HETATM   38  C   UNL     1       3.210  24.953  48.296  1.00  0.00     0.001 A 
HETATM   39  H   UNL     1       5.082  29.423  47.977  1.00  0.00     0.165 HD
HETATM   40  C   UNL     1       5.519  28.619  49.888  1.00  0.00     0.102 A 
ENDBRANCH  30  31
ENDBRANCH   3  29
TORSDOF 5
ENDMDL
MODEL 5
REMARK VINA RESULT:     -11.8      2.183      8.070
REMARK  5 active torsions:
REMARK  status: ('A' for Active; 'I' for Inactive)
REMARK    1  A    between atoms: C_4  and  N_5 
REMARK       I    between atoms: N_5  and  C_6 
REMARK    2  A    between atoms: C_6  and  C_7 
REMARK    3  A    between atoms: C_8  and  N_9 
REMARK    4  A    between atoms: N_10  and  N_11 
REMARK    5  A    between atoms: C_12  and  C_13 
ROOT
HETATM    1  C   UNL     1       7.481  26.748  55.918  1.00  0.00     0.105 C 
HETATM    2  C   UNL     1       7.337  27.297  54.648  1.00  0.00     0.123 C 
HETATM    3  N   UNL     1       7.098  26.279  53.736  1.00  0.00    -0.202 N 
HETATM    4  C   UNL     1       7.331  25.072  54.368  1.00  0.00     0.183 A 
HETATM    5  C   UNL     1       7.554  25.339  55.717  1.00  0.00     0.124 A 
HETATM    6  N   UNL     1       7.807  24.328  56.589  1.00  0.00    -0.242 NA
HETATM    7  C   UNL     1       7.895  23.106  56.040  1.00  0.00     0.086 A 
HETATM    8  C   UNL     1       7.683  22.870  54.657  1.00  0.00     0.088 A 
HETATM    9  N   UNL     1       7.368  23.847  53.792  1.00  0.00    -0.225 NA
HETATM   10  C   UNL     1       8.226  22.033  56.859  1.00  0.00     0.034 A 
HETATM   11  C   UNL     1       8.365  20.741  56.351  1.00  0.00     0.002 A 
HETATM   12  C   UNL     1       8.161  20.511  54.999  1.00  0.00     0.002 A 
HETATM   13  C   UNL     1       7.816  21.578  54.167  1.00  0.00     0.034 A 
ENDROOT
BRANCH   1  14
HETATM   14  C   UNL     1       7.560  27.484  57.185  1.00  0.00     0.262 C 
HETATM   15  N   UNL     1       7.263  28.828  57.039  1.00  0.00    -0.323 N 
HETATM   16  H   UNL     1       7.050  29.116  56.086  1.00  0.00     0.169 HD
HETATM   17  O   UNL     1       7.856  26.938  58.241  1.00  0.00    -0.267 OA
BRANCH  15  18
HETATM   18  C   UNL     1       7.231  29.845  58.005  1.00  0.00     0.036 A 
HETATM   19  C   UNL     1       6.274  30.859  58.049  1.00  0.00     0.036 A 
HETATM   20  C   UNL     1       6.332  31.849  59.044  1.00  0.00    -0.059 A 
HETATM   21  C   UNL     1       5.305  32.941  59.073  1.00  0.00     0.048 C 
HETATM   22  C   UNL     1       7.329  31.783  60.027  1.00  0.00     0.013 A 
HETATM   23  C   UNL     1       8.298  30.776  59.995  1.00  0.00    -0.059 A 
HETATM   24  C   UNL     1       8.245  29.819  58.973  1.00  0.00     0.036 A 
HETATM   25  C   UNL     1       9.334  30.670  61.073  1.00  0.00     0.048 C 
ENDBRANCH  15  18
ENDBRANCH   1  14
BRANCH   2  26
HETATM   26  N   UNL     1       7.353  28.603  54.220  1.00  0.00    -0.286 NA
HETATM   27  H   UNL     1       6.431  29.044  54.151  1.00  0.00     0.125 HD
HETATM   28  H   UNL     1       7.912  29.209  54.838  1.00  0.00     0.125 HD
ENDBRANCH   2  26
BRANCH   3  29
HETATM   29  N   UNL     1       6.798  26.562  52.428  1.00  0.00    -0.176 NA
HETATM   30  C   UNL     1       5.538  26.624  52.153  1.00  0.00     0.153 C 
BRANCH  30  31
HETATM   31  C   UNL     1       5.147  26.941  50.794  1.00  0.00     0.011 A 
HETATM   32  C   UNL     1       5.169  28.226  50.161  1.00  0.00     0.004 A 
HETATM   33  C   UNL     1       4.734  28.049  48.845  1.00  0.00     0.043 A 
HETATM   34  C   UNL     1       5.539  29.523  50.575  1.00  0.00     0.014 A 
HETATM   35  C   UNL     1       4.648  29.102  47.927  1.00  0.00     0.030 A 
HETATM   36  N   UNL     1       4.446  26.714  48.688  1.00  0.00    -0.364 N 
HETATM   37  C   UNL     1       5.023  30.376  48.362  1.00  0.00     0.002 A 
HETATM   38  C   UNL     1       5.463  30.585  49.667  1.00  0.00     0.001 A 
HETATM   39  H   UNL     1       4.109  26.297  47.831  1.00  0.00     0.165 HD
HETATM   40  C   UNL     1       4.701  26.036  49.847  1.00  0.00     0.102 A 
ENDBRANCH  30  31
ENDBRANCH   3  29
TORSDOF 5
ENDMDL
MODEL 6
REMARK VINA RESULT:     -11.4      1.924      2.606
REMARK  5 active torsions:
REMARK  status: ('A' for Active; 'I' for Inactive)
REMARK    1  A    between atoms: C_4  and  N_5 
REMARK       I    between atoms: N_5  and  C_6 
REMARK    2  A    between atoms: C_6  and  C_7 
REMARK    3  A    between atoms: C_8  and  N_9 
REMARK    4  A    between atoms: N_10  and  N_11 
REMARK    5  A    between atoms: C_12  and  C_13 
ROOT
HETATM    1  C   UNL     1       4.799  27.944  53.990  1.00  0.00     0.105 C 
HETATM    2  C   UNL     1       4.581  28.764  55.092  1.00  0.00     0.123 C 
HETATM    3  N   UNL     1       5.529  28.481  56.066  1.00  0.00    -0.202 N 
HETATM    4  C   UNL     1       6.193  27.326  55.696  1.00  0.00     0.183 A 
HETATM    5  C   UNL     1       5.768  26.988  54.413  1.00  0.00     0.124 A 
HETATM    6  N   UNL     1       6.264  25.888  53.788  1.00  0.00    -0.242 NA
HETATM    7  C   UNL     1       7.109  25.145  54.520  1.00  0.00     0.086 A 
HETATM    8  C   UNL     1       7.506  25.506  55.833  1.00  0.00     0.088 A 
HETATM    9  N   UNL     1       7.077  26.623  56.442  1.00  0.00    -0.225 NA
HETATM   10  C   UNL     1       7.598  23.965  53.973  1.00  0.00     0.034 A 
HETATM   11  C   UNL     1       8.455  23.127  54.689  1.00  0.00     0.002 A 
HETATM   12  C   UNL     1       8.841  23.479  55.974  1.00  0.00     0.002 A 
HETATM   13  C   UNL     1       8.366  24.668  56.531  1.00  0.00     0.034 A 
ENDROOT
BRANCH   1  14
HETATM   14  C   UNL     1       4.144  28.046  52.681  1.00  0.00     0.262 C 
HETATM   15  N   UNL     1       4.904  27.499  51.662  1.00  0.00    -0.323 N 
HETATM   16  H   UNL     1       5.802  27.121  51.956  1.00  0.00     0.169 HD
HETATM   17  O   UNL     1       3.043  28.564  52.540  1.00  0.00    -0.267 OA
BRANCH  15  18
HETATM   18  C   UNL     1       4.622  27.405  50.290  1.00  0.00     0.036 A 
HETATM   19  C   UNL     1       4.122  26.262  49.666  1.00  0.00     0.036 A 
HETATM   20  C   UNL     1       3.888  26.254  48.281  1.00  0.00    -0.059 A 
HETATM   21  C   UNL     1       3.363  25.014  47.618  1.00  0.00     0.048 C 
HETATM   22  C   UNL     1       4.111  27.419  47.535  1.00  0.00     0.013 A 
HETATM   23  C   UNL     1       4.615  28.571  48.145  1.00  0.00    -0.059 A 
HETATM   24  C   UNL     1       4.877  28.549  49.521  1.00  0.00     0.036 A 
HETATM   25  C   UNL     1       4.804  29.836  47.362  1.00  0.00     0.048 C 
ENDBRANCH  15  18
ENDBRANCH   1  14
BRANCH   2  26
HETATM   26  N   UNL     1       3.661  29.761  55.311  1.00  0.00    -0.286 NA
HETATM   27  H   UNL     1       3.081  29.995  54.500  1.00  0.00     0.125 HD
HETATM   28  H   UNL     1       3.005  29.527  56.070  1.00  0.00     0.125 HD
ENDBRANCH   2  26
BRANCH   3  29
HETATM   29  N   UNL     1       5.612  29.235  57.208  1.00  0.00    -0.176 NA
HETATM   30  C   UNL     1       6.287  30.331  57.097  1.00  0.00     0.153 C 
BRANCH  30  31
HETATM   31  C   UNL     1       6.398  31.189  58.259  1.00  0.00     0.011 A 
HETATM   32  C   UNL     1       7.411  31.155  59.271  1.00  0.00     0.004 A 
HETATM   33  C   UNL     1       7.130  32.181  60.176  1.00  0.00     0.043 A 
HETATM   34  C   UNL     1       8.557  30.362  59.493  1.00  0.00     0.014 A 
HETATM   35  C   UNL     1       7.933  32.451  61.291  1.00  0.00     0.030 A 
HETATM   36  N   UNL     1       5.986  32.806  59.740  1.00  0.00    -0.364 N 
HETATM   37  C   UNL     1       9.063  31.652  61.486  1.00  0.00     0.002 A 
HETATM   38  C   UNL     1       9.372  30.622  60.601  1.00  0.00     0.001 A 
HETATM   39  H   UNL     1       5.548  33.589  60.205  1.00  0.00     0.165 HD
HETATM   40  C   UNL     1       5.543  32.227  58.584  1.00  0.00     0.102 A 
ENDBRANCH  30  31
ENDBRANCH   3  29
TORSDOF 5
ENDMDL
MODEL 7
REMARK VINA RESULT:     -11.2      2.271      8.899
REMARK  5 active torsions:
REMARK  status: ('A' for Active; 'I' for Inactive)
REMARK    1  A    between atoms: C_4  and  N_5 
REMARK       I    between atoms: N_5  and  C_6 
REMARK    2  A    between atoms: C_6  and  C_7 
REMARK    3  A    between atoms: C_8  and  N_9 
REMARK    4  A    between atoms: N_10  and  N_11 
REMARK    5  A    between atoms: C_12  and  C_13 
ROOT
HETATM    1  C   UNL     1       5.484  28.590  55.185  1.00  0.00     0.105 C 
HETATM    2  C   UNL     1       5.664  27.336  55.760  1.00  0.00     0.123 C 
HETATM    3  N   UNL     1       5.880  26.401  54.758  1.00  0.00    -0.202 N 
HETATM    4  C   UNL     1       5.596  26.999  53.544  1.00  0.00     0.183 A 
HETATM    5  C   UNL     1       5.364  28.351  53.785  1.00  0.00     0.124 A 
HETATM    6  N   UNL     1       5.064  29.193  52.761  1.00  0.00    -0.242 NA
HETATM    7  C   UNL     1       4.941  28.612  51.558  1.00  0.00     0.086 A 
HETATM    8  C   UNL     1       5.164  27.227  51.349  1.00  0.00     0.088 A 
HETATM    9  N   UNL     1       5.524  26.391  52.336  1.00  0.00    -0.225 NA
HETATM   10  C   UNL     1       4.563  29.400  50.477  1.00  0.00     0.034 A 
HETATM   11  C   UNL     1       4.385  28.857  49.203  1.00  0.00     0.002 A 
HETATM   12  C   UNL     1       4.599  27.501  49.001  1.00  0.00     0.002 A 
HETATM   13  C   UNL     1       4.992  26.701  50.075  1.00  0.00     0.034 A 
ENDROOT
BRANCH   1  14
HETATM   14  C   UNL     1       5.414  29.874  55.891  1.00  0.00     0.262 C 
HETATM   15  N   UNL     1       6.000  29.825  57.144  1.00  0.00    -0.323 N 
HETATM   16  H   UNL     1       6.379  28.916  57.401  1.00  0.00     0.169 HD
HETATM   17  O   UNL     1       4.889  30.864  55.396  1.00  0.00    -0.267 OA
BRANCH  15  18
HETATM   18  C   UNL     1       6.132  30.836  58.108  1.00  0.00     0.036 A 
HETATM   19  C   UNL     1       5.090  31.657  58.535  1.00  0.00     0.036 A 
HETATM   20  C   UNL     1       5.320  32.659  59.492  1.00  0.00    -0.059 A 
HETATM   21  C   UNL     1       4.193  33.545  59.934  1.00  0.00     0.048 C 
HETATM   22  C   UNL     1       6.596  32.796  60.055  1.00  0.00     0.013 A 
HETATM   23  C   UNL     1       7.653  31.984  59.635  1.00  0.00    -0.059 A 
HETATM   24  C   UNL     1       7.412  31.015  58.653  1.00  0.00     0.036 A 
HETATM   25  C   UNL     1       9.006  32.091  60.273  1.00  0.00     0.048 C 
ENDBRANCH  15  18
ENDBRANCH   1  14
BRANCH   2  26
HETATM   26  N   UNL     1       5.699  26.941  57.076  1.00  0.00    -0.286 NA
HETATM   27  H   UNL     1       5.191  26.076  57.278  1.00  0.00     0.125 HD
HETATM   28  H   UNL     1       6.661  26.791  57.412  1.00  0.00     0.125 HD
ENDBRANCH   2  26
BRANCH   3  29
HETATM   29  N   UNL     1       6.207  25.104  55.063  1.00  0.00    -0.176 NA
HETATM   30  C   UNL     1       7.471  24.872  55.194  1.00  0.00     0.153 C 
BRANCH  30  31
HETATM   31  C   UNL     1       7.888  23.528  55.539  1.00  0.00     0.011 A 
HETATM   32  C   UNL     1       8.066  22.418  54.650  1.00  0.00     0.004 A 
HETATM   33  C   UNL     1       8.502  21.336  55.417  1.00  0.00     0.043 A 
HETATM   34  C   UNL     1       7.919  22.236  53.259  1.00  0.00     0.014 A 
HETATM   35  C   UNL     1       8.795  20.083  54.865  1.00  0.00     0.030 A 
HETATM   36  N   UNL     1       8.575  21.765  56.721  1.00  0.00    -0.364 N 
HETATM   37  C   UNL     1       8.642  19.931  53.484  1.00  0.00     0.002 A 
HETATM   38  C   UNL     1       8.211  20.991  52.691  1.00  0.00     0.001 A 
HETATM   39  H   UNL     1       8.863  21.187  57.500  1.00  0.00     0.165 HD
HETATM   40  C   UNL     1       8.220  23.082  56.806  1.00  0.00     0.102 A 
ENDBRANCH  30  31
ENDBRANCH   3  29
TORSDOF 5
ENDMDL
MODEL 8
REMARK VINA RESULT:     -11.1      3.229      8.173
REMARK  5 active torsions:
REMARK  status: ('A' for Active; 'I' for Inactive)
REMARK    1  A    between atoms: C_4  and  N_5 
REMARK       I    between atoms: N_5  and  C_6 
REMARK    2  A    between atoms: C_6  and  C_7 
REMARK    3  A    between atoms: C_8  and  N_9 
REMARK    4  A    between atoms: N_10  and  N_11 
REMARK    5  A    between atoms: C_12  and  C_13 
ROOT
HETATM    1  C   UNL     1       4.496  28.596  54.856  1.00  0.00     0.105 C 
HETATM    2  C   UNL     1       4.773  27.397  55.504  1.00  0.00     0.123 C 
HETATM    3  N   UNL     1       5.261  26.481  54.582  1.00  0.00    -0.202 N 
HETATM    4  C   UNL     1       5.067  27.002  53.317  1.00  0.00     0.183 A 
HETATM    5  C   UNL     1       4.611  28.310  53.465  1.00  0.00     0.124 A 
HETATM    6  N   UNL     1       4.339  29.075  52.375  1.00  0.00    -0.242 NA
HETATM    7  C   UNL     1       4.472  28.455  51.192  1.00  0.00     0.086 A 
HETATM    8  C   UNL     1       4.919  27.114  51.076  1.00  0.00     0.088 A 
HETATM    9  N   UNL     1       5.254  26.364  52.137  1.00  0.00    -0.225 NA
HETATM   10  C   UNL     1       4.139  29.152  50.036  1.00  0.00     0.034 A 
HETATM   11  C   UNL     1       4.223  28.561  48.775  1.00  0.00     0.002 A 
HETATM   12  C   UNL     1       4.657  27.248  48.663  1.00  0.00     0.002 A 
HETATM   13  C   UNL     1       5.006  26.540  49.814  1.00  0.00     0.034 A 
ENDROOT
BRANCH   1  14
HETATM   14  C   UNL     1       4.143  29.871  55.490  1.00  0.00     0.262 C 
HETATM   15  N   UNL     1       4.879  30.933  54.993  1.00  0.00    -0.323 N 
HETATM   16  H   UNL     1       5.560  30.683  54.280  1.00  0.00     0.169 HD
HETATM   17  O   UNL     1       3.284  29.953  56.359  1.00  0.00    -0.267 OA
BRANCH  15  18
HETATM   18  C   UNL     1       4.830  32.292  55.341  1.00  0.00     0.036 A 
HETATM   19  C   UNL     1       4.830  33.340  54.421  1.00  0.00     0.036 A 
HETATM   20  C   UNL     1       4.800  34.674  54.862  1.00  0.00    -0.059 A 
HETATM   21  C   UNL     1       4.813  35.793  53.864  1.00  0.00     0.048 C 
HETATM   22  C   UNL     1       4.716  34.945  56.235  1.00  0.00     0.013 A 
HETATM   23  C   UNL     1       4.719  33.906  57.169  1.00  0.00    -0.059 A 
HETATM   24  C   UNL     1       4.787  32.585  56.711  1.00  0.00     0.036 A 
HETATM   25  C   UNL     1       4.576  34.190  58.635  1.00  0.00     0.048 C 
ENDBRANCH  15  18
ENDBRANCH   1  14
BRANCH   2  26
HETATM   26  N   UNL     1       4.679  27.041  56.829  1.00  0.00    -0.286 NA
HETATM   27  H   UNL     1       4.186  26.161  57.004  1.00  0.00     0.125 HD
HETATM   28  H   UNL     1       5.604  26.941  57.272  1.00  0.00     0.125 HD
ENDBRANCH   2  26
BRANCH   3  29
HETATM   29  N   UNL     1       5.725  25.255  54.984  1.00  0.00    -0.176 NA
HETATM   30  C   UNL     1       7.009  25.160  55.087  1.00  0.00     0.153 C 
BRANCH  30  31
HETATM   31  C   UNL     1       7.570  23.899  55.529  1.00  0.00     0.011 A 
HETATM   32  C   UNL     1       7.827  22.736  54.733  1.00  0.00     0.004 A 
HETATM   33  C   UNL     1       8.395  21.774  55.573  1.00  0.00     0.043 A 
HETATM   34  C   UNL     1       7.653  22.415  53.370  1.00  0.00     0.014 A 
HETATM   35  C   UNL     1       8.792  20.511  55.120  1.00  0.00     0.030 A 
HETATM   36  N   UNL     1       8.467  22.325  56.830  1.00  0.00    -0.364 N 
HETATM   37  C   UNL     1       8.610  20.220  53.765  1.00  0.00     0.002 A 
HETATM   38  C   UNL     1       8.049  21.157  52.901  1.00  0.00     0.001 A 
HETATM   39  H   UNL     1       8.838  21.851  57.643  1.00  0.00     0.165 HD
HETATM   40  C   UNL     1       7.986  23.604  56.815  1.00  0.00     0.102 A 
ENDBRANCH  30  31
ENDBRANCH   3  29
TORSDOF 5
ENDMDL
MODEL 9
REMARK VINA RESULT:     -11.0      4.041      8.870
REMARK  5 active torsions:
REMARK  status: ('A' for Active; 'I' for Inactive)
REMARK    1  A    between atoms: C_4  and  N_5 
REMARK       I    between atoms: N_5  and  C_6 
REMARK    2  A    between atoms: C_6  and  C_7 
REMARK    3  A    between atoms: C_8  and  N_9 
REMARK    4  A    between atoms: N_10  and  N_11 
REMARK    5  A    between atoms: C_12  and  C_13 
ROOT
HETATM    1  C   UNL     1       5.981  30.638  56.500  1.00  0.00     0.105 C 
HETATM    2  C   UNL     1       6.547  29.528  55.882  1.00  0.00     0.123 C 
HETATM    3  N   UNL     1       7.369  28.871  56.788  1.00  0.00    -0.202 N 
HETATM    4  C   UNL     1       7.525  29.685  57.894  1.00  0.00     0.183 A 
HETATM    5  C   UNL     1       6.666  30.771  57.743  1.00  0.00     0.124 A 
HETATM    6  N   UNL     1       6.604  31.740  58.694  1.00  0.00    -0.242 NA
HETATM    7  C   UNL     1       7.466  31.600  59.713  1.00  0.00     0.086 A 
HETATM    8  C   UNL     1       8.343  30.490  59.828  1.00  0.00     0.088 A 
HETATM    9  N   UNL     1       8.373  29.491  58.932  1.00  0.00    -0.225 NA
HETATM   10  C   UNL     1       7.511  32.592  60.685  1.00  0.00     0.034 A 
HETATM   11  C   UNL     1       8.404  32.527  61.756  1.00  0.00     0.002 A 
HETATM   12  C   UNL     1       9.264  31.444  61.865  1.00  0.00     0.002 A 
HETATM   13  C   UNL     1       9.221  30.434  60.903  1.00  0.00     0.034 A 
ENDROOT
BRANCH   1  14
HETATM   14  C   UNL     1       4.917  31.492  55.961  1.00  0.00     0.262 C 
HETATM   15  N   UNL     1       4.948  32.774  56.482  1.00  0.00    -0.323 N 
HETATM   16  H   UNL     1       5.684  32.938  57.166  1.00  0.00     0.169 HD
HETATM   17  O   UNL     1       4.107  31.085  55.137  1.00  0.00    -0.267 OA
BRANCH  15  18
HETATM   18  C   UNL     1       4.108  33.866  56.216  1.00  0.00     0.036 A 
HETATM   19  C   UNL     1       3.017  34.230  57.004  1.00  0.00     0.036 A 
HETATM   20  C   UNL     1       2.218  35.329  56.648  1.00  0.00    -0.059 A 
HETATM   21  C   UNL     1       1.039  35.703  57.497  1.00  0.00     0.048 C 
HETATM   22  C   UNL     1       2.555  36.093  55.522  1.00  0.00     0.013 A 
HETATM   23  C   UNL     1       3.643  35.739  54.720  1.00  0.00    -0.059 A 
HETATM   24  C   UNL     1       4.405  34.618  55.070  1.00  0.00     0.036 A 
HETATM   25  C   UNL     1       4.039  36.583  53.545  1.00  0.00     0.048 C 
ENDBRANCH  15  18
ENDBRANCH   1  14
BRANCH   2  26
HETATM   26  N   UNL     1       6.380  29.013  54.619  1.00  0.00    -0.286 NA
HETATM   27  H   UNL     1       5.418  28.754  54.385  1.00  0.00     0.125 HD
HETATM   28  H   UNL     1       6.684  29.670  53.887  1.00  0.00     0.125 HD
ENDBRANCH   2  26
BRANCH   3  29
HETATM   29  N   UNL     1       7.954  27.673  56.467  1.00  0.00    -0.176 NA
HETATM   30  C   UNL     1       7.271  26.624  56.785  1.00  0.00     0.153 C 
BRANCH  30  31
HETATM   31  C   UNL     1       7.818  25.323  56.455  1.00  0.00     0.011 A 
HETATM   32  C   UNL     1       7.750  24.646  55.195  1.00  0.00     0.004 A 
HETATM   33  C   UNL     1       8.437  23.438  55.334  1.00  0.00     0.043 A 
HETATM   34  C   UNL     1       7.188  24.956  53.938  1.00  0.00     0.014 A 
HETATM   35  C   UNL     1       8.586  22.524  54.284  1.00  0.00     0.030 A 
HETATM   36  N   UNL     1       8.892  23.376  56.630  1.00  0.00    -0.364 N 
HETATM   37  C   UNL     1       8.022  22.856  53.050  1.00  0.00     0.002 A 
HETATM   38  C   UNL     1       7.333  24.054  52.877  1.00  0.00     0.001 A 
HETATM   39  H   UNL     1       9.425  22.607  57.014  1.00  0.00     0.165 HD
HETATM   40  C   UNL     1       8.538  24.507  57.310  1.00  0.00     0.102 A 
ENDBRANCH  30  31
ENDBRANCH   3  29
TORSDOF 5
ENDMDL
MODEL 10
REMARK VINA RESULT:     -11.0      2.870      6.614
REMARK  5 active torsions:
REMARK  status: ('A' for Active; 'I' for Inactive)
REMARK    1  A    between atoms: C_4  and  N_5 
REMARK       I    between atoms: N_5  and  C_6 
REMARK    2  A    between atoms: C_6  and  C_7 
REMARK    3  A    between atoms: C_8  and  N_9 
REMARK    4  A    between atoms: N_10  and  N_11 
REMARK    5  A    between atoms: C_12  and  C_13 
ROOT
HETATM    1  C   UNL     1       5.111  27.749  51.946  1.00  0.00     0.105 C 
HETATM    2  C   UNL     1       5.703  26.527  52.247  1.00  0.00     0.123 C 
HETATM    3  N   UNL     1       5.590  26.289  53.610  1.00  0.00    -0.202 N 
HETATM    4  C   UNL     1       5.154  27.453  54.214  1.00  0.00     0.183 A 
HETATM    5  C   UNL     1       4.839  28.359  53.205  1.00  0.00     0.124 A 
HETATM    6  N   UNL     1       4.375  29.600  53.510  1.00  0.00    -0.242 NA
HETATM    7  C   UNL     1       4.322  29.886  54.820  1.00  0.00     0.086 A 
HETATM    8  C   UNL     1       4.669  28.946  55.824  1.00  0.00     0.088 A 
HETATM    9  N   UNL     1       5.068  27.696  55.544  1.00  0.00    -0.225 NA
HETATM   10  C   UNL     1       3.927  31.162  55.205  1.00  0.00     0.034 A 
HETATM   11  C   UNL     1       3.879  31.539  56.548  1.00  0.00     0.002 A 
HETATM   12  C   UNL     1       4.223  30.620  57.529  1.00  0.00     0.002 A 
HETATM   13  C   UNL     1       4.609  29.331  57.157  1.00  0.00     0.034 A 
ENDROOT
BRANCH   1  14
HETATM   14  C   UNL     1       4.849  28.287  50.606  1.00  0.00     0.262 C 
HETATM   15  N   UNL     1       3.542  28.086  50.199  1.00  0.00    -0.323 N 
HETATM   16  H   UNL     1       2.959  27.589  50.868  1.00  0.00     0.169 HD
HETATM   17  O   UNL     1       5.715  28.850  49.948  1.00  0.00    -0.267 OA
BRANCH  15  18
HETATM   18  C   UNL     1       2.915  28.454  48.998  1.00  0.00     0.036 A 
HETATM   19  C   UNL     1       1.798  27.812  48.465  1.00  0.00     0.036 A 
HETATM   20  C   UNL     1       1.248  28.238  47.244  1.00  0.00    -0.059 A 
HETATM   21  C   UNL     1       0.054  27.531  46.674  1.00  0.00     0.048 C 
HETATM   22  C   UNL     1       1.800  29.347  46.588  1.00  0.00     0.013 A 
HETATM   23  C   UNL     1       2.922  29.998  47.107  1.00  0.00    -0.059 A 
HETATM   24  C   UNL     1       3.477  29.536  48.306  1.00  0.00     0.036 A 
HETATM   25  C   UNL     1       3.482  31.216  46.436  1.00  0.00     0.048 C 
ENDBRANCH  15  18
ENDBRANCH   1  14
BRANCH   2  26
HETATM   26  N   UNL     1       6.292  25.584  51.440  1.00  0.00    -0.286 NA
HETATM   27  H   UNL     1       5.867  25.485  50.513  1.00  0.00     0.125 HD
HETATM   28  H   UNL     1       7.290  25.780  51.276  1.00  0.00     0.125 HD
ENDBRANCH   2  26
BRANCH   3  29
HETATM   29  N   UNL     1       5.986  25.093  54.151  1.00  0.00    -0.176 NA
HETATM   30  C   UNL     1       7.181  25.079  54.641  1.00  0.00     0.153 C 
BRANCH  30  31
HETATM   31  C   UNL     1       7.659  23.855  55.250  1.00  0.00     0.011 A 
HETATM   32  C   UNL     1       7.935  22.609  54.597  1.00  0.00     0.004 A 
HETATM   33  C   UNL     1       8.400  21.723  55.571  1.00  0.00     0.043 A 
HETATM   34  C   UNL     1       7.856  22.157  53.263  1.00  0.00     0.014 A 
HETATM   35  C   UNL     1       8.785  20.409  55.280  1.00  0.00     0.030 A 
HETATM   36  N   UNL     1       8.394  22.396  56.770  1.00  0.00    -0.364 N 
HETATM   37  C   UNL     1       8.698  19.987  53.951  1.00  0.00     0.002 A 
HETATM   38  C   UNL     1       8.241  20.847  52.955  1.00  0.00     0.001 A 
HETATM   39  H   UNL     1       8.683  21.997  57.653  1.00  0.00     0.165 HD
HETATM   40  C   UNL     1       7.963  23.681  56.588  1.00  0.00     0.102 A 
ENDBRANCH  30  31
ENDBRANCH   3  29
TORSDOF 5
ENDMDL
