MODEL 1
REMARK VINA RESULT:      -8.4      0.000      0.000
REMARK  8 active torsions:
REMARK  status: ('A' for Active; 'I' for Inactive)
REMARK    1  A    between atoms: C_2  and  N_3 
REMARK    2  A    between atoms: C_2  and  C_17 
REMARK    3  A    between atoms: N_3  and  C_6 
REMARK    4  A    between atoms: C_6  and  C_7 
REMARK    5  A    between atoms: C_7  and  O_8 
REMARK    6  A    between atoms: C_7  and  C_9 
REMARK    7  A    between atoms: C_11  and  O_12 
REMARK    8  A    between atoms: C_17  and  C_18 
ROOT
HETATM    1  N   UNL     1       6.385  26.787  55.910  1.00  0.00    -0.068 N 
HETATM    2  H   UNL     1       5.504  26.422  56.296  1.00  0.00     0.277 HD
HETATM    3  H   UNL     1       7.109  26.171  56.324  1.00  0.00     0.277 HD
ENDROOT
BRANCH   1   4
HETATM    4  C   UNL     1       6.344  26.691  54.404  1.00  0.00     0.188 C 
HETATM    5  C   UNL     1       5.145  25.802  54.059  1.00  0.00     0.040 C 
BRANCH   4   6
HETATM    6  C   UNL     1       7.664  26.121  53.853  1.00  0.00     0.099 C 
BRANCH   6   7
HETATM    7  C   UNL     1       7.836  24.683  54.232  1.00  0.00     0.078 A 
HETATM    8  S   UNL     1       7.732  23.453  53.045  1.00  0.00    -0.073 SA
HETATM    9  C   UNL     1       8.041  22.262  54.251  1.00  0.00     0.035 A 
HETATM   10  C   UNL     1       8.191  22.897  55.487  1.00  0.00     0.074 A 
HETATM   11  C   UNL     1       8.144  20.868  54.116  1.00  0.00     0.021 A 
HETATM   12  N   UNL     1       8.063  24.280  55.461  1.00  0.00    -0.245 NA
HETATM   13  C   UNL     1       8.455  22.111  56.626  1.00  0.00     0.033 A 
HETATM   14  C   UNL     1       8.563  20.721  56.502  1.00  0.00     0.002 A 
HETATM   15  C   UNL     1       8.408  20.111  55.261  1.00  0.00     0.002 A 
ENDBRANCH   6   7
ENDBRANCH   4   6
ENDBRANCH   1   4
BRANCH   1  16
HETATM   16  C   UNL     1       6.612  28.155  56.512  1.00  0.00     0.269 C 
BRANCH  16  17
HETATM   17  C   UNL     1       7.611  27.992  57.679  1.00  0.00     0.177 C 
BRANCH  17  18
HETATM   18  O   UNL     1       8.198  26.684  57.560  1.00  0.00    -0.389 OA
HETATM   19  H   UNL     1       7.838  26.150  58.298  1.00  0.00     0.210 HD
ENDBRANCH  17  18
BRANCH  17  20
HETATM   20  C   UNL     1       8.660  29.075  57.693  1.00  0.00    -0.025 A 
HETATM   21  C   UNL     1       8.514  30.228  58.488  1.00  0.00     0.046 A 
HETATM   22  C   UNL     1       9.505  31.213  58.503  1.00  0.00     0.068 A 
HETATM   23  C   UNL     1      10.658  31.034  57.739  1.00  0.00     0.037 A 
HETATM   24  C   UNL     1      10.819  29.896  56.951  1.00  0.00     0.003 A 
HETATM   25  C   UNL     1       9.825  28.920  56.927  1.00  0.00     0.010 A 
BRANCH  22  26
HETATM   26  O   UNL     1       9.474  32.371  59.225  1.00  0.00    -0.356 OA
HETATM   27  C   UNL     1       8.541  32.452  60.295  1.00  0.00     0.210 C 
ENDBRANCH  22  26
ENDBRANCH  17  20
ENDBRANCH  16  17
ENDBRANCH   1  16
TORSDOF 8
ENDMDL
MODEL 2
REMARK VINA RESULT:      -8.0      2.213      5.374
REMARK  8 active torsions:
REMARK  status: ('A' for Active; 'I' for Inactive)
REMARK    1  A    between atoms: C_2  and  N_3 
REMARK    2  A    between atoms: C_2  and  C_17 
REMARK    3  A    between atoms: N_3  and  C_6 
REMARK    4  A    between atoms: C_6  and  C_7 
REMARK    5  A    between atoms: C_7  and  O_8 
REMARK    6  A    between atoms: C_7  and  C_9 
REMARK    7  A    between atoms: C_11  and  O_12 
REMARK    8  A    between atoms: C_17  and  C_18 
ROOT
HETATM    1  N   UNL     1       9.244  22.507  54.663  1.00  0.00    -0.068 N 
HETATM    2  H   UNL     1       9.731  21.639  54.925  1.00  0.00     0.277 HD
HETATM    3  H   UNL     1       9.860  22.925  53.940  1.00  0.00     0.277 HD
ENDROOT
BRANCH   1   4
HETATM    4  C   UNL     1       7.877  22.164  54.122  1.00  0.00     0.188 C 
HETATM    5  C   UNL     1       7.837  20.639  53.980  1.00  0.00     0.040 C 
BRANCH   4   6
HETATM    6  C   UNL     1       7.621  22.876  52.780  1.00  0.00     0.099 C 
BRANCH   6   7
HETATM    7  C   UNL     1       7.096  24.262  52.993  1.00  0.00     0.078 A 
HETATM    8  S   UNL     1       5.435  24.608  52.760  1.00  0.00    -0.073 SA
HETATM    9  C   UNL     1       5.714  26.250  53.201  1.00  0.00     0.035 A 
HETATM   10  C   UNL     1       7.073  26.418  53.485  1.00  0.00     0.074 A 
HETATM   11  C   UNL     1       4.801  27.312  53.289  1.00  0.00     0.021 A 
HETATM   12  N   UNL     1       7.850  25.275  53.355  1.00  0.00    -0.245 NA
HETATM   13  C   UNL     1       7.531  27.692  53.873  1.00  0.00     0.033 A 
HETATM   14  C   UNL     1       6.628  28.757  53.968  1.00  0.00     0.002 A 
HETATM   15  C   UNL     1       5.281  28.566  53.678  1.00  0.00     0.002 A 
ENDBRANCH   6   7
ENDBRANCH   4   6
ENDBRANCH   1   4
BRANCH   1  16
HETATM   16  C   UNL     1       9.307  23.440  55.849  1.00  0.00     0.269 C 
BRANCH  16  17
HETATM   17  C   UNL     1       7.960  23.334  56.599  1.00  0.00     0.177 C 
BRANCH  17  18
HETATM   18  O   UNL     1       8.206  22.614  57.820  1.00  0.00    -0.389 OA
HETATM   19  H   UNL     1       8.760  21.842  57.581  1.00  0.00     0.210 HD
ENDBRANCH  17  18
BRANCH  17  20
HETATM   20  C   UNL     1       7.342  24.683  56.863  1.00  0.00    -0.025 A 
HETATM   21  C   UNL     1       8.114  25.768  57.322  1.00  0.00     0.046 A 
HETATM   22  C   UNL     1       7.528  27.016  57.543  1.00  0.00     0.068 A 
HETATM   23  C   UNL     1       6.168  27.189  57.282  1.00  0.00     0.037 A 
HETATM   24  C   UNL     1       5.392  26.127  56.823  1.00  0.00     0.003 A 
HETATM   25  C   UNL     1       5.975  24.879  56.614  1.00  0.00     0.010 A 
BRANCH  22  26
HETATM   26  O   UNL     1       8.169  28.136  57.991  1.00  0.00    -0.356 OA
HETATM   27  C   UNL     1       9.133  28.727  57.130  1.00  0.00     0.210 C 
ENDBRANCH  22  26
ENDBRANCH  17  20
ENDBRANCH  16  17
ENDBRANCH   1  16
TORSDOF 8
ENDMDL
MODEL 3
REMARK VINA RESULT:      -8.0      4.415      7.410
REMARK  8 active torsions:
REMARK  status: ('A' for Active; 'I' for Inactive)
REMARK    1  A    between atoms: C_2  and  N_3 
REMARK    2  A    between atoms: C_2  and  C_17 
REMARK    3  A    between atoms: N_3  and  C_6 
REMARK    4  A    between atoms: C_6  and  C_7 
REMARK    5  A    between atoms: C_7  and  O_8 
REMARK    6  A    between atoms: C_7  and  C_9 
REMARK    7  A    between atoms: C_11  and  O_12 
REMARK    8  A    between atoms: C_17  and  C_18 
ROOT
HETATM    1  N   UNL     1       4.599  26.416  53.891  1.00  0.00    -0.068 N 
HETATM    2  H   UNL     1       4.721  25.443  53.580  1.00  0.00     0.277 HD
HETATM    3  H   UNL     1       3.570  26.522  53.968  1.00  0.00     0.277 HD
ENDROOT
BRANCH   1   4
HETATM    4  C   UNL     1       5.296  26.605  55.217  1.00  0.00     0.188 C 
HETATM    5  C   UNL     1       4.946  28.017  55.694  1.00  0.00     0.040 C 
BRANCH   4   6
HETATM    6  C   UNL     1       6.816  26.402  55.073  1.00  0.00     0.099 C 
BRANCH   6   7
HETATM    7  C   UNL     1       7.159  24.953  54.918  1.00  0.00     0.078 A 
HETATM    8  S   UNL     1       7.402  23.966  56.296  1.00  0.00    -0.073 SA
HETATM    9  C   UNL     1       7.697  22.611  55.274  1.00  0.00     0.035 A 
HETATM   10  C   UNL     1       7.599  23.019  53.941  1.00  0.00     0.074 A 
HETATM   11  C   UNL     1       7.993  21.283  55.624  1.00  0.00     0.021 A 
HETATM   12  N   UNL     1       7.298  24.361  53.754  1.00  0.00    -0.245 NA
HETATM   13  C   UNL     1       7.802  22.066  52.923  1.00  0.00     0.033 A 
HETATM   14  C   UNL     1       8.094  20.740  53.261  1.00  0.00     0.002 A 
HETATM   15  C   UNL     1       8.188  20.357  54.595  1.00  0.00     0.002 A 
ENDBRANCH   6   7
ENDBRANCH   4   6
ENDBRANCH   1   4
BRANCH   1  16
HETATM   16  C   UNL     1       5.022  27.314  52.751  1.00  0.00     0.269 C 
BRANCH  16  17
HETATM   17  C   UNL     1       5.424  26.407  51.567  1.00  0.00     0.177 C 
BRANCH  17  18
HETATM   18  O   UNL     1       4.739  25.154  51.735  1.00  0.00    -0.389 OA
HETATM   19  H   UNL     1       4.662  24.757  50.843  1.00  0.00     0.210 HD
ENDBRANCH  17  18
BRANCH  17  20
HETATM   20  C   UNL     1       5.117  27.035  50.232  1.00  0.00    -0.025 A 
HETATM   21  C   UNL     1       4.497  26.303  49.201  1.00  0.00     0.046 A 
HETATM   22  C   UNL     1       4.202  26.906  47.976  1.00  0.00     0.068 A 
HETATM   23  C   UNL     1       4.506  28.255  47.787  1.00  0.00     0.037 A 
HETATM   24  C   UNL     1       5.115  28.994  48.799  1.00  0.00     0.003 A 
HETATM   25  C   UNL     1       5.420  28.388  50.016  1.00  0.00     0.010 A 
BRANCH  22  26
HETATM   26  O   UNL     1       3.611  26.300  46.905  1.00  0.00    -0.356 OA
HETATM   27  C   UNL     1       2.809  25.155  47.159  1.00  0.00     0.210 C 
ENDBRANCH  22  26
ENDBRANCH  17  20
ENDBRANCH  16  17
ENDBRANCH   1  16
TORSDOF 8
ENDMDL
MODEL 4
REMARK VINA RESULT:      -8.0      5.043      8.311
REMARK  8 active torsions:
REMARK  status: ('A' for Active; 'I' for Inactive)
REMARK    1  A    between atoms: C_2  and  N_3 
REMARK    2  A    between atoms: C_2  and  C_17 
REMARK    3  A    between atoms: N_3  and  C_6 
REMARK    4  A    between atoms: C_6  and  C_7 
REMARK    5  A    between atoms: C_7  and  O_8 
REMARK    6  A    between atoms: C_7  and  C_9 
REMARK    7  A    between atoms: C_11  and  O_12 
REMARK    8  A    between atoms: C_17  and  C_18 
ROOT
HETATM    1  N   UNL     1       4.080  26.583  52.915  1.00  0.00    -0.068 N 
HETATM    2  H   UNL     1       3.288  26.620  53.571  1.00  0.00     0.277 HD
HETATM    3  H   UNL     1       3.627  26.595  51.983  1.00  0.00     0.277 HD
ENDROOT
BRANCH   1   4
HETATM    4  C   UNL     1       4.965  27.786  53.137  1.00  0.00     0.188 C 
HETATM    5  C   UNL     1       4.119  28.812  53.897  1.00  0.00     0.040 C 
BRANCH   4   6
HETATM    6  C   UNL     1       5.484  28.343  51.798  1.00  0.00     0.099 C 
BRANCH   6   7
HETATM    7  C   UNL     1       4.586  27.955  50.664  1.00  0.00     0.078 A 
HETATM    8  S   UNL     1       3.214  28.904  50.278  1.00  0.00    -0.073 SA
HETATM    9  C   UNL     1       2.839  27.834  48.981  1.00  0.00     0.035 A 
HETATM   10  C   UNL     1       3.793  26.813  48.945  1.00  0.00     0.074 A 
HETATM   11  C   UNL     1       1.779  27.893  48.061  1.00  0.00     0.021 A 
HETATM   12  N   UNL     1       4.780  26.892  49.918  1.00  0.00    -0.245 NA
HETATM   13  C   UNL     1       3.683  25.818  47.953  1.00  0.00     0.033 A 
HETATM   14  C   UNL     1       2.633  25.869  47.030  1.00  0.00     0.002 A 
HETATM   15  C   UNL     1       1.695  26.895  47.087  1.00  0.00     0.002 A 
ENDBRANCH   6   7
ENDBRANCH   4   6
ENDBRANCH   1   4
BRANCH   1  16
HETATM   16  C   UNL     1       4.717  25.220  53.048  1.00  0.00     0.269 C 
BRANCH  16  17
HETATM   17  C   UNL     1       5.750  25.296  54.194  1.00  0.00     0.177 C 
BRANCH  17  18
HETATM   18  O   UNL     1       5.015  25.391  55.427  1.00  0.00    -0.389 OA
HETATM   19  H   UNL     1       4.369  24.655  55.423  1.00  0.00     0.210 HD
ENDBRANCH  17  18
BRANCH  17  20
HETATM   20  C   UNL     1       6.693  24.119  54.197  1.00  0.00    -0.025 A 
HETATM   21  C   UNL     1       7.084  23.496  55.398  1.00  0.00     0.046 A 
HETATM   22  C   UNL     1       7.943  22.395  55.381  1.00  0.00     0.068 A 
HETATM   23  C   UNL     1       8.396  21.899  54.158  1.00  0.00     0.037 A 
HETATM   24  C   UNL     1       8.014  22.502  52.962  1.00  0.00     0.003 A 
HETATM   25  C   UNL     1       7.166  23.608  52.979  1.00  0.00     0.010 A 
BRANCH  22  26
HETATM   26  O   UNL     1       8.395  21.712  56.474  1.00  0.00    -0.356 OA
HETATM   27  C   UNL     1       9.107  20.504  56.245  1.00  0.00     0.210 C 
ENDBRANCH  22  26
ENDBRANCH  17  20
ENDBRANCH  16  17
ENDBRANCH   1  16
TORSDOF 8
ENDMDL
MODEL 5
REMARK VINA RESULT:      -7.9      3.165      8.892
REMARK  8 active torsions:
REMARK  status: ('A' for Active; 'I' for Inactive)
REMARK    1  A    between atoms: C_2  and  N_3 
REMARK    2  A    between atoms: C_2  and  C_17 
REMARK    3  A    between atoms: N_3  and  C_6 
REMARK    4  A    between atoms: C_6  and  C_7 
REMARK    5  A    between atoms: C_7  and  O_8 
REMARK    6  A    between atoms: C_7  and  C_9 
REMARK    7  A    between atoms: C_11  and  O_12 
REMARK    8  A    between atoms: C_17  and  C_18 
ROOT
HETATM    1  N   UNL     1       8.470  29.108  55.477  1.00  0.00    -0.068 N 
HETATM    2  H   UNL     1       7.941  29.778  54.903  1.00  0.00     0.277 HD
HETATM    3  H   UNL     1       9.229  28.790  54.846  1.00  0.00     0.277 HD
ENDROOT
BRANCH   1   4
HETATM    4  C   UNL     1       9.000  29.813  56.702  1.00  0.00     0.188 C 
HETATM    5  C   UNL     1      10.525  29.826  56.570  1.00  0.00     0.040 C 
BRANCH   4   6
HETATM    6  C   UNL     1       8.537  29.104  57.988  1.00  0.00     0.099 C 
BRANCH   6   7
HETATM    7  C   UNL     1       8.220  30.091  59.069  1.00  0.00     0.078 A 
HETATM    8  S   UNL     1       6.999  31.270  58.838  1.00  0.00    -0.073 SA
HETATM    9  C   UNL     1       7.285  31.878  60.424  1.00  0.00     0.035 A 
HETATM   10  C   UNL     1       8.312  31.135  61.016  1.00  0.00     0.074 A 
HETATM   11  C   UNL     1       6.650  32.933  61.098  1.00  0.00     0.021 A 
HETATM   12  N   UNL     1       8.840  30.123  60.226  1.00  0.00    -0.245 NA
HETATM   13  C   UNL     1       8.714  31.459  62.327  1.00  0.00     0.033 A 
HETATM   14  C   UNL     1       8.084  32.507  63.008  1.00  0.00     0.002 A 
HETATM   15  C   UNL     1       7.066  33.233  62.398  1.00  0.00     0.002 A 
ENDBRANCH   6   7
ENDBRANCH   4   6
ENDBRANCH   1   4
BRANCH   1  16
HETATM   16  C   UNL     1       7.586  27.903  55.698  1.00  0.00     0.269 C 
BRANCH  16  17
HETATM   17  C   UNL     1       6.932  27.547  54.344  1.00  0.00     0.177 C 
BRANCH  17  18
HETATM   18  O   UNL     1       7.378  28.522  53.385  1.00  0.00    -0.389 OA
HETATM   19  H   UNL     1       8.327  28.339  53.223  1.00  0.00     0.210 HD
ENDBRANCH  17  18
BRANCH  17  20
HETATM   20  C   UNL     1       7.253  26.143  53.902  1.00  0.00    -0.025 A 
HETATM   21  C   UNL     1       7.188  25.058  54.798  1.00  0.00     0.046 A 
HETATM   22  C   UNL     1       7.471  23.760  54.366  1.00  0.00     0.068 A 
HETATM   23  C   UNL     1       7.796  23.540  53.027  1.00  0.00     0.037 A 
HETATM   24  C   UNL     1       7.859  24.602  52.128  1.00  0.00     0.003 A 
HETATM   25  C   UNL     1       7.589  25.898  52.562  1.00  0.00     0.010 A 
BRANCH  22  26
HETATM   26  O   UNL     1       7.447  22.634  55.139  1.00  0.00    -0.356 OA
HETATM   27  C   UNL     1       7.889  21.422  54.545  1.00  0.00     0.210 C 
ENDBRANCH  22  26
ENDBRANCH  17  20
ENDBRANCH  16  17
ENDBRANCH   1  16
TORSDOF 8
ENDMDL
MODEL 6
REMARK VINA RESULT:      -7.9      3.338      8.687
REMARK  8 active torsions:
REMARK  status: ('A' for Active; 'I' for Inactive)
REMARK    1  A    between atoms: C_2  and  N_3 
REMARK    2  A    between atoms: C_2  and  C_17 
REMARK    3  A    between atoms: N_3  and  C_6 
REMARK    4  A    between atoms: C_6  and  C_7 
REMARK    5  A    between atoms: C_7  and  O_8 
REMARK    6  A    between atoms: C_7  and  C_9 
REMARK    7  A    between atoms: C_11  and  O_12 
REMARK    8  A    between atoms: C_17  and  C_18 
ROOT
HETATM    1  N   UNL     1       7.324  26.949  57.560  1.00  0.00    -0.068 N 
HETATM    2  H   UNL     1       8.211  27.140  57.076  1.00  0.00     0.277 HD
HETATM    3  H   UNL     1       7.586  26.952  58.563  1.00  0.00     0.277 HD
ENDROOT
BRANCH   1   4
HETATM    4  C   UNL     1       6.331  28.035  57.223  1.00  0.00     0.188 C 
HETATM    5  C   UNL     1       5.532  27.533  56.017  1.00  0.00     0.040 C 
BRANCH   4   6
HETATM    6  C   UNL     1       7.050  29.365  56.927  1.00  0.00     0.099 C 
BRANCH   6   7
HETATM    7  C   UNL     1       7.353  30.111  58.189  1.00  0.00     0.078 A 
HETATM    8  S   UNL     1       6.463  31.514  58.605  1.00  0.00    -0.073 SA
HETATM    9  C   UNL     1       7.382  31.668  60.054  1.00  0.00     0.035 A 
HETATM   10  C   UNL     1       8.320  30.632  60.108  1.00  0.00     0.074 A 
HETATM   11  C   UNL     1       7.283  32.634  61.068  1.00  0.00     0.021 A 
HETATM   12  N   UNL     1       8.295  29.755  59.032  1.00  0.00    -0.245 NA
HETATM   13  C   UNL     1       9.185  30.559  61.218  1.00  0.00     0.033 A 
HETATM   14  C   UNL     1       9.092  31.514  62.237  1.00  0.00     0.002 A 
HETATM   15  C   UNL     1       8.152  32.537  62.159  1.00  0.00     0.002 A 
ENDBRANCH   6   7
ENDBRANCH   4   6
ENDBRANCH   1   4
BRANCH   1  16
HETATM   16  C   UNL     1       6.930  25.525  57.241  1.00  0.00     0.269 C 
BRANCH  16  17
HETATM   17  C   UNL     1       8.216  24.758  56.859  1.00  0.00     0.177 C 
BRANCH  17  18
HETATM   18  O   UNL     1       8.425  23.748  57.862  1.00  0.00    -0.389 OA
HETATM   19  H   UNL     1       7.968  22.942  57.544  1.00  0.00     0.210 HD
ENDBRANCH  17  18
BRANCH  17  20
HETATM   20  C   UNL     1       8.141  24.164  55.476  1.00  0.00    -0.025 A 
HETATM   21  C   UNL     1       8.557  22.842  55.222  1.00  0.00     0.046 A 
HETATM   22  C   UNL     1       8.463  22.301  53.937  1.00  0.00     0.068 A 
HETATM   23  C   UNL     1       7.928  23.074  52.906  1.00  0.00     0.037 A 
HETATM   24  C   UNL     1       7.507  24.381  53.144  1.00  0.00     0.003 A 
HETATM   25  C   UNL     1       7.612  24.925  54.422  1.00  0.00     0.010 A 
BRANCH  22  26
HETATM   26  O   UNL     1       8.839  21.041  53.568  1.00  0.00    -0.356 OA
HETATM   27  C   UNL     1       8.790  20.025  54.561  1.00  0.00     0.210 C 
ENDBRANCH  22  26
ENDBRANCH  17  20
ENDBRANCH  16  17
ENDBRANCH   1  16
TORSDOF 8
ENDMDL
MODEL 7
REMARK VINA RESULT:      -7.9      3.279      8.807
REMARK  8 active torsions:
REMARK  status: ('A' for Active; 'I' for Inactive)
REMARK    1  A    between atoms: C_2  and  N_3 
REMARK    2  A    between atoms: C_2  and  C_17 
REMARK    3  A    between atoms: N_3  and  C_6 
REMARK    4  A    between atoms: C_6  and  C_7 
REMARK    5  A    between atoms: C_7  and  O_8 
REMARK    6  A    between atoms: C_7  and  C_9 
REMARK    7  A    between atoms: C_11  and  O_12 
REMARK    8  A    between atoms: C_17  and  C_18 
ROOT
HETATM    1  N   UNL     1       8.266  26.750  57.277  1.00  0.00    -0.068 N 
HETATM    2  H   UNL     1       8.721  26.895  56.366  1.00  0.00     0.277 HD
HETATM    3  H   UNL     1       9.055  26.528  57.913  1.00  0.00     0.277 HD
ENDROOT
BRANCH   1   4
HETATM    4  C   UNL     1       7.545  28.014  57.678  1.00  0.00     0.188 C 
HETATM    5  C   UNL     1       6.418  28.212  56.660  1.00  0.00     0.040 C 
BRANCH   4   6
HETATM    6  C   UNL     1       8.512  29.212  57.711  1.00  0.00     0.099 C 
BRANCH   6   7
HETATM    7  C   UNL     1       8.208  30.125  58.858  1.00  0.00     0.078 A 
HETATM    8  S   UNL     1       6.957  31.289  58.735  1.00  0.00    -0.073 SA
HETATM    9  C   UNL     1       7.278  31.805  60.347  1.00  0.00     0.035 A 
HETATM   10  C   UNL     1       8.336  31.051  60.862  1.00  0.00     0.074 A 
HETATM   11  C   UNL     1       6.642  32.804  61.101  1.00  0.00     0.021 A 
HETATM   12  N   UNL     1       8.861  30.100  59.997  1.00  0.00    -0.245 NA
HETATM   13  C   UNL     1       8.771  31.303  62.178  1.00  0.00     0.033 A 
HETATM   14  C   UNL     1       8.141  32.293  62.940  1.00  0.00     0.002 A 
HETATM   15  C   UNL     1       7.091  33.033  62.405  1.00  0.00     0.002 A 
ENDBRANCH   6   7
ENDBRANCH   4   6
ENDBRANCH   1   4
BRANCH   1  16
HETATM   16  C   UNL     1       7.446  25.485  57.178  1.00  0.00     0.269 C 
BRANCH  16  17
HETATM   17  C   UNL     1       8.408  24.329  56.824  1.00  0.00     0.177 C 
BRANCH  17  18
HETATM   18  O   UNL     1       8.274  23.331  57.852  1.00  0.00    -0.389 OA
HETATM   19  H   UNL     1       8.297  22.462  57.400  1.00  0.00     0.210 HD
ENDBRANCH  17  18
BRANCH  17  20
HETATM   20  C   UNL     1       8.142  23.759  55.455  1.00  0.00    -0.025 A 
HETATM   21  C   UNL     1       8.037  24.589  54.322  1.00  0.00     0.046 A 
HETATM   22  C   UNL     1       7.809  24.041  53.057  1.00  0.00     0.068 A 
HETATM   23  C   UNL     1       7.709  22.656  52.918  1.00  0.00     0.037 A 
HETATM   24  C   UNL     1       7.815  21.823  54.030  1.00  0.00     0.003 A 
HETATM   25  C   UNL     1       8.030  22.370  55.293  1.00  0.00     0.010 A 
BRANCH  22  26
HETATM   26  O   UNL     1       7.684  24.740  51.890  1.00  0.00    -0.356 OA
HETATM   27  C   UNL     1       6.562  25.602  51.760  1.00  0.00     0.210 C 
ENDBRANCH  22  26
ENDBRANCH  17  20
ENDBRANCH  16  17
ENDBRANCH   1  16
TORSDOF 8
ENDMDL
MODEL 8
REMARK VINA RESULT:      -7.8      1.671      2.367
REMARK  8 active torsions:
REMARK  status: ('A' for Active; 'I' for Inactive)
REMARK    1  A    between atoms: C_2  and  N_3 
REMARK    2  A    between atoms: C_2  and  C_17 
REMARK    3  A    between atoms: N_3  and  C_6 
REMARK    4  A    between atoms: C_6  and  C_7 
REMARK    5  A    between atoms: C_7  and  O_8 
REMARK    6  A    between atoms: C_7  and  C_9 
REMARK    7  A    between atoms: C_11  and  O_12 
REMARK    8  A    between atoms: C_17  and  C_18 
ROOT
HETATM    1  N   UNL     1       4.813  26.555  54.399  1.00  0.00    -0.068 N 
HETATM    2  H   UNL     1       3.836  26.239  54.325  1.00  0.00     0.277 HD
HETATM    3  H   UNL     1       5.171  26.052  55.232  1.00  0.00     0.277 HD
ENDROOT
BRANCH   1   4
HETATM    4  C   UNL     1       5.552  26.177  53.138  1.00  0.00     0.188 C 
HETATM    5  C   UNL     1       4.902  24.889  52.624  1.00  0.00     0.040 C 
BRANCH   4   6
HETATM    6  C   UNL     1       7.056  25.994  53.416  1.00  0.00     0.099 C 
BRANCH   6   7
HETATM    7  C   UNL     1       7.365  24.588  53.831  1.00  0.00     0.078 A 
HETATM    8  S   UNL     1       7.136  24.092  55.455  1.00  0.00    -0.073 SA
HETATM    9  C   UNL     1       7.665  22.505  55.044  1.00  0.00     0.035 A 
HETATM   10  C   UNL     1       7.992  22.473  53.685  1.00  0.00     0.074 A 
HETATM   11  C   UNL     1       7.783  21.369  55.862  1.00  0.00     0.021 A 
HETATM   12  N   UNL     1       7.822  23.673  53.008  1.00  0.00    -0.245 NA
HETATM   13  C   UNL     1       8.449  21.264  53.126  1.00  0.00     0.033 A 
HETATM   14  C   UNL     1       8.566  20.125  53.932  1.00  0.00     0.002 A 
HETATM   15  C   UNL     1       8.237  20.182  55.282  1.00  0.00     0.002 A 
ENDBRANCH   6   7
ENDBRANCH   4   6
ENDBRANCH   1   4
BRANCH   1  16
HETATM   16  C   UNL     1       4.790  28.018  54.777  1.00  0.00     0.269 C 
BRANCH  16  17
HETATM   17  C   UNL     1       4.756  28.102  56.320  1.00  0.00     0.177 C 
BRANCH  17  18
HETATM   18  O   UNL     1       4.390  26.800  56.810  1.00  0.00    -0.389 OA
HETATM   19  H   UNL     1       4.284  26.226  56.024  1.00  0.00     0.210 HD
ENDBRANCH  17  18
BRANCH  17  20
HETATM   20  C   UNL     1       6.067  28.568  56.899  1.00  0.00    -0.025 A 
HETATM   21  C   UNL     1       6.173  29.798  57.578  1.00  0.00     0.046 A 
HETATM   22  C   UNL     1       7.392  30.205  58.125  1.00  0.00     0.068 A 
HETATM   23  C   UNL     1       8.505  29.371  58.016  1.00  0.00     0.037 A 
HETATM   24  C   UNL     1       8.413  28.150  57.352  1.00  0.00     0.003 A 
HETATM   25  C   UNL     1       7.201  27.748  56.795  1.00  0.00     0.010 A 
BRANCH  22  26
HETATM   26  O   UNL     1       7.619  31.373  58.797  1.00  0.00    -0.356 OA
HETATM   27  C   UNL     1       8.946  31.628  59.236  1.00  0.00     0.210 C 
ENDBRANCH  22  26
ENDBRANCH  17  20
ENDBRANCH  16  17
ENDBRANCH   1  16
TORSDOF 8
ENDMDL
MODEL 9
REMARK VINA RESULT:      -7.8      3.125      8.111
REMARK  8 active torsions:
REMARK  status: ('A' for Active; 'I' for Inactive)
REMARK    1  A    between atoms: C_2  and  N_3 
REMARK    2  A    between atoms: C_2  and  C_17 
REMARK    3  A    between atoms: N_3  and  C_6 
REMARK    4  A    between atoms: C_6  and  C_7 
REMARK    5  A    between atoms: C_7  and  O_8 
REMARK    6  A    between atoms: C_7  and  C_9 
REMARK    7  A    between atoms: C_11  and  O_12 
REMARK    8  A    between atoms: C_17  and  C_18 
ROOT
HETATM    1  N   UNL     1       5.811  27.493  55.076  1.00  0.00    -0.068 N 
HETATM    2  H   UNL     1       5.769  26.782  55.818  1.00  0.00     0.277 HD
HETATM    3  H   UNL     1       5.025  28.130  55.302  1.00  0.00     0.277 HD
ENDROOT
BRANCH   1   4
HETATM    4  C   UNL     1       7.149  28.190  55.132  1.00  0.00     0.188 C 
HETATM    5  C   UNL     1       7.864  27.863  53.818  1.00  0.00     0.040 C 
BRANCH   4   6
HETATM    6  C   UNL     1       7.958  27.730  56.360  1.00  0.00     0.099 C 
BRANCH   6   7
HETATM    7  C   UNL     1       8.230  28.872  57.290  1.00  0.00     0.078 A 
HETATM    8  S   UNL     1       9.787  29.582  57.361  1.00  0.00    -0.073 SA
HETATM    9  C   UNL     1       9.223  30.699  58.546  1.00  0.00     0.035 A 
HETATM   10  C   UNL     1       7.876  30.436  58.812  1.00  0.00     0.074 A 
HETATM   11  C   UNL     1       9.920  31.731  59.194  1.00  0.00     0.021 A 
HETATM   12  N   UNL     1       7.325  29.385  58.091  1.00  0.00    -0.245 NA
HETATM   13  C   UNL     1       7.203  31.237  59.756  1.00  0.00     0.033 A 
HETATM   14  C   UNL     1       7.887  32.271  60.405  1.00  0.00     0.002 A 
HETATM   15  C   UNL     1       9.229  32.511  60.125  1.00  0.00     0.002 A 
ENDBRANCH   6   7
ENDBRANCH   4   6
ENDBRANCH   1   4
BRANCH   1  16
HETATM   16  C   UNL     1       5.435  26.817  53.778  1.00  0.00     0.269 C 
BRANCH  16  17
HETATM   17  C   UNL     1       5.084  25.347  54.100  1.00  0.00     0.177 C 
BRANCH  17  18
HETATM   18  O   UNL     1       4.100  24.923  53.140  1.00  0.00    -0.389 OA
HETATM   19  H   UNL     1       4.145  23.945  53.110  1.00  0.00     0.210 HD
ENDBRANCH  17  18
BRANCH  17  20
HETATM   20  C   UNL     1       6.296  24.452  54.089  1.00  0.00    -0.025 A 
HETATM   21  C   UNL     1       6.824  23.917  55.281  1.00  0.00     0.046 A 
HETATM   22  C   UNL     1       7.937  23.073  55.251  1.00  0.00     0.068 A 
HETATM   23  C   UNL     1       8.511  22.741  54.023  1.00  0.00     0.037 A 
HETATM   24  C   UNL     1       7.996  23.258  52.836  1.00  0.00     0.003 A 
HETATM   25  C   UNL     1       6.894  24.110  52.867  1.00  0.00     0.010 A 
BRANCH  22  26
HETATM   26  O   UNL     1       8.540  22.501  56.335  1.00  0.00    -0.356 OA
HETATM   27  C   UNL     1       8.732  21.094  56.311  1.00  0.00     0.210 C 
ENDBRANCH  22  26
ENDBRANCH  17  20
ENDBRANCH  16  17
ENDBRANCH   1  16
TORSDOF 8
ENDMDL
MODEL 10
REMARK VINA RESULT:      -7.8      2.318      4.486
REMARK  8 active torsions:
REMARK  status: ('A' for Active; 'I' for Inactive)
REMARK    1  A    between atoms: C_2  and  N_3 
REMARK    2  A    between atoms: C_2  and  C_17 
REMARK    3  A    between atoms: N_3  and  C_6 
REMARK    4  A    between atoms: C_6  and  C_7 
REMARK    5  A    between atoms: C_7  and  O_8 
REMARK    6  A    between atoms: C_7  and  C_9 
REMARK    7  A    between atoms: C_11  and  O_12 
REMARK    8  A    between atoms: C_17  and  C_18 
ROOT
HETATM    1  N   UNL     1       7.742  29.405  58.773  1.00  0.00    -0.068 N 
HETATM    2  H   UNL     1       6.727  29.374  58.938  1.00  0.00     0.277 HD
HETATM    3  H   UNL     1       8.148  29.249  59.715  1.00  0.00     0.277 HD
ENDROOT
BRANCH   1   4
HETATM    4  C   UNL     1       8.119  28.315  57.799  1.00  0.00     0.188 C 
HETATM    5  C   UNL     1       9.120  28.936  56.820  1.00  0.00     0.040 C 
BRANCH   4   6
HETATM    6  C   UNL     1       6.873  27.764  57.081  1.00  0.00     0.099 C 
BRANCH   6   7
HETATM    7  C   UNL     1       7.219  26.593  56.214  1.00  0.00     0.078 A 
HETATM    8  S   UNL     1       7.888  25.173  56.898  1.00  0.00    -0.073 SA
HETATM    9  C   UNL     1       7.937  24.443  55.338  1.00  0.00     0.035 A 
HETATM   10  C   UNL     1       7.444  25.352  54.397  1.00  0.00     0.074 A 
HETATM   11  C   UNL     1       8.378  23.161  54.972  1.00  0.00     0.021 A 
HETATM   12  N   UNL     1       7.045  26.579  54.912  1.00  0.00    -0.245 NA
HETATM   13  C   UNL     1       7.388  24.964  53.044  1.00  0.00     0.033 A 
HETATM   14  C   UNL     1       7.821  23.687  52.669  1.00  0.00     0.002 A 
HETATM   15  C   UNL     1       8.310  22.800  53.623  1.00  0.00     0.002 A 
ENDBRANCH   6   7
ENDBRANCH   4   6
ENDBRANCH   1   4
BRANCH   1  16
HETATM   16  C   UNL     1       8.099  30.824  58.399  1.00  0.00     0.269 C 
BRANCH  16  17
HETATM   17  C   UNL     1       9.083  31.357  59.465  1.00  0.00     0.177 C 
BRANCH  17  18
HETATM   18  O   UNL     1       9.927  32.326  58.820  1.00  0.00    -0.389 OA
HETATM   19  H   UNL     1       9.331  32.952  58.359  1.00  0.00     0.210 HD
ENDBRANCH  17  18
BRANCH  17  20
HETATM   20  C   UNL     1       8.374  31.941  60.659  1.00  0.00    -0.025 A 
HETATM   21  C   UNL     1       7.106  32.542  60.540  1.00  0.00     0.046 A 
HETATM   22  C   UNL     1       6.456  33.062  61.661  1.00  0.00     0.068 A 
HETATM   23  C   UNL     1       7.064  32.961  62.913  1.00  0.00     0.037 A 
HETATM   24  C   UNL     1       8.316  32.365  63.048  1.00  0.00     0.003 A 
HETATM   25  C   UNL     1       8.970  31.857  61.927  1.00  0.00     0.010 A 
BRANCH  22  26
HETATM   26  O   UNL     1       5.232  33.669  61.670  1.00  0.00    -0.356 OA
HETATM   27  C   UNL     1       4.146  32.948  62.235  1.00  0.00     0.210 C 
ENDBRANCH  22  26
ENDBRANCH  17  20
ENDBRANCH  16  17
ENDBRANCH   1  16
TORSDOF 8
ENDMDL
