MODEL 1
REMARK VINA RESULT:      -9.9      0.000      0.000
REMARK  6 active torsions:
REMARK  status: ('A' for Active; 'I' for Inactive)
REMARK    1  A    between atoms: C_2  and  O_3 
REMARK    2  A    between atoms: C_2  and  C_4 
REMARK    3  A    between atoms: C_6  and  N_7 
REMARK       I    between atoms: N_7  and  C_8 
REMARK    4  A    between atoms: C_8  and  C_9 
REMARK    5  A    between atoms: C_12  and  C_13 
REMARK    6  A    between atoms: C_18  and  C_19 
ROOT
HETATM    1  C   UNL     1       7.036  27.533  55.875  1.00  0.00     0.096 C 
HETATM    2  C   UNL     1       6.880  26.274  55.324  1.00  0.00     0.138 C 
HETATM    3  N   UNL     1       5.945  26.413  54.323  1.00  0.00    -0.240 N 
HETATM    4  C   UNL     1       5.437  25.318  53.517  1.00  0.00     0.221 C 
HETATM    5  C   UNL     1       6.369  24.098  53.621  1.00  0.00     0.068 C 
HETATM    6  C   UNL     1       6.772  23.852  55.079  1.00  0.00     0.143 C 
HETATM    7  N   UNL     1       7.434  25.061  55.605  1.00  0.00    -0.363 N 
HETATM    8  N   UNL     1       5.372  27.626  54.297  1.00  0.00    -0.181 NA
HETATM    9  C   UNL     1       6.056  28.313  55.215  1.00  0.00     0.160 C 
HETATM   10  H   UNL     1       7.755  24.903  56.564  1.00  0.00     0.162 HD
ENDROOT
BRANCH   1  11
HETATM   11  C   UNL     1       7.938  27.984  56.923  1.00  0.00     0.261 C 
HETATM   12  N   UNL     1       7.756  29.308  57.270  1.00  0.00    -0.323 N 
HETATM   13  H   UNL     1       6.951  29.760  56.849  1.00  0.00     0.169 HD
HETATM   14  O   UNL     1       8.740  27.207  57.428  1.00  0.00    -0.267 OA
BRANCH  12  15
HETATM   15  C   UNL     1       8.507  30.078  58.179  1.00  0.00     0.035 A 
HETATM   16  C   UNL     1       8.285  30.092  59.558  1.00  0.00     0.039 A 
HETATM   17  C   UNL     1       9.085  30.868  60.418  1.00  0.00    -0.028 A 
HETATM   18  C   UNL     1      10.125  31.628  59.867  1.00  0.00     0.010 A 
HETATM   19  C   UNL     1      10.353  31.623  58.493  1.00  0.00     0.003 A 
HETATM   20  C   UNL     1       9.549  30.852  57.653  1.00  0.00     0.029 A 
BRANCH  17  21
HETATM   21  C   UNL     1       8.825  30.831  61.909  1.00  0.00     0.147 C 
HETATM   22  C   UNL     1       7.422  31.322  62.242  1.00  0.00     0.044 C 
BRANCH  21  23
HETATM   23  O   UNL     1       8.981  29.504  62.412  1.00  0.00    -0.391 OA
HETATM   24  H   UNL     1       8.194  29.005  62.140  1.00  0.00     0.210 HD
ENDBRANCH  21  23
ENDBRANCH  17  21
ENDBRANCH  12  15
ENDBRANCH   1  11
BRANCH   4  25
HETATM   25  C   UNL     1       5.276  25.711  52.065  1.00  0.00     0.409 C 
HETATM   26  F   UNL     1       6.465  25.853  51.435  1.00  0.00    -0.169 F 
HETATM   27  F   UNL     1       4.604  24.729  51.401  1.00  0.00    -0.169 F 
HETATM   28  F   UNL     1       4.561  26.839  51.883  1.00  0.00    -0.169 F 
ENDBRANCH   4  25
BRANCH   6  29
HETATM   29  C   UNL     1       7.632  22.632  55.172  1.00  0.00     0.075 A 
HETATM   30  O   UNL     1       8.034  22.267  56.424  1.00  0.00    -0.325 OA
HETATM   31  C   UNL     1       8.786  21.145  56.288  1.00  0.00     0.142 A 
HETATM   32  C   UNL     1       8.873  20.781  54.964  1.00  0.00     0.027 A 
HETATM   33  C   UNL     1       8.127  21.742  54.241  1.00  0.00     0.037 A 
ENDBRANCH   6  29
TORSDOF 6
ENDMDL
MODEL 2
REMARK VINA RESULT:      -9.6      3.063      8.233
REMARK  6 active torsions:
REMARK  status: ('A' for Active; 'I' for Inactive)
REMARK    1  A    between atoms: C_2  and  O_3 
REMARK    2  A    between atoms: C_2  and  C_4 
REMARK    3  A    between atoms: C_6  and  N_7 
REMARK       I    between atoms: N_7  and  C_8 
REMARK    4  A    between atoms: C_8  and  C_9 
REMARK    5  A    between atoms: C_12  and  C_13 
REMARK    6  A    between atoms: C_18  and  C_19 
ROOT
HETATM    1  C   UNL     1       6.421  28.342  56.145  1.00  0.00     0.096 C 
HETATM    2  C   UNL     1       6.541  29.409  57.017  1.00  0.00     0.138 C 
HETATM    3  N   UNL     1       5.482  30.244  56.739  1.00  0.00    -0.240 N 
HETATM    4  C   UNL     1       5.253  31.523  57.387  1.00  0.00     0.221 C 
HETATM    5  C   UNL     1       6.068  31.617  58.690  1.00  0.00     0.068 C 
HETATM    6  C   UNL     1       7.499  31.117  58.466  1.00  0.00     0.143 C 
HETATM    7  N   UNL     1       7.452  29.726  57.980  1.00  0.00    -0.363 N 
HETATM    8  N   UNL     1       4.788  29.877  55.651  1.00  0.00    -0.181 NA
HETATM    9  C   UNL     1       5.337  28.707  55.312  1.00  0.00     0.160 C 
HETATM   10  H   UNL     1       8.400  29.354  57.868  1.00  0.00     0.162 HD
ENDROOT
BRANCH   1  11
HETATM   11  C   UNL     1       7.227  27.136  56.036  1.00  0.00     0.261 C 
HETATM   12  N   UNL     1       6.791  26.274  55.049  1.00  0.00    -0.323 N 
HETATM   13  H   UNL     1       6.055  26.635  54.453  1.00  0.00     0.169 HD
HETATM   14  O   UNL     1       8.203  26.974  56.759  1.00  0.00    -0.267 OA
BRANCH  12  15
HETATM   15  C   UNL     1       7.287  24.994  54.735  1.00  0.00     0.035 A 
HETATM   16  C   UNL     1       7.423  23.960  55.665  1.00  0.00     0.039 A 
HETATM   17  C   UNL     1       7.906  22.694  55.284  1.00  0.00    -0.028 A 
HETATM   18  C   UNL     1       8.243  22.478  53.942  1.00  0.00     0.010 A 
HETATM   19  C   UNL     1       8.114  23.503  53.007  1.00  0.00     0.003 A 
HETATM   20  C   UNL     1       7.638  24.754  53.401  1.00  0.00     0.029 A 
BRANCH  17  21
HETATM   21  C   UNL     1       8.010  21.597  56.322  1.00  0.00     0.147 C 
HETATM   22  C   UNL     1       9.122  20.612  55.980  1.00  0.00     0.044 C 
BRANCH  21  23
HETATM   23  O   UNL     1       8.264  22.149  57.613  1.00  0.00    -0.391 OA
HETATM   24  H   UNL     1       7.404  22.402  57.985  1.00  0.00     0.210 HD
ENDBRANCH  21  23
ENDBRANCH  17  21
ENDBRANCH  12  15
ENDBRANCH   1  11
BRANCH   4  25
HETATM   25  C   UNL     1       3.788  31.752  57.687  1.00  0.00     0.409 C 
HETATM   26  F   UNL     1       3.166  30.625  58.103  1.00  0.00    -0.169 F 
HETATM   27  F   UNL     1       3.669  32.654  58.701  1.00  0.00    -0.169 F 
HETATM   28  F   UNL     1       3.095  32.263  56.650  1.00  0.00    -0.169 F 
ENDBRANCH   4  25
BRANCH   6  29
HETATM   29  C   UNL     1       8.294  31.266  59.724  1.00  0.00     0.075 A 
HETATM   30  O   UNL     1       8.660  30.111  60.351  1.00  0.00    -0.325 OA
HETATM   31  C   UNL     1       9.373  30.465  61.451  1.00  0.00     0.142 A 
HETATM   32  C   UNL     1       9.472  31.834  61.541  1.00  0.00     0.027 A 
HETATM   33  C   UNL     1       8.775  32.354  60.424  1.00  0.00     0.037 A 
ENDBRANCH   6  29
TORSDOF 6
ENDMDL
MODEL 3
REMARK VINA RESULT:      -9.6      4.152      9.141
REMARK  6 active torsions:
REMARK  status: ('A' for Active; 'I' for Inactive)
REMARK    1  A    between atoms: C_2  and  O_3 
REMARK    2  A    between atoms: C_2  and  C_4 
REMARK    3  A    between atoms: C_6  and  N_7 
REMARK       I    between atoms: N_7  and  C_8 
REMARK    4  A    between atoms: C_8  and  C_9 
REMARK    5  A    between atoms: C_12  and  C_13 
REMARK    6  A    between atoms: C_18  and  C_19 
ROOT
HETATM    1  C   UNL     1       5.807  25.684  53.545  1.00  0.00     0.096 C 
HETATM    2  C   UNL     1       6.318  26.026  54.784  1.00  0.00     0.138 C 
HETATM    3  N   UNL     1       6.885  24.878  55.288  1.00  0.00    -0.240 N 
HETATM    4  C   UNL     1       7.492  24.772  56.603  1.00  0.00     0.221 C 
HETATM    5  C   UNL     1       7.804  26.170  57.164  1.00  0.00     0.068 C 
HETATM    6  C   UNL     1       6.619  27.116  56.942  1.00  0.00     0.143 C 
HETATM    7  N   UNL     1       6.324  27.187  55.499  1.00  0.00    -0.363 N 
HETATM    8  N   UNL     1       6.635  23.791  54.543  1.00  0.00    -0.181 NA
HETATM    9  C   UNL     1       6.011  24.285  53.471  1.00  0.00     0.160 C 
HETATM   10  H   UNL     1       5.565  27.851  55.322  1.00  0.00     0.162 HD
ENDROOT
BRANCH   1  11
HETATM   11  C   UNL     1       5.155  26.517  52.546  1.00  0.00     0.261 C 
HETATM   12  N   UNL     1       5.287  26.032  51.260  1.00  0.00    -0.323 N 
HETATM   13  H   UNL     1       5.705  25.112  51.184  1.00  0.00     0.169 HD
HETATM   14  O   UNL     1       4.542  27.523  52.880  1.00  0.00    -0.267 OA
BRANCH  12  15
HETATM   15  C   UNL     1       4.854  26.629  50.059  1.00  0.00     0.035 A 
HETATM   16  C   UNL     1       3.810  26.133  49.275  1.00  0.00     0.039 A 
HETATM   17  C   UNL     1       3.410  26.788  48.094  1.00  0.00    -0.028 A 
HETATM   18  C   UNL     1       4.075  27.962  47.717  1.00  0.00     0.010 A 
HETATM   19  C   UNL     1       5.120  28.462  48.490  1.00  0.00     0.003 A 
HETATM   20  C   UNL     1       5.507  27.800  49.656  1.00  0.00     0.029 A 
BRANCH  17  21
HETATM   21  C   UNL     1       2.255  26.229  47.290  1.00  0.00     0.147 C 
HETATM   22  C   UNL     1       1.325  27.337  46.808  1.00  0.00     0.044 C 
BRANCH  21  23
HETATM   23  O   UNL     1       2.735  25.505  46.158  1.00  0.00    -0.391 OA
HETATM   24  H   UNL     1       2.237  24.673  46.124  1.00  0.00     0.210 HD
ENDBRANCH  21  23
ENDBRANCH  17  21
ENDBRANCH  12  15
ENDBRANCH   1  11
BRANCH   4  25
HETATM   25  C   UNL     1       8.755  23.940  56.578  1.00  0.00     0.409 C 
HETATM   26  F   UNL     1       9.261  23.811  55.330  1.00  0.00    -0.169 F 
HETATM   27  F   UNL     1       9.717  24.556  57.321  1.00  0.00    -0.169 F 
HETATM   28  F   UNL     1       8.607  22.709  57.106  1.00  0.00    -0.169 F 
ENDBRANCH   4  25
BRANCH   6  29
HETATM   29  C   UNL     1       6.915  28.454  57.541  1.00  0.00     0.075 A 
HETATM   30  O   UNL     1       8.052  28.546  58.290  1.00  0.00    -0.325 OA
HETATM   31  C   UNL     1       8.138  29.828  58.726  1.00  0.00     0.142 A 
HETATM   32  C   UNL     1       7.071  30.566  58.266  1.00  0.00     0.027 A 
HETATM   33  C   UNL     1       6.280  29.678  57.500  1.00  0.00     0.037 A 
ENDBRANCH   6  29
TORSDOF 6
ENDMDL
MODEL 4
REMARK VINA RESULT:      -9.5      2.677      4.572
REMARK  6 active torsions:
REMARK  status: ('A' for Active; 'I' for Inactive)
REMARK    1  A    between atoms: C_2  and  O_3 
REMARK    2  A    between atoms: C_2  and  C_4 
REMARK    3  A    between atoms: C_6  and  N_7 
REMARK       I    between atoms: N_7  and  C_8 
REMARK    4  A    between atoms: C_8  and  C_9 
REMARK    5  A    between atoms: C_12  and  C_13 
REMARK    6  A    between atoms: C_18  and  C_19 
ROOT
HETATM    1  C   UNL     1       8.200  25.098  56.552  1.00  0.00     0.096 C 
HETATM    2  C   UNL     1       7.874  24.923  55.220  1.00  0.00     0.138 C 
HETATM    3  N   UNL     1       8.389  23.697  54.863  1.00  0.00    -0.240 N 
HETATM    4  C   UNL     1       8.325  23.138  53.525  1.00  0.00     0.221 C 
HETATM    5  C   UNL     1       7.257  23.866  52.690  1.00  0.00     0.068 C 
HETATM    6  C   UNL     1       7.366  25.383  52.881  1.00  0.00     0.143 C 
HETATM    7  N   UNL     1       7.214  25.699  54.314  1.00  0.00    -0.363 N 
HETATM    8  N   UNL     1       9.159  23.148  55.815  1.00  0.00    -0.181 NA
HETATM    9  C   UNL     1       9.017  23.981  56.849  1.00  0.00     0.160 C 
HETATM   10  H   UNL     1       7.237  26.712  54.460  1.00  0.00     0.162 HD
ENDROOT
BRANCH   1  11
HETATM   11  C   UNL     1       7.857  26.184  57.458  1.00  0.00     0.261 C 
HETATM   12  N   UNL     1       7.667  27.391  56.817  1.00  0.00    -0.323 N 
HETATM   13  H   UNL     1       7.667  27.349  55.804  1.00  0.00     0.169 HD
HETATM   14  O   UNL     1       7.736  25.975  58.659  1.00  0.00    -0.267 OA
BRANCH  12  15
HETATM   15  C   UNL     1       7.409  28.650  57.396  1.00  0.00     0.035 A 
HETATM   16  C   UNL     1       8.368  29.408  58.071  1.00  0.00     0.039 A 
HETATM   17  C   UNL     1       8.054  30.669  58.611  1.00  0.00    -0.028 A 
HETATM   18  C   UNL     1       6.754  31.165  58.450  1.00  0.00     0.010 A 
HETATM   19  C   UNL     1       5.789  30.416  57.781  1.00  0.00     0.003 A 
HETATM   20  C   UNL     1       6.115  29.165  57.255  1.00  0.00     0.029 A 
BRANCH  17  21
HETATM   21  C   UNL     1       9.134  31.467  59.311  1.00  0.00     0.147 C 
HETATM   22  C   UNL     1      10.371  31.618  58.435  1.00  0.00     0.044 C 
BRANCH  21  23
HETATM   23  O   UNL     1       8.653  32.765  59.658  1.00  0.00    -0.391 OA
HETATM   24  H   UNL     1       8.672  32.823  60.627  1.00  0.00     0.210 HD
ENDBRANCH  21  23
ENDBRANCH  17  21
ENDBRANCH  12  15
ENDBRANCH   1  11
BRANCH   4  25
HETATM   25  C   UNL     1       8.030  21.654  53.545  1.00  0.00     0.409 C 
HETATM   26  F   UNL     1       9.156  20.906  53.571  1.00  0.00    -0.169 F 
HETATM   27  F   UNL     1       7.336  21.346  54.677  1.00  0.00    -0.169 F 
HETATM   28  F   UNL     1       7.266  21.238  52.515  1.00  0.00    -0.169 F 
ENDBRANCH   4  25
BRANCH   6  29
HETATM   29  C   UNL     1       6.360  26.079  52.023  1.00  0.00     0.075 A 
HETATM   30  O   UNL     1       6.267  27.432  52.172  1.00  0.00    -0.325 OA
HETATM   31  C   UNL     1       5.315  27.863  51.305  1.00  0.00     0.142 A 
HETATM   32  C   UNL     1       4.793  26.805  50.598  1.00  0.00     0.027 A 
HETATM   33  C   UNL     1       5.468  25.650  51.061  1.00  0.00     0.037 A 
ENDBRANCH   6  29
TORSDOF 6
ENDMDL
MODEL 5
REMARK VINA RESULT:      -9.4      4.461      8.340
REMARK  6 active torsions:
REMARK  status: ('A' for Active; 'I' for Inactive)
REMARK    1  A    between atoms: C_2  and  O_3 
REMARK    2  A    between atoms: C_2  and  C_4 
REMARK    3  A    between atoms: C_6  and  N_7 
REMARK       I    between atoms: N_7  and  C_8 
REMARK    4  A    between atoms: C_8  and  C_9 
REMARK    5  A    between atoms: C_12  and  C_13 
REMARK    6  A    between atoms: C_18  and  C_19 
ROOT
HETATM    1  C   UNL     1       6.007  26.975  52.849  1.00  0.00     0.096 C 
HETATM    2  C   UNL     1       6.631  26.018  53.628  1.00  0.00     0.138 C 
HETATM    3  N   UNL     1       6.931  26.639  54.820  1.00  0.00    -0.240 N 
HETATM    4  C   UNL     1       7.648  26.011  55.915  1.00  0.00     0.221 C 
HETATM    5  C   UNL     1       7.641  24.480  55.753  1.00  0.00     0.068 C 
HETATM    6  C   UNL     1       7.960  24.091  54.305  1.00  0.00     0.143 C 
HETATM    7  N   UNL     1       6.968  24.715  53.410  1.00  0.00    -0.363 N 
HETATM    8  N   UNL     1       6.695  27.959  54.804  1.00  0.00    -0.181 NA
HETATM    9  C   UNL     1       6.105  28.156  53.622  1.00  0.00     0.160 C 
HETATM   10  H   UNL     1       7.134  24.430  52.440  1.00  0.00     0.162 HD
ENDROOT
BRANCH   1  11
HETATM   11  C   UNL     1       5.424  26.856  51.521  1.00  0.00     0.261 C 
HETATM   12  N   UNL     1       5.162  28.075  50.928  1.00  0.00    -0.323 N 
HETATM   13  H   UNL     1       5.513  28.885  51.427  1.00  0.00     0.169 HD
HETATM   14  O   UNL     1       5.235  25.753  51.022  1.00  0.00    -0.267 OA
BRANCH  12  15
HETATM   15  C   UNL     1       4.529  28.321  49.694  1.00  0.00     0.035 A 
HETATM   16  C   UNL     1       3.180  28.056  49.443  1.00  0.00     0.039 A 
HETATM   17  C   UNL     1       2.600  28.344  48.193  1.00  0.00    -0.028 A 
HETATM   18  C   UNL     1       3.399  28.915  47.195  1.00  0.00     0.010 A 
HETATM   19  C   UNL     1       4.746  29.180  47.434  1.00  0.00     0.003 A 
HETATM   20  C   UNL     1       5.308  28.886  48.677  1.00  0.00     0.029 A 
BRANCH  17  21
HETATM   21  C   UNL     1       1.127  28.065  47.977  1.00  0.00     0.147 C 
HETATM   22  C   UNL     1       0.748  28.188  46.506  1.00  0.00     0.044 C 
BRANCH  21  23
HETATM   23  O   UNL     1       0.793  26.755  48.431  1.00  0.00    -0.391 OA
HETATM   24  H   UNL     1      -0.115  26.577  48.137  1.00  0.00     0.210 HD
ENDBRANCH  21  23
ENDBRANCH  17  21
ENDBRANCH  12  15
ENDBRANCH   1  11
BRANCH   4  25
HETATM   25  C   UNL     1       7.065  26.382  57.260  1.00  0.00     0.409 C 
HETATM   26  F   UNL     1       5.733  26.156  57.323  1.00  0.00    -0.169 F 
HETATM   27  F   UNL     1       7.632  25.610  58.228  1.00  0.00    -0.169 F 
HETATM   28  F   UNL     1       7.297  27.660  57.619  1.00  0.00    -0.169 F 
ENDBRANCH   4  25
BRANCH   6  29
HETATM   29  C   UNL     1       8.004  22.602  54.176  1.00  0.00     0.075 A 
HETATM   30  O   UNL     1       7.992  21.890  55.340  1.00  0.00    -0.325 OA
HETATM   31  C   UNL     1       8.027  20.576  55.003  1.00  0.00     0.142 A 
HETATM   32  C   UNL     1       8.059  20.431  53.635  1.00  0.00     0.027 A 
HETATM   33  C   UNL     1       8.044  21.740  53.099  1.00  0.00     0.037 A 
ENDBRANCH   6  29
TORSDOF 6
ENDMDL
MODEL 6
REMARK VINA RESULT:      -9.2      1.879      2.452
REMARK  6 active torsions:
REMARK  status: ('A' for Active; 'I' for Inactive)
REMARK    1  A    between atoms: C_2  and  O_3 
REMARK    2  A    between atoms: C_2  and  C_4 
REMARK    3  A    between atoms: C_6  and  N_7 
REMARK       I    between atoms: N_7  and  C_8 
REMARK    4  A    between atoms: C_8  and  C_9 
REMARK    5  A    between atoms: C_12  and  C_13 
REMARK    6  A    between atoms: C_18  and  C_19 
ROOT
HETATM    1  C   UNL     1       4.978  28.178  55.115  1.00  0.00     0.096 C 
HETATM    2  C   UNL     1       5.351  27.085  54.354  1.00  0.00     0.138 C 
HETATM    3  N   UNL     1       4.736  27.248  53.133  1.00  0.00    -0.240 N 
HETATM    4  C   UNL     1       4.811  26.292  52.043  1.00  0.00     0.221 C 
HETATM    5  C   UNL     1       5.986  25.321  52.261  1.00  0.00     0.068 C 
HETATM    6  C   UNL     1       6.016  24.830  53.712  1.00  0.00     0.143 C 
HETATM    7  N   UNL     1       6.128  25.994  54.611  1.00  0.00    -0.363 N 
HETATM    8  N   UNL     1       3.871  28.272  53.108  1.00  0.00    -0.181 NA
HETATM    9  C   UNL     1       4.042  28.855  54.297  1.00  0.00     0.160 C 
HETATM   10  H   UNL     1       6.198  25.688  55.585  1.00  0.00     0.162 HD
ENDROOT
BRANCH   1  11
HETATM   11  C   UNL     1       5.381  28.555  56.461  1.00  0.00     0.261 C 
HETATM   12  N   UNL     1       5.551  29.916  56.621  1.00  0.00    -0.323 N 
HETATM   13  H   UNL     1       5.262  30.484  55.833  1.00  0.00     0.169 HD
HETATM   14  O   UNL     1       5.513  27.702  57.331  1.00  0.00    -0.267 OA
BRANCH  12  15
HETATM   15  C   UNL     1       6.013  30.605  57.759  1.00  0.00     0.035 A 
HETATM   16  C   UNL     1       7.232  30.340  58.389  1.00  0.00     0.039 A 
HETATM   17  C   UNL     1       7.648  31.079  59.513  1.00  0.00    -0.028 A 
HETATM   18  C   UNL     1       6.818  32.101  59.991  1.00  0.00     0.010 A 
HETATM   19  C   UNL     1       5.599  32.371  59.372  1.00  0.00     0.003 A 
HETATM   20  C   UNL     1       5.200  31.627  58.262  1.00  0.00     0.029 A 
BRANCH  17  21
HETATM   21  C   UNL     1       8.989  30.775  60.146  1.00  0.00     0.147 C 
HETATM   22  C   UNL     1       9.673  32.046  60.637  1.00  0.00     0.044 C 
BRANCH  21  23
HETATM   23  O   UNL     1       8.833  29.880  61.246  1.00  0.00    -0.391 OA
HETATM   24  H   UNL     1       8.218  29.186  60.960  1.00  0.00     0.210 HD
ENDBRANCH  21  23
ENDBRANCH  17  21
ENDBRANCH  12  15
ENDBRANCH   1  11
BRANCH   4  25
HETATM   25  C   UNL     1       4.959  26.974  50.701  1.00  0.00     0.409 C 
HETATM   26  F   UNL     1       5.294  26.108  49.718  1.00  0.00    -0.169 F 
HETATM   27  F   UNL     1       3.766  27.524  50.339  1.00  0.00    -0.169 F 
HETATM   28  F   UNL     1       5.851  27.985  50.700  1.00  0.00    -0.169 F 
ENDBRANCH   4  25
BRANCH   6  29
HETATM   29  C   UNL     1       7.128  23.847  53.895  1.00  0.00     0.075 A 
HETATM   30  O   UNL     1       7.842  23.946  55.054  1.00  0.00    -0.325 OA
HETATM   31  C   UNL     1       8.783  22.968  55.025  1.00  0.00     0.142 A 
HETATM   32  C   UNL     1       8.684  22.238  53.863  1.00  0.00     0.027 A 
HETATM   33  C   UNL     1       7.614  22.806  53.131  1.00  0.00     0.037 A 
ENDBRANCH   6  29
TORSDOF 6
ENDMDL
MODEL 7
REMARK VINA RESULT:      -9.0      7.101     12.137
REMARK  6 active torsions:
REMARK  status: ('A' for Active; 'I' for Inactive)
REMARK    1  A    between atoms: C_2  and  O_3 
REMARK    2  A    between atoms: C_2  and  C_4 
REMARK    3  A    between atoms: C_6  and  N_7 
REMARK       I    between atoms: N_7  and  C_8 
REMARK    4  A    between atoms: C_8  and  C_9 
REMARK    5  A    between atoms: C_12  and  C_13 
REMARK    6  A    between atoms: C_18  and  C_19 
ROOT
HETATM    1  C   UNL     1       5.915  32.624  61.895  1.00  0.00     0.096 C 
HETATM    2  C   UNL     1       5.706  33.857  62.485  1.00  0.00     0.138 C 
HETATM    3  N   UNL     1       5.222  33.594  63.747  1.00  0.00    -0.240 N 
HETATM    4  C   UNL     1       4.811  34.612  64.697  1.00  0.00     0.221 C 
HETATM    5  C   UNL     1       5.382  35.984  64.293  1.00  0.00     0.068 C 
HETATM    6  C   UNL     1       5.199  36.221  62.790  1.00  0.00     0.143 C 
HETATM    7  N   UNL     1       5.870  35.138  62.047  1.00  0.00    -0.363 N 
HETATM    8  N   UNL     1       4.952  32.297  63.951  1.00  0.00    -0.181 NA
HETATM    9  C   UNL     1       5.403  31.706  62.842  1.00  0.00     0.160 C 
HETATM   10  H   UNL     1       5.801  35.301  61.039  1.00  0.00     0.162 HD
ENDROOT
BRANCH   1  11
HETATM   11  C   UNL     1       6.473  32.301  60.590  1.00  0.00     0.261 C 
HETATM   12  N   UNL     1       7.513  31.395  60.650  1.00  0.00    -0.323 N 
HETATM   13  H   UNL     1       7.677  30.982  61.561  1.00  0.00     0.169 HD
HETATM   14  O   UNL     1       6.001  32.795  59.573  1.00  0.00    -0.267 OA
BRANCH  12  15
HETATM   15  C   UNL     1       8.324  30.934  59.594  1.00  0.00     0.035 A 
HETATM   16  C   UNL     1       8.055  29.781  58.852  1.00  0.00     0.039 A 
HETATM   17  C   UNL     1       8.893  29.384  57.793  1.00  0.00    -0.028 A 
HETATM   18  C   UNL     1      10.008  30.174  57.483  1.00  0.00     0.010 A 
HETATM   19  C   UNL     1      10.286  31.323  58.219  1.00  0.00     0.003 A 
HETATM   20  C   UNL     1       9.448  31.702  59.268  1.00  0.00     0.029 A 
BRANCH  17  21
HETATM   21  C   UNL     1       8.548  28.142  56.999  1.00  0.00     0.147 C 
HETATM   22  C   UNL     1       7.374  27.393  57.619  1.00  0.00     0.044 C 
BRANCH  21  23
HETATM   23  O   UNL     1       8.218  28.483  55.653  1.00  0.00    -0.391 OA
HETATM   24  H   UNL     1       7.589  27.814  55.338  1.00  0.00     0.210 HD
ENDBRANCH  21  23
ENDBRANCH  17  21
ENDBRANCH  12  15
ENDBRANCH   1  11
BRANCH   4  25
HETATM   25  C   UNL     1       5.244  34.278  66.107  1.00  0.00     0.409 C 
HETATM   26  F   UNL     1       6.456  33.680  66.145  1.00  0.00    -0.169 F 
HETATM   27  F   UNL     1       5.358  35.427  66.830  1.00  0.00    -0.169 F 
HETATM   28  F   UNL     1       4.366  33.504  66.776  1.00  0.00    -0.169 F 
ENDBRANCH   4  25
BRANCH   6  29
HETATM   29  C   UNL     1       5.707  37.579  62.422  1.00  0.00     0.075 A 
HETATM   30  O   UNL     1       5.470  37.989  61.143  1.00  0.00    -0.325 OA
HETATM   31  C   UNL     1       5.996  39.235  61.022  1.00  0.00     0.142 A 
HETATM   32  C   UNL     1       6.569  39.633  62.208  1.00  0.00     0.027 A 
HETATM   33  C   UNL     1       6.383  38.563  63.114  1.00  0.00     0.037 A 
ENDBRANCH   6  29
TORSDOF 6
ENDMDL
MODEL 8
REMARK VINA RESULT:      -8.9      3.934      8.339
REMARK  6 active torsions:
REMARK  status: ('A' for Active; 'I' for Inactive)
REMARK    1  A    between atoms: C_2  and  O_3 
REMARK    2  A    between atoms: C_2  and  C_4 
REMARK    3  A    between atoms: C_6  and  N_7 
REMARK       I    between atoms: N_7  and  C_8 
REMARK    4  A    between atoms: C_8  and  C_9 
REMARK    5  A    between atoms: C_12  and  C_13 
REMARK    6  A    between atoms: C_18  and  C_19 
ROOT
HETATM    1  C   UNL     1       5.722  25.882  53.717  1.00  0.00     0.096 C 
HETATM    2  C   UNL     1       6.270  26.206  54.945  1.00  0.00     0.138 C 
HETATM    3  N   UNL     1       6.814  25.041  55.434  1.00  0.00    -0.240 N 
HETATM    4  C   UNL     1       7.446  24.913  56.735  1.00  0.00     0.221 C 
HETATM    5  C   UNL     1       7.811  26.301  57.293  1.00  0.00     0.068 C 
HETATM    6  C   UNL     1       6.649  27.281  57.099  1.00  0.00     0.143 C 
HETATM    7  N   UNL     1       6.325  27.364  55.662  1.00  0.00    -0.363 N 
HETATM    8  N   UNL     1       6.517  23.964  54.693  1.00  0.00    -0.181 NA
HETATM    9  C   UNL     1       5.884  24.478  53.636  1.00  0.00     0.160 C 
HETATM   10  H   UNL     1       5.582  28.050  55.503  1.00  0.00     0.162 HD
ENDROOT
BRANCH   1  11
HETATM   11  C   UNL     1       5.073  26.737  52.734  1.00  0.00     0.261 C 
HETATM   12  N   UNL     1       5.573  26.577  51.457  1.00  0.00    -0.323 N 
HETATM   13  H   UNL     1       6.230  25.814  51.340  1.00  0.00     0.169 HD
HETATM   14  O   UNL     1       4.160  27.482  53.066  1.00  0.00    -0.267 OA
BRANCH  12  15
HETATM   15  C   UNL     1       5.233  27.299  50.296  1.00  0.00     0.035 A 
HETATM   16  C   UNL     1       5.435  28.674  50.146  1.00  0.00     0.039 A 
HETATM   17  C   UNL     1       5.092  29.335  48.952  1.00  0.00    -0.028 A 
HETATM   18  C   UNL     1       4.549  28.588  47.899  1.00  0.00     0.010 A 
HETATM   19  C   UNL     1       4.340  27.217  48.040  1.00  0.00     0.003 A 
HETATM   20  C   UNL     1       4.681  26.576  49.232  1.00  0.00     0.029 A 
BRANCH  17  21
HETATM   21  C   UNL     1       5.355  30.821  48.824  1.00  0.00     0.147 C 
HETATM   22  C   UNL     1       4.124  31.638  49.198  1.00  0.00     0.044 C 
BRANCH  21  23
HETATM   23  O   UNL     1       6.441  31.212  49.664  1.00  0.00    -0.391 OA
HETATM   24  H   UNL     1       6.972  31.850  49.160  1.00  0.00     0.210 HD
ENDBRANCH  21  23
ENDBRANCH  17  21
ENDBRANCH  12  15
ENDBRANCH   1  11
BRANCH   4  25
HETATM   25  C   UNL     1       8.685  24.046  56.681  1.00  0.00     0.409 C 
HETATM   26  F   UNL     1       9.683  24.525  57.458  1.00  0.00    -0.169 F 
HETATM   27  F   UNL     1       8.389  22.804  57.156  1.00  0.00    -0.169 F 
HETATM   28  F   UNL     1       9.165  23.863  55.435  1.00  0.00    -0.169 F 
ENDBRANCH   4  25
BRANCH   6  29
HETATM   29  C   UNL     1       6.997  28.608  57.693  1.00  0.00     0.075 A 
HETATM   30  O   UNL     1       8.116  28.649  58.474  1.00  0.00    -0.325 OA
HETATM   31  C   UNL     1       8.255  29.931  58.900  1.00  0.00     0.142 A 
HETATM   32  C   UNL     1       7.241  30.717  58.404  1.00  0.00     0.027 A 
HETATM   33  C   UNL     1       6.427  29.863  57.623  1.00  0.00     0.037 A 
ENDBRANCH   6  29
TORSDOF 6
ENDMDL
MODEL 9
REMARK VINA RESULT:      -8.5      4.224      7.047
REMARK  6 active torsions:
REMARK  status: ('A' for Active; 'I' for Inactive)
REMARK    1  A    between atoms: C_2  and  O_3 
REMARK    2  A    between atoms: C_2  and  C_4 
REMARK    3  A    between atoms: C_6  and  N_7 
REMARK       I    between atoms: N_7  and  C_8 
REMARK    4  A    between atoms: C_8  and  C_9 
REMARK    5  A    between atoms: C_12  and  C_13 
REMARK    6  A    between atoms: C_18  and  C_19 
ROOT
HETATM    1  C   UNL     1       7.490  30.679  58.627  1.00  0.00     0.096 C 
HETATM    2  C   UNL     1       6.566  30.642  57.599  1.00  0.00     0.138 C 
HETATM    3  N   UNL     1       6.805  29.470  56.918  1.00  0.00    -0.240 N 
HETATM    4  C   UNL     1       6.095  29.056  55.722  1.00  0.00     0.221 C 
HETATM    5  C   UNL     1       4.787  29.854  55.572  1.00  0.00     0.068 C 
HETATM    6  C   UNL     1       5.030  31.343  55.841  1.00  0.00     0.143 C 
HETATM    7  N   UNL     1       5.586  31.501  57.198  1.00  0.00    -0.363 N 
HETATM    8  N   UNL     1       7.912  28.834  57.330  1.00  0.00    -0.181 NA
HETATM    9  C   UNL     1       8.307  29.549  58.387  1.00  0.00     0.160 C 
HETATM   10  H   UNL     1       5.713  32.493  57.418  1.00  0.00     0.162 HD
ENDROOT
BRANCH   1  11
HETATM   11  C   UNL     1       7.657  31.656  59.693  1.00  0.00     0.261 C 
HETATM   12  N   UNL     1       6.978  31.325  60.849  1.00  0.00    -0.323 N 
HETATM   13  H   UNL     1       6.558  30.402  60.856  1.00  0.00     0.169 HD
HETATM   14  O   UNL     1       8.366  32.640  59.527  1.00  0.00    -0.267 OA
BRANCH  12  15
HETATM   15  C   UNL     1       6.858  32.082  62.031  1.00  0.00     0.035 A 
HETATM   16  C   UNL     1       5.656  32.627  62.488  1.00  0.00     0.039 A 
HETATM   17  C   UNL     1       5.596  33.358  63.690  1.00  0.00    -0.028 A 
HETATM   18  C   UNL     1       6.770  33.525  64.435  1.00  0.00     0.010 A 
HETATM   19  C   UNL     1       7.975  32.988  63.986  1.00  0.00     0.003 A 
HETATM   20  C   UNL     1       8.018  32.269  62.791  1.00  0.00     0.029 A 
BRANCH  17  21
HETATM   21  C   UNL     1       4.266  33.907  64.160  1.00  0.00     0.147 C 
HETATM   22  C   UNL     1       4.249  35.430  64.128  1.00  0.00     0.044 C 
BRANCH  21  23
HETATM   23  O   UNL     1       3.204  33.417  63.342  1.00  0.00    -0.391 OA
HETATM   24  H   UNL     1       2.442  33.273  63.926  1.00  0.00     0.210 HD
ENDBRANCH  21  23
ENDBRANCH  17  21
ENDBRANCH  12  15
ENDBRANCH   1  11
BRANCH   4  25
HETATM   25  C   UNL     1       5.788  27.575  55.729  1.00  0.00     0.409 C 
HETATM   26  F   UNL     1       5.391  27.138  56.945  1.00  0.00    -0.169 F 
HETATM   27  F   UNL     1       4.758  27.322  54.874  1.00  0.00    -0.169 F 
HETATM   28  F   UNL     1       6.814  26.806  55.314  1.00  0.00    -0.169 F 
ENDBRANCH   4  25
BRANCH   6  29
HETATM   29  C   UNL     1       3.764  32.112  55.638  1.00  0.00     0.075 A 
HETATM   30  O   UNL     1       3.666  33.304  56.295  1.00  0.00    -0.325 OA
HETATM   31  C   UNL     1       2.461  33.837  55.971  1.00  0.00     0.142 A 
HETATM   32  C   UNL     1       1.781  33.006  55.111  1.00  0.00     0.027 A 
HETATM   33  C   UNL     1       2.623  31.889  54.895  1.00  0.00     0.037 A 
ENDBRANCH   6  29
TORSDOF 6
ENDMDL
MODEL 10
REMARK VINA RESULT:      -8.5      4.827      9.804
REMARK  6 active torsions:
REMARK  status: ('A' for Active; 'I' for Inactive)
REMARK    1  A    between atoms: C_2  and  O_3 
REMARK    2  A    between atoms: C_2  and  C_4 
REMARK    3  A    between atoms: C_6  and  N_7 
REMARK       I    between atoms: N_7  and  C_8 
REMARK    4  A    between atoms: C_8  and  C_9 
REMARK    5  A    between atoms: C_12  and  C_13 
REMARK    6  A    between atoms: C_18  and  C_19 
ROOT
HETATM    1  C   UNL     1       6.799  29.017  56.876  1.00  0.00     0.096 C 
HETATM    2  C   UNL     1       6.661  30.142  57.669  1.00  0.00     0.138 C 
HETATM    3  N   UNL     1       7.620  30.032  58.650  1.00  0.00    -0.240 N 
HETATM    4  C   UNL     1       7.792  30.977  59.739  1.00  0.00     0.221 C 
HETATM    5  C   UNL     1       7.080  32.302  59.416  1.00  0.00     0.068 C 
HETATM    6  C   UNL     1       5.683  32.038  58.846  1.00  0.00     0.143 C 
HETATM    7  N   UNL     1       5.807  31.204  57.636  1.00  0.00    -0.363 N 
HETATM    8  N   UNL     1       8.252  28.848  58.644  1.00  0.00    -0.181 NA
HETATM    9  C   UNL     1       7.778  28.248  57.550  1.00  0.00     0.160 C 
HETATM   10  H   UNL     1       4.888  31.053  57.210  1.00  0.00     0.162 HD
ENDROOT
BRANCH   1  11
HETATM   11  C   UNL     1       6.091  28.643  55.661  1.00  0.00     0.261 C 
HETATM   12  N   UNL     1       6.349  27.349  55.254  1.00  0.00    -0.323 N 
HETATM   13  H   UNL     1       6.892  26.790  55.903  1.00  0.00     0.169 HD
HETATM   14  O   UNL     1       5.331  29.435  55.117  1.00  0.00    -0.267 OA
BRANCH  12  15
HETATM   15  C   UNL     1       5.899  26.701  54.087  1.00  0.00     0.035 A 
HETATM   16  C   UNL     1       5.517  27.370  52.922  1.00  0.00     0.039 A 
HETATM   17  C   UNL     1       5.095  26.664  51.780  1.00  0.00    -0.028 A 
HETATM   18  C   UNL     1       5.072  25.264  51.824  1.00  0.00     0.010 A 
HETATM   19  C   UNL     1       5.448  24.587  52.982  1.00  0.00     0.003 A 
HETATM   20  C   UNL     1       5.860  25.302  54.108  1.00  0.00     0.029 A 
BRANCH  17  21
HETATM   21  C   UNL     1       4.716  27.430  50.531  1.00  0.00     0.147 C 
HETATM   22  C   UNL     1       4.634  26.512  49.317  1.00  0.00     0.044 C 
BRANCH  21  23
HETATM   23  O   UNL     1       3.457  28.080  50.703  1.00  0.00    -0.391 OA
HETATM   24  H   UNL     1       3.017  28.076  49.838  1.00  0.00     0.210 HD
ENDBRANCH  21  23
ENDBRANCH  17  21
ENDBRANCH  12  15
ENDBRANCH   1  11
BRANCH   4  25
HETATM   25  C   UNL     1       9.252  31.243  60.032  1.00  0.00     0.409 C 
HETATM   26  F   UNL     1       9.461  32.489  60.513  1.00  0.00    -0.169 F 
HETATM   27  F   UNL     1       9.685  30.381  60.995  1.00  0.00    -0.169 F 
HETATM   28  F   UNL     1      10.063  31.053  58.972  1.00  0.00    -0.169 F 
ENDBRANCH   4  25
BRANCH   6  29
HETATM   29  C   UNL     1       4.983  33.334  58.589  1.00  0.00     0.075 A 
HETATM   30  O   UNL     1       5.250  33.942  57.397  1.00  0.00    -0.325 OA
HETATM   31  C   UNL     1       4.515  35.083  57.360  1.00  0.00     0.142 A 
HETATM   32  C   UNL     1       3.776  35.217  58.512  1.00  0.00     0.027 A 
HETATM   33  C   UNL     1       4.078  34.087  59.308  1.00  0.00     0.037 A 
ENDBRANCH   6  29
TORSDOF 6
ENDMDL
