MODEL 1
REMARK VINA RESULT:      -8.8      0.000      0.000
REMARK  6 active torsions:
REMARK  status: ('A' for Active; 'I' for Inactive)
REMARK    1  A    between atoms: C_4  and  O_5 
REMARK    2  A    between atoms: O_5  and  C_6 
REMARK    3  A    between atoms: C_7  and  N_8 
REMARK       I    between atoms: N_8  and  C_9 
REMARK       I    between atoms: C_9  and  N_10 
REMARK    4  A    between atoms: N_10  and  C_11 
REMARK    5  A    between atoms: C_11  and  C_12 
REMARK    6  A    between atoms: C_12  and  C_13 
ROOT
HETATM    1  C   UNL     1       8.195  22.866  54.751  1.00  0.00     0.106 C 
HETATM    2  C   UNL     1       8.388  22.731  56.131  1.00  0.00     0.109 C 
HETATM    3  C   UNL     1       8.353  21.445  56.677  1.00  0.00     0.145 C 
HETATM    4  F   UNL     1       8.606  21.269  57.984  1.00  0.00    -0.204 F 
HETATM    5  C   UNL     1       8.015  20.334  55.907  1.00  0.00     0.045 C 
HETATM    6  C   UNL     1       7.724  20.496  54.554  1.00  0.00     0.006 C 
HETATM    7  C   UNL     1       7.816  21.762  53.974  1.00  0.00     0.040 C 
ENDROOT
BRANCH   2   8
HETATM    8  N   UNL     1       8.670  23.805  57.001  1.00  0.00    -0.304 N 
HETATM    9  C   UNL     1       7.862  24.856  57.338  1.00  0.00     0.320 C 
HETATM   10  N   UNL     1       6.622  24.904  56.777  1.00  0.00    -0.342 N 
HETATM   11  O   UNL     1       8.213  25.614  58.242  1.00  0.00    -0.247 OA
HETATM   12  H   UNL     1       6.540  24.602  55.814  1.00  0.00     0.164 HD
HETATM   13  H   UNL     1       9.301  23.604  57.769  1.00  0.00     0.171 HD
BRANCH  10  14
HETATM   14  C   UNL     1       5.605  25.835  57.235  1.00  0.00     0.132 C 
BRANCH  14  15
HETATM   15  C   UNL     1       5.147  26.810  56.154  1.00  0.00     0.102 C 
BRANCH  15  16
HETATM   16  C   UNL     1       6.265  27.645  55.636  1.00  0.00     0.148 A 
HETATM   17  N   UNL     1       6.425  27.914  54.333  1.00  0.00    -0.158 NA
HETATM   18  N   UNL     1       7.538  28.663  54.344  1.00  0.00    -0.270 N 
HETATM   19  H   UNL     1       7.905  29.021  53.470  1.00  0.00     0.190 HD
HETATM   20  C   UNL     1       8.012  28.821  55.606  1.00  0.00     0.227 A 
HETATM   21  N   UNL     1       7.229  28.190  56.450  1.00  0.00    -0.226 NA
ENDBRANCH  15  16
ENDBRANCH  14  15
ENDBRANCH  10  14
ENDBRANCH   2   8
BRANCH   1  22
HETATM   22  O   UNL     1       8.389  24.093  54.157  1.00  0.00    -0.309 OA
BRANCH  22  23
HETATM   23  C   UNL     1       7.400  24.573  53.320  1.00  0.00     0.076 A 
HETATM   24  C   UNL     1       6.088  24.364  53.752  1.00  0.00     0.037 A 
HETATM   25  C   UNL     1       5.011  24.800  52.979  1.00  0.00     0.003 A 
HETATM   26  C   UNL     1       5.241  25.458  51.772  1.00  0.00     0.000 A 
HETATM   27  C   UNL     1       6.547  25.698  51.350  1.00  0.00     0.003 A 
HETATM   28  C   UNL     1       7.626  25.267  52.127  1.00  0.00     0.037 A 
ENDBRANCH  22  23
ENDBRANCH   1  22
TORSDOF 6
ENDMDL
MODEL 2
REMARK VINA RESULT:      -8.6      2.119      4.286
REMARK  6 active torsions:
REMARK  status: ('A' for Active; 'I' for Inactive)
REMARK    1  A    between atoms: C_4  and  O_5 
REMARK    2  A    between atoms: O_5  and  C_6 
REMARK    3  A    between atoms: C_7  and  N_8 
REMARK       I    between atoms: N_8  and  C_9 
REMARK       I    between atoms: C_9  and  N_10 
REMARK    4  A    between atoms: N_10  and  C_11 
REMARK    5  A    between atoms: C_11  and  C_12 
REMARK    6  A    between atoms: C_12  and  C_13 
ROOT
HETATM    1  C   UNL     1       7.561  24.575  53.794  1.00  0.00     0.106 C 
HETATM    2  C   UNL     1       6.234  24.847  54.147  1.00  0.00     0.109 C 
HETATM    3  C   UNL     1       5.347  25.220  53.132  1.00  0.00     0.145 C 
HETATM    4  F   UNL     1       4.051  25.419  53.421  1.00  0.00    -0.204 F 
HETATM    5  C   UNL     1       5.782  25.437  51.827  1.00  0.00     0.045 C 
HETATM    6  C   UNL     1       7.128  25.261  51.509  1.00  0.00     0.006 C 
HETATM    7  C   UNL     1       8.018  24.827  52.492  1.00  0.00     0.040 C 
ENDROOT
BRANCH   2   8
HETATM    8  N   UNL     1       5.719  24.719  55.454  1.00  0.00    -0.304 N 
HETATM    9  C   UNL     1       5.745  25.636  56.468  1.00  0.00     0.320 C 
HETATM   10  N   UNL     1       6.341  26.836  56.219  1.00  0.00    -0.342 N 
HETATM   11  O   UNL     1       5.100  25.414  57.492  1.00  0.00    -0.247 OA
HETATM   12  H   UNL     1       7.171  26.826  55.638  1.00  0.00     0.164 HD
HETATM   13  H   UNL     1       4.903  24.126  55.556  1.00  0.00     0.171 HD
BRANCH  10  14
HETATM   14  C   UNL     1       6.224  27.959  57.133  1.00  0.00     0.132 C 
BRANCH  14  15
HETATM   15  C   UNL     1       7.532  28.301  57.841  1.00  0.00     0.102 C 
BRANCH  15  16
HETATM   16  C   UNL     1       8.548  28.862  56.909  1.00  0.00     0.148 A 
HETATM   17  N   UNL     1       8.363  28.914  55.583  1.00  0.00    -0.158 NA
HETATM   18  N   UNL     1       9.513  29.467  55.168  1.00  0.00    -0.270 N 
HETATM   19  H   UNL     1       9.657  29.635  54.179  1.00  0.00     0.190 HD
HETATM   20  C   UNL     1      10.340  29.724  56.215  1.00  0.00     0.227 A 
HETATM   21  N   UNL     1       9.760  29.354  57.332  1.00  0.00    -0.226 NA
ENDBRANCH  15  16
ENDBRANCH  14  15
ENDBRANCH  10  14
ENDBRANCH   2   8
BRANCH   1  22
HETATM   22  O   UNL     1       8.417  24.045  54.734  1.00  0.00    -0.309 OA
BRANCH  22  23
HETATM   23  C   UNL     1       8.401  22.677  54.927  1.00  0.00     0.076 A 
HETATM   24  C   UNL     1       8.292  22.252  56.252  1.00  0.00     0.037 A 
HETATM   25  C   UNL     1       8.276  20.891  56.561  1.00  0.00     0.003 A 
HETATM   26  C   UNL     1       8.358  19.945  55.541  1.00  0.00     0.000 A 
HETATM   27  C   UNL     1       8.435  20.360  54.213  1.00  0.00     0.003 A 
HETATM   28  C   UNL     1       8.445  21.723  53.904  1.00  0.00     0.037 A 
ENDBRANCH  22  23
ENDBRANCH   1  22
TORSDOF 6
ENDMDL
MODEL 3
REMARK VINA RESULT:      -8.6      3.288      5.396
REMARK  6 active torsions:
REMARK  status: ('A' for Active; 'I' for Inactive)
REMARK    1  A    between atoms: C_4  and  O_5 
REMARK    2  A    between atoms: O_5  and  C_6 
REMARK    3  A    between atoms: C_7  and  N_8 
REMARK       I    between atoms: N_8  and  C_9 
REMARK       I    between atoms: C_9  and  N_10 
REMARK    4  A    between atoms: N_10  and  C_11 
REMARK    5  A    between atoms: C_11  and  C_12 
REMARK    6  A    between atoms: C_12  and  C_13 
ROOT
HETATM    1  C   UNL     1       7.145  26.049  55.950  1.00  0.00     0.106 C 
HETATM    2  C   UNL     1       7.003  27.410  55.655  1.00  0.00     0.109 C 
HETATM    3  C   UNL     1       5.887  28.080  56.163  1.00  0.00     0.145 C 
HETATM    4  F   UNL     1       5.754  29.401  55.961  1.00  0.00    -0.204 F 
HETATM    5  C   UNL     1       4.875  27.402  56.839  1.00  0.00     0.045 C 
HETATM    6  C   UNL     1       4.978  26.027  57.038  1.00  0.00     0.006 C 
HETATM    7  C   UNL     1       6.115  25.350  56.595  1.00  0.00     0.040 C 
ENDROOT
BRANCH   2   8
HETATM    8  N   UNL     1       7.943  28.165  54.920  1.00  0.00    -0.304 N 
HETATM    9  C   UNL     1       8.990  28.905  55.394  1.00  0.00     0.320 C 
HETATM   10  N   UNL     1       9.177  28.943  56.743  1.00  0.00    -0.342 N 
HETATM   11  O   UNL     1       9.807  29.366  54.597  1.00  0.00    -0.247 OA
HETATM   12  H   UNL     1       8.347  28.969  57.323  1.00  0.00     0.164 HD
HETATM   13  H   UNL     1       8.164  27.821  53.992  1.00  0.00     0.171 HD
BRANCH  10  14
HETATM   14  C   UNL     1      10.380  29.499  57.339  1.00  0.00     0.132 C 
BRANCH  14  15
HETATM   15  C   UNL     1      10.225  30.956  57.766  1.00  0.00     0.102 C 
BRANCH  15  16
HETATM   16  C   UNL     1       9.260  31.116  58.888  1.00  0.00     0.148 A 
HETATM   17  N   UNL     1       8.721  30.073  59.533  1.00  0.00    -0.158 NA
HETATM   18  N   UNL     1       7.927  30.685  60.426  1.00  0.00    -0.270 N 
HETATM   19  H   UNL     1       7.381  30.127  61.071  1.00  0.00     0.190 HD
HETATM   20  C   UNL     1       7.998  32.035  60.302  1.00  0.00     0.227 A 
HETATM   21  N   UNL     1       8.834  32.343  59.338  1.00  0.00    -0.226 NA
ENDBRANCH  15  16
ENDBRANCH  14  15
ENDBRANCH  10  14
ENDBRANCH   2   8
BRANCH   1  22
HETATM   22  O   UNL     1       8.311  25.400  55.610  1.00  0.00    -0.309 OA
BRANCH  22  23
HETATM   23  C   UNL     1       8.215  24.246  54.856  1.00  0.00     0.076 A 
HETATM   24  C   UNL     1       7.836  24.423  53.524  1.00  0.00     0.037 A 
HETATM   25  C   UNL     1       7.699  23.323  52.675  1.00  0.00     0.003 A 
HETATM   26  C   UNL     1       7.953  22.039  53.154  1.00  0.00     0.000 A 
HETATM   27  C   UNL     1       8.363  21.857  54.473  1.00  0.00     0.003 A 
HETATM   28  C   UNL     1       8.506  22.959  55.321  1.00  0.00     0.037 A 
ENDBRANCH  22  23
ENDBRANCH   1  22
TORSDOF 6
ENDMDL
MODEL 4
REMARK VINA RESULT:      -8.4      2.517      4.796
REMARK  6 active torsions:
REMARK  status: ('A' for Active; 'I' for Inactive)
REMARK    1  A    between atoms: C_4  and  O_5 
REMARK    2  A    between atoms: O_5  and  C_6 
REMARK    3  A    between atoms: C_7  and  N_8 
REMARK       I    between atoms: N_8  and  C_9 
REMARK       I    between atoms: C_9  and  N_10 
REMARK    4  A    between atoms: N_10  and  C_11 
REMARK    5  A    between atoms: C_11  and  C_12 
REMARK    6  A    between atoms: C_12  and  C_13 
ROOT
HETATM    1  C   UNL     1       6.734  25.251  53.522  1.00  0.00     0.106 C 
HETATM    2  C   UNL     1       6.938  26.586  53.155  1.00  0.00     0.109 C 
HETATM    3  C   UNL     1       6.009  27.181  52.296  1.00  0.00     0.145 C 
HETATM    4  F   UNL     1       6.132  28.480  51.979  1.00  0.00    -0.204 F 
HETATM    5  C   UNL     1       4.977  26.447  51.717  1.00  0.00     0.045 C 
HETATM    6  C   UNL     1       4.845  25.091  52.011  1.00  0.00     0.006 C 
HETATM    7  C   UNL     1       5.722  24.493  52.916  1.00  0.00     0.040 C 
ENDROOT
BRANCH   2   8
HETATM    8  N   UNL     1       7.993  27.390  53.638  1.00  0.00    -0.304 N 
HETATM    9  C   UNL     1       7.926  28.440  54.511  1.00  0.00     0.320 C 
HETATM   10  N   UNL     1       6.699  28.782  54.994  1.00  0.00    -0.342 N 
HETATM   11  O   UNL     1       8.971  28.921  54.949  1.00  0.00    -0.247 OA
HETATM   12  H   UNL     1       5.917  28.717  54.353  1.00  0.00     0.164 HD
HETATM   13  H   UNL     1       8.897  26.937  53.722  1.00  0.00     0.171 HD
BRANCH  10  14
HETATM   14  C   UNL     1       6.537  29.718  56.093  1.00  0.00     0.132 C 
BRANCH  14  15
HETATM   15  C   UNL     1       6.187  29.042  57.417  1.00  0.00     0.102 C 
BRANCH  15  16
HETATM   16  C   UNL     1       6.535  27.595  57.421  1.00  0.00     0.148 A 
HETATM   17  N   UNL     1       5.688  26.646  57.000  1.00  0.00    -0.158 NA
HETATM   18  N   UNL     1       6.409  25.531  57.197  1.00  0.00    -0.270 N 
HETATM   19  H   UNL     1       6.009  24.631  56.957  1.00  0.00     0.190 HD
HETATM   20  C   UNL     1       7.629  25.820  57.718  1.00  0.00     0.227 A 
HETATM   21  N   UNL     1       7.742  27.118  57.871  1.00  0.00    -0.226 NA
ENDBRANCH  15  16
ENDBRANCH  14  15
ENDBRANCH  10  14
ENDBRANCH   2   8
BRANCH   1  22
HETATM   22  O   UNL     1       7.530  24.687  54.494  1.00  0.00    -0.309 OA
BRANCH  22  23
HETATM   23  C   UNL     1       7.790  23.332  54.414  1.00  0.00     0.076 A 
HETATM   24  C   UNL     1       7.499  22.590  55.561  1.00  0.00     0.037 A 
HETATM   25  C   UNL     1       7.731  21.214  55.592  1.00  0.00     0.003 A 
HETATM   26  C   UNL     1       8.248  20.570  54.468  1.00  0.00     0.000 A 
HETATM   27  C   UNL     1       8.511  21.298  53.310  1.00  0.00     0.003 A 
HETATM   28  C   UNL     1       8.272  22.675  53.277  1.00  0.00     0.037 A 
ENDBRANCH  22  23
ENDBRANCH   1  22
TORSDOF 6
ENDMDL
MODEL 5
REMARK VINA RESULT:      -8.4      2.200      3.973
REMARK  6 active torsions:
REMARK  status: ('A' for Active; 'I' for Inactive)
REMARK    1  A    between atoms: C_4  and  O_5 
REMARK    2  A    between atoms: O_5  and  C_6 
REMARK    3  A    between atoms: C_7  and  N_8 
REMARK       I    between atoms: N_8  and  C_9 
REMARK       I    between atoms: C_9  and  N_10 
REMARK    4  A    between atoms: N_10  and  C_11 
REMARK    5  A    between atoms: C_11  and  C_12 
REMARK    6  A    between atoms: C_12  and  C_13 
ROOT
HETATM    1  C   UNL     1       8.458  23.040  55.665  1.00  0.00     0.106 C 
HETATM    2  C   UNL     1       8.301  22.644  54.332  1.00  0.00     0.109 C 
HETATM    3  C   UNL     1       7.943  21.317  54.077  1.00  0.00     0.145 C 
HETATM    4  F   UNL     1       7.714  20.919  52.816  1.00  0.00    -0.204 F 
HETATM    5  C   UNL     1       7.861  20.375  55.100  1.00  0.00     0.045 C 
HETATM    6  C   UNL     1       8.120  20.759  56.414  1.00  0.00     0.006 C 
HETATM    7  C   UNL     1       8.416  22.093  56.698  1.00  0.00     0.040 C 
ENDROOT
BRANCH   2   8
HETATM    8  N   UNL     1       8.430  23.511  53.226  1.00  0.00    -0.304 N 
HETATM    9  C   UNL     1       7.452  24.229  52.594  1.00  0.00     0.320 C 
HETATM   10  N   UNL     1       6.179  24.111  53.065  1.00  0.00    -0.342 N 
HETATM   11  O   UNL     1       7.773  25.062  51.748  1.00  0.00    -0.247 OA
HETATM   12  H   UNL     1       5.889  23.194  53.385  1.00  0.00     0.164 HD
HETATM   13  H   UNL     1       9.315  24.000  53.142  1.00  0.00     0.171 HD
BRANCH  10  14
HETATM   14  C   UNL     1       5.111  24.993  52.627  1.00  0.00     0.132 C 
BRANCH  14  15
HETATM   15  C   UNL     1       5.029  26.289  53.429  1.00  0.00     0.102 C 
BRANCH  15  16
HETATM   16  C   UNL     1       5.226  27.493  52.578  1.00  0.00     0.148 A 
HETATM   17  N   UNL     1       5.331  28.729  53.085  1.00  0.00    -0.158 NA
HETATM   18  N   UNL     1       5.479  29.468  51.975  1.00  0.00    -0.270 N 
HETATM   19  H   UNL     1       5.587  30.472  52.056  1.00  0.00     0.190 HD
HETATM   20  C   UNL     1       5.455  28.691  50.861  1.00  0.00     0.227 A 
HETATM   21  N   UNL     1       5.298  27.436  51.207  1.00  0.00    -0.226 NA
ENDBRANCH  15  16
ENDBRANCH  14  15
ENDBRANCH  10  14
ENDBRANCH   2   8
BRANCH   1  22
HETATM   22  O   UNL     1       8.644  24.373  55.958  1.00  0.00    -0.309 OA
BRANCH  22  23
HETATM   23  C   UNL     1       7.534  25.120  56.305  1.00  0.00     0.076 A 
HETATM   24  C   UNL     1       7.716  26.505  56.314  1.00  0.00     0.037 A 
HETATM   25  C   UNL     1       6.664  27.355  56.658  1.00  0.00     0.003 A 
HETATM   26  C   UNL     1       5.418  26.822  56.986  1.00  0.00     0.000 A 
HETATM   27  C   UNL     1       5.220  25.444  56.949  1.00  0.00     0.003 A 
HETATM   28  C   UNL     1       6.272  24.593  56.597  1.00  0.00     0.037 A 
ENDBRANCH  22  23
ENDBRANCH   1  22
TORSDOF 6
ENDMDL
MODEL 6
REMARK VINA RESULT:      -8.3      2.520      4.641
REMARK  6 active torsions:
REMARK  status: ('A' for Active; 'I' for Inactive)
REMARK    1  A    between atoms: C_4  and  O_5 
REMARK    2  A    between atoms: O_5  and  C_6 
REMARK    3  A    between atoms: C_7  and  N_8 
REMARK       I    between atoms: N_8  and  C_9 
REMARK       I    between atoms: C_9  and  N_10 
REMARK    4  A    between atoms: N_10  and  C_11 
REMARK    5  A    between atoms: C_11  and  C_12 
REMARK    6  A    between atoms: C_12  and  C_13 
ROOT
HETATM    1  C   UNL     1       7.436  24.672  53.993  1.00  0.00     0.106 C 
HETATM    2  C   UNL     1       6.720  25.393  54.955  1.00  0.00     0.109 C 
HETATM    3  C   UNL     1       5.476  25.918  54.593  1.00  0.00     0.145 C 
HETATM    4  F   UNL     1       4.728  26.553  55.509  1.00  0.00    -0.204 F 
HETATM    5  C   UNL     1       5.005  25.839  53.284  1.00  0.00     0.045 C 
HETATM    6  C   UNL     1       5.775  25.207  52.310  1.00  0.00     0.006 C 
HETATM    7  C   UNL     1       6.990  24.620  52.665  1.00  0.00     0.040 C 
ENDROOT
BRANCH   2   8
HETATM    8  N   UNL     1       7.148  25.582  56.287  1.00  0.00    -0.304 N 
HETATM    9  C   UNL     1       7.800  26.658  56.822  1.00  0.00     0.320 C 
HETATM   10  N   UNL     1       8.092  27.697  55.990  1.00  0.00    -0.342 N 
HETATM   11  O   UNL     1       7.950  26.721  58.042  1.00  0.00    -0.247 OA
HETATM   12  H   UNL     1       8.368  27.465  55.043  1.00  0.00     0.164 HD
HETATM   13  H   UNL     1       6.586  25.136  57.004  1.00  0.00     0.171 HD
BRANCH  10  14
HETATM   14  C   UNL     1       8.568  28.975  56.491  1.00  0.00     0.132 C 
BRANCH  14  15
HETATM   15  C   UNL     1       7.442  29.930  56.878  1.00  0.00     0.102 C 
BRANCH  15  16
HETATM   16  C   UNL     1       7.594  30.448  58.265  1.00  0.00     0.148 A 
HETATM   17  N   UNL     1       8.189  29.746  59.239  1.00  0.00    -0.158 NA
HETATM   18  N   UNL     1       8.081  30.583  60.283  1.00  0.00    -0.270 N 
HETATM   19  H   UNL     1       8.459  30.308  61.182  1.00  0.00     0.190 HD
HETATM   20  C   UNL     1       7.442  31.727  59.931  1.00  0.00     0.227 A 
HETATM   21  N   UNL     1       7.120  31.676  58.660  1.00  0.00    -0.226 NA
ENDBRANCH  15  16
ENDBRANCH  14  15
ENDBRANCH  10  14
ENDBRANCH   2   8
BRANCH   1  22
HETATM   22  O   UNL     1       8.581  24.001  54.363  1.00  0.00    -0.309 OA
BRANCH  22  23
HETATM   23  C   UNL     1       8.486  22.645  54.611  1.00  0.00     0.076 A 
HETATM   24  C   UNL     1       8.456  22.276  55.958  1.00  0.00     0.037 A 
HETATM   25  C   UNL     1       8.371  20.931  56.322  1.00  0.00     0.003 A 
HETATM   26  C   UNL     1       8.304  19.947  55.338  1.00  0.00     0.000 A 
HETATM   27  C   UNL     1       8.301  20.309  53.992  1.00  0.00     0.003 A 
HETATM   28  C   UNL     1       8.380  21.656  53.628  1.00  0.00     0.037 A 
ENDBRANCH  22  23
ENDBRANCH   1  22
TORSDOF 6
ENDMDL
MODEL 7
REMARK VINA RESULT:      -8.3      1.899      4.191
REMARK  6 active torsions:
REMARK  status: ('A' for Active; 'I' for Inactive)
REMARK    1  A    between atoms: C_4  and  O_5 
REMARK    2  A    between atoms: O_5  and  C_6 
REMARK    3  A    between atoms: C_7  and  N_8 
REMARK       I    between atoms: N_8  and  C_9 
REMARK       I    between atoms: C_9  and  N_10 
REMARK    4  A    between atoms: N_10  and  C_11 
REMARK    5  A    between atoms: C_11  and  C_12 
REMARK    6  A    between atoms: C_12  and  C_13 
ROOT
HETATM    1  C   UNL     1       7.498  24.434  54.121  1.00  0.00     0.106 C 
HETATM    2  C   UNL     1       6.770  24.916  55.214  1.00  0.00     0.109 C 
HETATM    3  C   UNL     1       5.460  25.352  54.991  1.00  0.00     0.145 C 
HETATM    4  F   UNL     1       4.706  25.753  56.027  1.00  0.00    -0.204 F 
HETATM    5  C   UNL     1       4.925  25.425  53.707  1.00  0.00     0.045 C 
HETATM    6  C   UNL     1       5.698  25.038  52.614  1.00  0.00     0.006 C 
HETATM    7  C   UNL     1       6.985  24.539  52.821  1.00  0.00     0.040 C 
ENDROOT
BRANCH   2   8
HETATM    8  N   UNL     1       7.252  24.943  56.540  1.00  0.00    -0.304 N 
HETATM    9  C   UNL     1       7.825  25.988  57.212  1.00  0.00     0.320 C 
HETATM   10  N   UNL     1       7.965  27.166  56.544  1.00  0.00    -0.342 N 
HETATM   11  O   UNL     1       8.036  25.878  58.420  1.00  0.00    -0.247 OA
HETATM   12  H   UNL     1       8.208  27.113  55.562  1.00  0.00     0.164 HD
HETATM   13  H   UNL     1       6.778  24.336  57.200  1.00  0.00     0.171 HD
BRANCH  10  14
HETATM   14  C   UNL     1       8.341  28.396  57.221  1.00  0.00     0.132 C 
BRANCH  14  15
HETATM   15  C   UNL     1       7.547  29.612  56.751  1.00  0.00     0.102 C 
BRANCH  15  16
HETATM   16  C   UNL     1       6.133  29.274  56.432  1.00  0.00     0.148 A 
HETATM   17  N   UNL     1       5.225  28.993  57.376  1.00  0.00    -0.158 NA
HETATM   18  N   UNL     1       4.132  28.744  56.638  1.00  0.00    -0.270 N 
HETATM   19  H   UNL     1       3.264  28.500  57.100  1.00  0.00     0.190 HD
HETATM   20  C   UNL     1       4.396  28.871  55.312  1.00  0.00     0.227 A 
HETATM   21  N   UNL     1       5.653  29.207  55.146  1.00  0.00    -0.226 NA
ENDBRANCH  15  16
ENDBRANCH  14  15
ENDBRANCH  10  14
ENDBRANCH   2   8
BRANCH   1  22
HETATM   22  O   UNL     1       8.725  23.843  54.333  1.00  0.00    -0.309 OA
BRANCH  22  23
HETATM   23  C   UNL     1       8.753  22.488  54.599  1.00  0.00     0.076 A 
HETATM   24  C   UNL     1       8.659  21.650  53.486  1.00  0.00     0.037 A 
HETATM   25  C   UNL     1       8.669  20.262  53.642  1.00  0.00     0.003 A 
HETATM   26  C   UNL     1       8.785  19.706  54.915  1.00  0.00     0.000 A 
HETATM   27  C   UNL     1       8.911  20.535  56.027  1.00  0.00     0.003 A 
HETATM   28  C   UNL     1       8.907  21.924  55.870  1.00  0.00     0.037 A 
ENDBRANCH  22  23
ENDBRANCH   1  22
TORSDOF 6
ENDMDL
MODEL 8
REMARK VINA RESULT:      -8.1     10.107     12.907
REMARK  6 active torsions:
REMARK  status: ('A' for Active; 'I' for Inactive)
REMARK    1  A    between atoms: C_4  and  O_5 
REMARK    2  A    between atoms: O_5  and  C_6 
REMARK    3  A    between atoms: C_7  and  N_8 
REMARK       I    between atoms: N_8  and  C_9 
REMARK       I    between atoms: C_9  and  N_10 
REMARK    4  A    between atoms: N_10  and  C_11 
REMARK    5  A    between atoms: C_11  and  C_12 
REMARK    6  A    between atoms: C_12  and  C_13 
ROOT
HETATM    1  C   UNL     1       5.945  32.481  63.429  1.00  0.00     0.106 C 
HETATM    2  C   UNL     1       5.860  32.045  62.102  1.00  0.00     0.109 C 
HETATM    3  C   UNL     1       7.052  31.816  61.408  1.00  0.00     0.145 C 
HETATM    4  F   UNL     1       7.012  31.329  60.158  1.00  0.00    -0.204 F 
HETATM    5  C   UNL     1       8.291  32.123  61.966  1.00  0.00     0.045 C 
HETATM    6  C   UNL     1       8.356  32.654  63.253  1.00  0.00     0.006 C 
HETATM    7  C   UNL     1       7.183  32.831  63.986  1.00  0.00     0.040 C 
ENDROOT
BRANCH   2   8
HETATM    8  N   UNL     1       4.649  31.771  61.432  1.00  0.00    -0.304 N 
HETATM    9  C   UNL     1       3.905  32.610  60.649  1.00  0.00     0.320 C 
HETATM   10  N   UNL     1       4.363  33.882  60.475  1.00  0.00    -0.342 N 
HETATM   11  O   UNL     1       2.960  32.151  60.009  1.00  0.00    -0.247 OA
HETATM   12  H   UNL     1       4.800  34.327  61.273  1.00  0.00     0.164 HD
HETATM   13  H   UNL     1       4.517  30.814  61.123  1.00  0.00     0.171 HD
BRANCH  10  14
HETATM   14  C   UNL     1       3.787  34.780  59.489  1.00  0.00     0.132 C 
BRANCH  14  15
HETATM   15  C   UNL     1       2.892  35.855  60.099  1.00  0.00     0.102 C 
BRANCH  15  16
HETATM   16  C   UNL     1       1.578  35.311  60.540  1.00  0.00     0.148 A 
HETATM   17  N   UNL     1       1.380  34.798  61.762  1.00  0.00    -0.158 NA
HETATM   18  N   UNL     1       0.090  34.434  61.700  1.00  0.00    -0.270 N 
HETATM   19  H   UNL     1      -0.345  34.006  62.508  1.00  0.00     0.190 HD
HETATM   20  C   UNL     1      -0.442  34.720  60.484  1.00  0.00     0.227 A 
HETATM   21  N   UNL     1       0.472  35.277  59.726  1.00  0.00    -0.226 NA
ENDBRANCH  15  16
ENDBRANCH  14  15
ENDBRANCH  10  14
ENDBRANCH   2   8
BRANCH   1  22
HETATM   22  O   UNL     1       4.800  32.555  64.191  1.00  0.00    -0.309 OA
BRANCH  22  23
HETATM   23  C   UNL     1       4.567  33.718  64.901  1.00  0.00     0.076 A 
HETATM   24  C   UNL     1       4.182  34.824  64.141  1.00  0.00     0.037 A 
HETATM   25  C   UNL     1       3.931  36.052  64.755  1.00  0.00     0.003 A 
HETATM   26  C   UNL     1       4.053  36.176  66.138  1.00  0.00     0.000 A 
HETATM   27  C   UNL     1       4.406  35.069  66.907  1.00  0.00     0.003 A 
HETATM   28  C   UNL     1       4.652  33.838  66.292  1.00  0.00     0.037 A 
ENDBRANCH  22  23
ENDBRANCH   1  22
TORSDOF 6
ENDMDL
MODEL 9
REMARK VINA RESULT:      -7.8      3.590      6.046
REMARK  6 active torsions:
REMARK  status: ('A' for Active; 'I' for Inactive)
REMARK    1  A    between atoms: C_4  and  O_5 
REMARK    2  A    between atoms: O_5  and  C_6 
REMARK    3  A    between atoms: C_7  and  N_8 
REMARK       I    between atoms: N_8  and  C_9 
REMARK       I    between atoms: C_9  and  N_10 
REMARK    4  A    between atoms: N_10  and  C_11 
REMARK    5  A    between atoms: C_11  and  C_12 
REMARK    6  A    between atoms: C_12  and  C_13 
ROOT
HETATM    1  C   UNL     1       6.386  26.350  56.024  1.00  0.00     0.106 C 
HETATM    2  C   UNL     1       5.806  27.599  55.774  1.00  0.00     0.109 C 
HETATM    3  C   UNL     1       6.492  28.740  56.199  1.00  0.00     0.145 C 
HETATM    4  F   UNL     1       6.003  29.957  55.914  1.00  0.00    -0.204 F 
HETATM    5  C   UNL     1       7.658  28.650  56.957  1.00  0.00     0.045 C 
HETATM    6  C   UNL     1       8.171  27.397  57.288  1.00  0.00     0.006 C 
HETATM    7  C   UNL     1       7.537  26.246  56.819  1.00  0.00     0.040 C 
ENDROOT
BRANCH   2   8
HETATM    8  N   UNL     1       4.596  27.785  55.073  1.00  0.00    -0.304 N 
HETATM    9  C   UNL     1       4.421  28.152  53.767  1.00  0.00     0.320 C 
HETATM   10  N   UNL     1       5.538  28.377  53.020  1.00  0.00    -0.342 N 
HETATM   11  O   UNL     1       3.293  28.106  53.278  1.00  0.00    -0.247 OA
HETATM   12  H   UNL     1       6.320  28.826  53.483  1.00  0.00     0.164 HD
HETATM   13  H   UNL     1       3.814  27.211  55.370  1.00  0.00     0.171 HD
BRANCH  10  14
HETATM   14  C   UNL     1       5.481  28.541  51.578  1.00  0.00     0.132 C 
BRANCH  14  15
HETATM   15  C   UNL     1       5.473  27.217  50.818  1.00  0.00     0.102 C 
BRANCH  15  16
HETATM   16  C   UNL     1       4.335  27.122  49.862  1.00  0.00     0.148 A 
HETATM   17  N   UNL     1       3.340  28.020  49.830  1.00  0.00    -0.158 NA
HETATM   18  N   UNL     1       2.564  27.530  48.851  1.00  0.00    -0.270 N 
HETATM   19  H   UNL     1       1.714  28.020  48.598  1.00  0.00     0.190 HD
HETATM   20  C   UNL     1       3.085  26.387  48.336  1.00  0.00     0.227 A 
HETATM   21  N   UNL     1       4.207  26.101  48.953  1.00  0.00    -0.226 NA
ENDBRANCH  15  16
ENDBRANCH  14  15
ENDBRANCH  10  14
ENDBRANCH   2   8
BRANCH   1  22
HETATM   22  O   UNL     1       5.824  25.219  55.474  1.00  0.00    -0.309 OA
BRANCH  22  23
HETATM   23  C   UNL     1       6.621  24.423  54.673  1.00  0.00     0.076 A 
HETATM   24  C   UNL     1       6.901  24.930  53.403  1.00  0.00     0.037 A 
HETATM   25  C   UNL     1       7.689  24.203  52.509  1.00  0.00     0.003 A 
HETATM   26  C   UNL     1       8.211  22.967  52.887  1.00  0.00     0.000 A 
HETATM   27  C   UNL     1       7.962  22.469  54.165  1.00  0.00     0.003 A 
HETATM   28  C   UNL     1       7.178  23.200  55.062  1.00  0.00     0.037 A 
ENDBRANCH  22  23
ENDBRANCH   1  22
TORSDOF 6
ENDMDL
MODEL 10
REMARK VINA RESULT:      -7.8      3.065      5.111
REMARK  6 active torsions:
REMARK  status: ('A' for Active; 'I' for Inactive)
REMARK    1  A    between atoms: C_4  and  O_5 
REMARK    2  A    between atoms: O_5  and  C_6 
REMARK    3  A    between atoms: C_7  and  N_8 
REMARK       I    between atoms: N_8  and  C_9 
REMARK       I    between atoms: C_9  and  N_10 
REMARK    4  A    between atoms: N_10  and  C_11 
REMARK    5  A    between atoms: C_11  and  C_12 
REMARK    6  A    between atoms: C_12  and  C_13 
ROOT
HETATM    1  C   UNL     1       6.730  26.123  55.679  1.00  0.00     0.106 C 
HETATM    2  C   UNL     1       7.201  27.277  55.042  1.00  0.00     0.109 C 
HETATM    3  C   UNL     1       7.995  28.158  55.781  1.00  0.00     0.145 C 
HETATM    4  F   UNL     1       8.524  29.239  55.185  1.00  0.00    -0.204 F 
HETATM    5  C   UNL     1       8.219  27.971  57.144  1.00  0.00     0.045 C 
HETATM    6  C   UNL     1       7.658  26.870  57.790  1.00  0.00     0.006 C 
HETATM    7  C   UNL     1       6.916  25.944  57.057  1.00  0.00     0.040 C 
ENDROOT
BRANCH   2   8
HETATM    8  N   UNL     1       6.970  27.584  53.684  1.00  0.00    -0.304 N 
HETATM    9  C   UNL     1       5.926  28.279  53.139  1.00  0.00     0.320 C 
HETATM   10  N   UNL     1       4.968  28.746  53.987  1.00  0.00    -0.342 N 
HETATM   11  O   UNL     1       5.973  28.595  51.950  1.00  0.00    -0.247 OA
HETATM   12  H   UNL     1       4.716  28.153  54.769  1.00  0.00     0.164 HD
HETATM   13  H   UNL     1       7.796  27.706  53.107  1.00  0.00     0.171 HD
BRANCH  10  14
HETATM   14  C   UNL     1       3.947  29.685  53.554  1.00  0.00     0.132 C 
BRANCH  14  15
HETATM   15  C   UNL     1       3.657  30.778  54.580  1.00  0.00     0.102 C 
BRANCH  15  16
HETATM   16  C   UNL     1       4.230  30.464  55.917  1.00  0.00     0.148 A 
HETATM   17  N   UNL     1       3.573  29.742  56.835  1.00  0.00    -0.158 NA
HETATM   18  N   UNL     1       4.448  29.732  57.852  1.00  0.00    -0.270 N 
HETATM   19  H   UNL     1       4.212  29.242  58.707  1.00  0.00     0.190 HD
HETATM   20  C   UNL     1       5.573  30.426  57.539  1.00  0.00     0.227 A 
HETATM   21  N   UNL     1       5.469  30.902  56.321  1.00  0.00    -0.226 NA
ENDBRANCH  15  16
ENDBRANCH  14  15
ENDBRANCH  10  14
ENDBRANCH   2   8
BRANCH   1  22
HETATM   22  O   UNL     1       6.090  25.154  54.938  1.00  0.00    -0.309 OA
BRANCH  22  23
HETATM   23  C   UNL     1       6.821  24.047  54.548  1.00  0.00     0.076 A 
HETATM   24  C   UNL     1       7.186  24.006  53.201  1.00  0.00     0.037 A 
HETATM   25  C   UNL     1       7.918  22.929  52.699  1.00  0.00     0.003 A 
HETATM   26  C   UNL     1       8.298  21.889  53.547  1.00  0.00     0.000 A 
HETATM   27  C   UNL     1       7.964  21.939  54.899  1.00  0.00     0.003 A 
HETATM   28  C   UNL     1       7.237  23.021  55.403  1.00  0.00     0.037 A 
ENDBRANCH  22  23
ENDBRANCH   1  22
TORSDOF 6
ENDMDL
