MODEL 1
REMARK VINA RESULT:      -9.7      0.000      0.000
REMARK  3 active torsions:
REMARK  status: ('A' for Active; 'I' for Inactive)
REMARK    1  A    between atoms: C_4  and  C_5 
REMARK    2  A    between atoms: C_12  and  N_13 
REMARK       I    between atoms: N_13  and  C_14 
REMARK    3  A    between atoms: C_14  and  C_15 
ROOT
HETATM    1  C   UNL     1       8.155  21.655  53.169  1.00  0.00     0.048 C 
HETATM    2  C   UNL     1       7.557  22.956  53.617  1.00  0.00    -0.060 A 
HETATM    3  C   UNL     1       7.029  23.856  52.691  1.00  0.00     0.023 A 
HETATM    4  C   UNL     1       6.435  25.057  53.112  1.00  0.00     0.020 A 
HETATM    5  C   UNL     1       6.367  25.370  54.493  1.00  0.00     0.053 A 
HETATM    6  C   UNL     1       6.828  24.430  55.438  1.00  0.00    -0.034 A 
HETATM    7  C   UNL     1       6.582  24.511  56.921  1.00  0.00     0.050 C 
HETATM    8  C   UNL     1       7.447  23.248  54.979  1.00  0.00     0.015 A 
ENDROOT
BRANCH   5   9
HETATM    9  N   UNL     1       5.653  26.526  54.860  1.00  0.00    -0.322 N 
HETATM   10  C   UNL     1       5.900  27.506  55.777  1.00  0.00     0.278 C 
HETATM   11  O   UNL     1       4.974  28.304  55.992  1.00  0.00    -0.268 OA
HETATM   12  H   UNL     1       4.846  26.749  54.284  1.00  0.00     0.169 HD
BRANCH  10  13
HETATM   13  C   UNL     1       7.299  27.755  56.405  1.00  0.00     0.366 C 
HETATM   14  O   UNL     1       8.373  28.292  55.635  1.00  0.00    -0.308 OA
HETATM   15  C   UNL     1       8.946  29.141  56.529  1.00  0.00     0.106 A 
HETATM   16  C   UNL     1       8.182  29.287  57.662  1.00  0.00     0.106 A 
HETATM   17  C   UNL     1      10.147  29.797  56.372  1.00  0.00     0.040 A 
HETATM   18  O   UNL     1       7.053  28.534  57.612  1.00  0.00    -0.308 OA
HETATM   19  C   UNL     1       8.567  30.110  58.698  1.00  0.00     0.040 A 
HETATM   20  C   UNL     1       9.786  30.782  58.571  1.00  0.00     0.003 A 
HETATM   21  C   UNL     1      10.573  30.623  57.415  1.00  0.00     0.003 A 
ENDBRANCH  10  13
ENDBRANCH   5   9
BRANCH   4  22
HETATM   22  C   UNL     1       5.918  25.956  52.079  1.00  0.00     0.064 A 
HETATM   23  N   UNL     1       4.953  25.594  51.172  1.00  0.00    -0.277 N 
HETATM   24  H   UNL     1       4.486  24.698  51.087  1.00  0.00     0.189 HD
HETATM   25  N   UNL     1       4.625  26.572  50.311  1.00  0.00    -0.179 NA
HETATM   26  C   UNL     1       5.383  27.607  50.688  1.00  0.00     0.053 A 
HETATM   27  C   UNL     1       5.302  28.904  49.973  1.00  0.00     0.072 C 
HETATM   28  C   UNL     1       6.197  27.277  51.794  1.00  0.00     0.060 A 
ENDBRANCH   4  22
TORSDOF 3
ENDMDL
MODEL 2
REMARK VINA RESULT:      -9.4      2.291      5.993
REMARK  3 active torsions:
REMARK  status: ('A' for Active; 'I' for Inactive)
REMARK    1  A    between atoms: C_4  and  C_5 
REMARK    2  A    between atoms: C_12  and  N_13 
REMARK       I    between atoms: N_13  and  C_14 
REMARK    3  A    between atoms: C_14  and  C_15 
ROOT
HETATM    1  C   UNL     1      10.303  29.773  56.332  1.00  0.00     0.048 C 
HETATM    2  C   UNL     1       9.090  28.908  56.149  1.00  0.00    -0.060 A 
HETATM    3  C   UNL     1       8.348  28.958  54.969  1.00  0.00     0.023 A 
HETATM    4  C   UNL     1       7.236  28.122  54.781  1.00  0.00     0.020 A 
HETATM    5  C   UNL     1       6.851  27.213  55.799  1.00  0.00     0.053 A 
HETATM    6  C   UNL     1       7.641  27.102  56.961  1.00  0.00    -0.034 A 
HETATM    7  C   UNL     1       7.507  26.013  57.992  1.00  0.00     0.050 C 
HETATM    8  C   UNL     1       8.733  27.979  57.130  1.00  0.00     0.015 A 
ENDROOT
BRANCH   5   9
HETATM    9  N   UNL     1       5.805  26.318  55.505  1.00  0.00    -0.322 N 
HETATM   10  C   UNL     1       5.792  25.062  54.972  1.00  0.00     0.278 C 
HETATM   11  O   UNL     1       4.680  24.606  54.666  1.00  0.00    -0.268 OA
HETATM   12  H   UNL     1       4.882  26.596  55.827  1.00  0.00     0.169 HD
BRANCH  10  13
HETATM   13  C   UNL     1       7.050  24.151  54.902  1.00  0.00     0.366 C 
HETATM   14  O   UNL     1       7.303  23.158  55.895  1.00  0.00    -0.308 OA
HETATM   15  C   UNL     1       7.769  22.133  55.136  1.00  0.00     0.106 A 
HETATM   16  C   UNL     1       7.616  22.375  53.792  1.00  0.00     0.106 A 
HETATM   17  C   UNL     1       8.342  20.970  55.603  1.00  0.00     0.040 A 
HETATM   18  O   UNL     1       7.050  23.588  53.558  1.00  0.00    -0.308 OA
HETATM   19  C   UNL     1       8.012  21.464  52.837  1.00  0.00     0.040 A 
HETATM   20  C   UNL     1       8.604  20.279  53.282  1.00  0.00     0.003 A 
HETATM   21  C   UNL     1       8.772  20.035  54.658  1.00  0.00     0.003 A 
ENDBRANCH  10  13
ENDBRANCH   5   9
BRANCH   4  22
HETATM   22  C   UNL     1       6.501  28.244  53.521  1.00  0.00     0.064 A 
HETATM   23  N   UNL     1       5.686  29.305  53.218  1.00  0.00    -0.277 N 
HETATM   24  H   UNL     1       5.483  30.116  53.793  1.00  0.00     0.189 HD
HETATM   25  N   UNL     1       5.106  29.216  52.009  1.00  0.00    -0.179 NA
HETATM   26  C   UNL     1       5.579  28.072  51.504  1.00  0.00     0.053 A 
HETATM   27  C   UNL     1       5.173  27.617  50.153  1.00  0.00     0.072 C 
HETATM   28  C   UNL     1       6.463  27.435  52.403  1.00  0.00     0.060 A 
ENDBRANCH   4  22
TORSDOF 3
ENDMDL
MODEL 3
REMARK VINA RESULT:      -9.3      1.437      1.993
REMARK  3 active torsions:
REMARK  status: ('A' for Active; 'I' for Inactive)
REMARK    1  A    between atoms: C_4  and  C_5 
REMARK    2  A    between atoms: C_12  and  N_13 
REMARK       I    between atoms: N_13  and  C_14 
REMARK    3  A    between atoms: C_14  and  C_15 
ROOT
HETATM    1  C   UNL     1       8.619  23.118  54.702  1.00  0.00     0.048 C 
HETATM    2  C   UNL     1       7.599  24.214  54.798  1.00  0.00    -0.060 A 
HETATM    3  C   UNL     1       7.195  24.916  53.662  1.00  0.00     0.023 A 
HETATM    4  C   UNL     1       6.212  25.915  53.743  1.00  0.00     0.020 A 
HETATM    5  C   UNL     1       5.617  26.226  54.993  1.00  0.00     0.053 A 
HETATM    6  C   UNL     1       5.964  25.469  56.130  1.00  0.00    -0.034 A 
HETATM    7  C   UNL     1       5.233  25.510  57.446  1.00  0.00     0.050 C 
HETATM    8  C   UNL     1       6.977  24.493  56.018  1.00  0.00     0.015 A 
ENDROOT
BRANCH   5   9
HETATM    9  N   UNL     1       4.555  27.150  54.992  1.00  0.00    -0.322 N 
HETATM   10  C   UNL     1       4.411  28.386  55.552  1.00  0.00     0.278 C 
HETATM   11  O   UNL     1       3.271  28.873  55.522  1.00  0.00    -0.268 OA
HETATM   12  H   UNL     1       3.770  26.919  54.389  1.00  0.00     0.169 HD
BRANCH  10  13
HETATM   13  C   UNL     1       5.609  29.243  56.047  1.00  0.00     0.366 C 
HETATM   14  O   UNL     1       6.107  29.124  57.378  1.00  0.00    -0.308 OA
HETATM   15  C   UNL     1       7.447  29.206  57.172  1.00  0.00     0.106 A 
HETATM   16  C   UNL     1       7.766  29.158  55.836  1.00  0.00     0.106 A 
HETATM   17  C   UNL     1       8.414  29.330  58.146  1.00  0.00     0.040 A 
HETATM   18  O   UNL     1       6.660  29.056  55.055  1.00  0.00    -0.308 OA
HETATM   19  C   UNL     1       9.071  29.215  55.396  1.00  0.00     0.040 A 
HETATM   20  C   UNL     1      10.073  29.350  56.362  1.00  0.00     0.003 A 
HETATM   21  C   UNL     1       9.745  29.411  57.729  1.00  0.00     0.003 A 
ENDBRANCH  10  13
ENDBRANCH   5   9
BRANCH   4  22
HETATM   22  C   UNL     1       5.853  26.617  52.509  1.00  0.00     0.064 A 
HETATM   23  N   UNL     1       6.029  27.965  52.324  1.00  0.00    -0.277 N 
HETATM   24  H   UNL     1       6.410  28.637  52.982  1.00  0.00     0.189 HD
HETATM   25  N   UNL     1       5.631  28.403  51.119  1.00  0.00    -0.179 NA
HETATM   26  C   UNL     1       5.206  27.300  50.494  1.00  0.00     0.053 A 
HETATM   27  C   UNL     1       4.687  27.368  49.107  1.00  0.00     0.072 C 
HETATM   28  C   UNL     1       5.336  26.157  51.315  1.00  0.00     0.060 A 
ENDBRANCH   4  22
TORSDOF 3
ENDMDL
MODEL 4
REMARK VINA RESULT:      -9.1      1.656      4.085
REMARK  3 active torsions:
REMARK  status: ('A' for Active; 'I' for Inactive)
REMARK    1  A    between atoms: C_4  and  C_5 
REMARK    2  A    between atoms: C_12  and  N_13 
REMARK       I    between atoms: N_13  and  C_14 
REMARK    3  A    between atoms: C_14  and  C_15 
ROOT
HETATM    1  C   UNL     1       5.372  28.293  50.038  1.00  0.00     0.048 C 
HETATM    2  C   UNL     1       5.301  27.690  51.409  1.00  0.00    -0.060 A 
HETATM    3  C   UNL     1       6.043  26.553  51.729  1.00  0.00     0.023 A 
HETATM    4  C   UNL     1       6.008  26.009  53.023  1.00  0.00     0.020 A 
HETATM    5  C   UNL     1       5.208  26.614  54.026  1.00  0.00     0.053 A 
HETATM    6  C   UNL     1       4.516  27.807  53.732  1.00  0.00    -0.034 A 
HETATM    7  C   UNL     1       3.851  28.690  54.754  1.00  0.00     0.050 C 
HETATM    8  C   UNL     1       4.550  28.308  52.413  1.00  0.00     0.015 A 
ENDROOT
BRANCH   5   9
HETATM    9  N   UNL     1       5.307  26.097  55.331  1.00  0.00    -0.322 N 
HETATM   10  C   UNL     1       6.030  26.486  56.422  1.00  0.00     0.278 C 
HETATM   11  O   UNL     1       6.039  25.703  57.384  1.00  0.00    -0.268 OA
HETATM   12  H   UNL     1       4.657  25.351  55.562  1.00  0.00     0.169 HD
BRANCH  10  13
HETATM   13  C   UNL     1       6.672  27.894  56.562  1.00  0.00     0.366 C 
HETATM   14  O   UNL     1       6.597  28.625  57.785  1.00  0.00    -0.308 OA
HETATM   15  C   UNL     1       7.840  29.169  57.849  1.00  0.00     0.106 A 
HETATM   16  C   UNL     1       8.677  28.657  56.887  1.00  0.00     0.106 A 
HETATM   17  C   UNL     1       8.263  30.127  58.745  1.00  0.00     0.040 A 
HETATM   18  O   UNL     1       8.047  27.745  56.102  1.00  0.00    -0.308 OA
HETATM   19  C   UNL     1       9.990  29.060  56.774  1.00  0.00     0.040 A 
HETATM   20  C   UNL     1      10.445  30.037  57.664  1.00  0.00     0.003 A 
HETATM   21  C   UNL     1       9.584  30.570  58.642  1.00  0.00     0.003 A 
ENDBRANCH  10  13
ENDBRANCH   5   9
BRANCH   4  22
HETATM   22  C   UNL     1       6.803  24.806  53.276  1.00  0.00     0.064 A 
HETATM   23  N   UNL     1       7.964  24.805  54.008  1.00  0.00    -0.277 N 
HETATM   24  H   UNL     1       8.418  25.595  54.454  1.00  0.00     0.189 HD
HETATM   25  N   UNL     1       8.535  23.594  54.116  1.00  0.00    -0.179 NA
HETATM   26  C   UNL     1       7.705  22.781  53.453  1.00  0.00     0.053 A 
HETATM   27  C   UNL     1       7.989  21.329  53.351  1.00  0.00     0.072 C 
HETATM   28  C   UNL     1       6.603  23.487  52.922  1.00  0.00     0.060 A 
ENDBRANCH   4  22
TORSDOF 3
ENDMDL
MODEL 5
REMARK VINA RESULT:      -9.1      3.043      6.596
REMARK  3 active torsions:
REMARK  status: ('A' for Active; 'I' for Inactive)
REMARK    1  A    between atoms: C_4  and  C_5 
REMARK    2  A    between atoms: C_12  and  N_13 
REMARK       I    between atoms: N_13  and  C_14 
REMARK    3  A    between atoms: C_14  and  C_15 
ROOT
HETATM    1  C   UNL     1       8.702  30.976  60.967  1.00  0.00     0.048 C 
HETATM    2  C   UNL     1       8.491  30.515  59.554  1.00  0.00    -0.060 A 
HETATM    3  C   UNL     1       7.232  30.586  58.959  1.00  0.00     0.023 A 
HETATM    4  C   UNL     1       7.041  30.191  57.626  1.00  0.00     0.020 A 
HETATM    5  C   UNL     1       8.136  29.711  56.864  1.00  0.00     0.053 A 
HETATM    6  C   UNL     1       9.426  29.709  57.433  1.00  0.00    -0.034 A 
HETATM    7  C   UNL     1      10.703  29.479  56.669  1.00  0.00     0.050 C 
HETATM    8  C   UNL     1       9.576  30.083  58.785  1.00  0.00     0.015 A 
ENDROOT
BRANCH   5   9
HETATM    9  N   UNL     1       7.909  29.446  55.500  1.00  0.00    -0.322 N 
HETATM   10  C   UNL     1       7.647  28.293  54.819  1.00  0.00     0.278 C 
HETATM   11  O   UNL     1       7.678  28.366  53.581  1.00  0.00    -0.268 OA
HETATM   12  H   UNL     1       7.825  30.261  54.900  1.00  0.00     0.169 HD
BRANCH  10  13
HETATM   13  C   UNL     1       7.158  26.987  55.507  1.00  0.00     0.366 C 
HETATM   14  O   UNL     1       6.695  25.875  54.742  1.00  0.00    -0.308 OA
HETATM   15  C   UNL     1       7.228  24.834  55.434  1.00  0.00     0.106 A 
HETATM   16  C   UNL     1       8.114  25.255  56.397  1.00  0.00     0.106 A 
HETATM   17  C   UNL     1       6.947  23.500  55.239  1.00  0.00     0.040 A 
HETATM   18  O   UNL     1       8.222  26.608  56.427  1.00  0.00    -0.308 OA
HETATM   19  C   UNL     1       8.781  24.366  57.212  1.00  0.00     0.040 A 
HETATM   20  C   UNL     1       8.508  23.006  57.043  1.00  0.00     0.003 A 
HETATM   21  C   UNL     1       7.593  22.575  56.064  1.00  0.00     0.003 A 
ENDBRANCH  10  13
ENDBRANCH   5   9
BRANCH   4  22
HETATM   22  C   UNL     1       5.686  30.281  57.078  1.00  0.00     0.064 A 
HETATM   23  N   UNL     1       4.750  29.286  57.202  1.00  0.00    -0.277 N 
HETATM   24  H   UNL     1       4.856  28.388  57.663  1.00  0.00     0.189 HD
HETATM   25  N   UNL     1       3.572  29.574  56.625  1.00  0.00    -0.179 NA
HETATM   26  C   UNL     1       3.743  30.806  56.132  1.00  0.00     0.053 A 
HETATM   27  C   UNL     1       2.642  31.493  55.415  1.00  0.00     0.072 C 
HETATM   28  C   UNL     1       5.040  31.296  56.401  1.00  0.00     0.060 A 
ENDBRANCH   4  22
TORSDOF 3
ENDMDL
MODEL 6
REMARK VINA RESULT:      -9.0      4.071      8.183
REMARK  3 active torsions:
REMARK  status: ('A' for Active; 'I' for Inactive)
REMARK    1  A    between atoms: C_4  and  C_5 
REMARK    2  A    between atoms: C_12  and  N_13 
REMARK       I    between atoms: N_13  and  C_14 
REMARK    3  A    between atoms: C_14  and  C_15 
ROOT
HETATM    1  C   UNL     1       5.508  32.806  63.785  1.00  0.00     0.048 C 
HETATM    2  C   UNL     1       6.191  32.390  62.515  1.00  0.00    -0.060 A 
HETATM    3  C   UNL     1       5.504  32.386  61.302  1.00  0.00     0.023 A 
HETATM    4  C   UNL     1       6.152  32.034  60.107  1.00  0.00     0.020 A 
HETATM    5  C   UNL     1       7.523  31.673  60.123  1.00  0.00     0.053 A 
HETATM    6  C   UNL     1       8.244  31.750  61.332  1.00  0.00    -0.034 A 
HETATM    7  C   UNL     1       9.742  31.654  61.448  1.00  0.00     0.050 C 
HETATM    8  C   UNL     1       7.554  32.078  62.518  1.00  0.00     0.015 A 
ENDROOT
BRANCH   5   9
HETATM    9  N   UNL     1       8.147  31.449  58.881  1.00  0.00    -0.322 N 
HETATM   10  C   UNL     1       8.313  30.324  58.126  1.00  0.00     0.278 C 
HETATM   11  O   UNL     1       9.078  30.422  57.155  1.00  0.00    -0.268 OA
HETATM   12  H   UNL     1       8.459  32.279  58.387  1.00  0.00     0.169 HD
BRANCH  10  13
HETATM   13  C   UNL     1       7.477  29.030  58.327  1.00  0.00     0.366 C 
HETATM   14  O   UNL     1       6.239  28.833  57.647  1.00  0.00    -0.308 OA
HETATM   15  C   UNL     1       6.317  27.516  57.322  1.00  0.00     0.106 A 
HETATM   16  C   UNL     1       7.565  26.997  57.574  1.00  0.00     0.106 A 
HETATM   17  C   UNL     1       5.300  26.744  56.805  1.00  0.00     0.040 A 
HETATM   18  O   UNL     1       8.403  27.927  58.100  1.00  0.00    -0.308 OA
HETATM   19  C   UNL     1       7.872  25.680  57.310  1.00  0.00     0.040 A 
HETATM   20  C   UNL     1       6.857  24.870  56.793  1.00  0.00     0.003 A 
HETATM   21  C   UNL     1       5.576  25.399  56.546  1.00  0.00     0.003 A 
ENDBRANCH  10  13
ENDBRANCH   5   9
BRANCH   4  22
HETATM   22  C   UNL     1       5.358  32.039  58.877  1.00  0.00     0.064 A 
HETATM   23  N   UNL     1       4.486  31.037  58.532  1.00  0.00    -0.277 N 
HETATM   24  H   UNL     1       4.278  30.190  59.050  1.00  0.00     0.189 HD
HETATM   25  N   UNL     1       3.861  31.242  57.361  1.00  0.00    -0.179 NA
HETATM   26  C   UNL     1       4.324  32.425  56.946  1.00  0.00     0.053 A 
HETATM   27  C   UNL     1       3.856  33.015  55.668  1.00  0.00     0.072 C 
HETATM   28  C   UNL     1       5.251  32.969  57.863  1.00  0.00     0.060 A 
ENDBRANCH   4  22
TORSDOF 3
ENDMDL
MODEL 7
REMARK VINA RESULT:      -8.9      9.906     13.500
REMARK  3 active torsions:
REMARK  status: ('A' for Active; 'I' for Inactive)
REMARK    1  A    between atoms: C_4  and  C_5 
REMARK    2  A    between atoms: C_12  and  N_13 
REMARK       I    between atoms: N_13  and  C_14 
REMARK    3  A    between atoms: C_14  and  C_15 
ROOT
HETATM    1  C   UNL     1       7.254  34.666  68.961  1.00  0.00     0.048 C 
HETATM    2  C   UNL     1       6.411  34.527  67.728  1.00  0.00    -0.060 A 
HETATM    3  C   UNL     1       6.899  33.869  66.599  1.00  0.00     0.023 A 
HETATM    4  C   UNL     1       6.098  33.705  65.457  1.00  0.00     0.020 A 
HETATM    5  C   UNL     1       4.774  34.213  65.440  1.00  0.00     0.053 A 
HETATM    6  C   UNL     1       4.248  34.810  66.604  1.00  0.00    -0.034 A 
HETATM    7  C   UNL     1       2.797  35.152  66.814  1.00  0.00     0.050 C 
HETATM    8  C   UNL     1       5.091  34.986  67.721  1.00  0.00     0.015 A 
ENDROOT
BRANCH   5   9
HETATM    9  N   UNL     1       3.981  33.913  64.317  1.00  0.00    -0.322 N 
HETATM   10  C   UNL     1       3.350  34.701  63.400  1.00  0.00     0.278 C 
HETATM   11  O   UNL     1       2.567  34.128  62.626  1.00  0.00    -0.268 OA
HETATM   12  H   UNL     1       3.930  32.930  64.062  1.00  0.00     0.169 HD
BRANCH  10  13
HETATM   13  C   UNL     1       3.693  36.201  63.183  1.00  0.00     0.366 C 
HETATM   14  O   UNL     1       4.234  36.998  64.236  1.00  0.00    -0.308 OA
HETATM   15  C   UNL     1       5.154  37.740  63.566  1.00  0.00     0.106 A 
HETATM   16  C   UNL     1       5.329  37.300  62.276  1.00  0.00     0.106 A 
HETATM   17  C   UNL     1       5.853  38.816  64.068  1.00  0.00     0.040 A 
HETATM   18  O   UNL     1       4.525  36.244  61.988  1.00  0.00    -0.308 OA
HETATM   19  C   UNL     1       6.223  37.901  61.416  1.00  0.00     0.040 A 
HETATM   20  C   UNL     1       6.939  39.001  61.895  1.00  0.00     0.003 A 
HETATM   21  C   UNL     1       6.752  39.458  63.213  1.00  0.00     0.003 A 
ENDBRANCH  10  13
ENDBRANCH   5   9
BRANCH   4  22
HETATM   22  C   UNL     1       6.688  33.017  64.308  1.00  0.00     0.064 A 
HETATM   23  N   UNL     1       5.967  32.234  63.441  1.00  0.00    -0.277 N 
HETATM   24  H   UNL     1       4.975  32.026  63.471  1.00  0.00     0.189 HD
HETATM   25  N   UNL     1       6.705  31.695  62.456  1.00  0.00    -0.179 NA
HETATM   26  C   UNL     1       7.938  32.163  62.678  1.00  0.00     0.053 A 
HETATM   27  C   UNL     1       9.059  31.795  61.781  1.00  0.00     0.072 C 
HETATM   28  C   UNL     1       7.976  33.002  63.813  1.00  0.00     0.060 A 
ENDBRANCH   4  22
TORSDOF 3
ENDMDL
MODEL 8
REMARK VINA RESULT:      -8.9      9.716     13.400
REMARK  3 active torsions:
REMARK  status: ('A' for Active; 'I' for Inactive)
REMARK    1  A    between atoms: C_4  and  C_5 
REMARK    2  A    between atoms: C_12  and  N_13 
REMARK       I    between atoms: N_13  and  C_14 
REMARK    3  A    between atoms: C_14  and  C_15 
ROOT
HETATM    1  C   UNL     1       7.024  39.100  61.828  1.00  0.00     0.048 C 
HETATM    2  C   UNL     1       6.028  38.043  62.205  1.00  0.00    -0.060 A 
HETATM    3  C   UNL     1       6.143  37.349  63.410  1.00  0.00     0.023 A 
HETATM    4  C   UNL     1       5.191  36.387  63.781  1.00  0.00     0.020 A 
HETATM    5  C   UNL     1       4.094  36.106  62.927  1.00  0.00     0.053 A 
HETATM    6  C   UNL     1       3.929  36.857  61.746  1.00  0.00    -0.034 A 
HETATM    7  C   UNL     1       2.690  36.852  60.889  1.00  0.00     0.050 C 
HETATM    8  C   UNL     1       4.921  37.794  61.388  1.00  0.00     0.015 A 
ENDROOT
BRANCH   5   9
HETATM    9  N   UNL     1       3.110  35.222  63.408  1.00  0.00    -0.322 N 
HETATM   10  C   UNL     1       2.849  33.908  63.149  1.00  0.00     0.278 C 
HETATM   11  O   UNL     1       1.784  33.459  63.599  1.00  0.00    -0.268 OA
HETATM   12  H   UNL     1       2.528  35.576  64.161  1.00  0.00     0.169 HD
BRANCH  10  13
HETATM   13  C   UNL     1       3.878  32.947  62.489  1.00  0.00     0.366 C 
HETATM   14  O   UNL     1       4.498  33.266  61.245  1.00  0.00    -0.308 OA
HETATM   15  C   UNL     1       5.770  32.840  61.462  1.00  0.00     0.106 A 
HETATM   16  C   UNL     1       5.981  32.497  62.776  1.00  0.00     0.106 A 
HETATM   17  C   UNL     1       6.766  32.740  60.515  1.00  0.00     0.040 A 
HETATM   18  O   UNL     1       4.860  32.654  63.526  1.00  0.00    -0.308 OA
HETATM   19  C   UNL     1       7.204  32.048  63.223  1.00  0.00     0.040 A 
HETATM   20  C   UNL     1       8.232  31.926  62.284  1.00  0.00     0.003 A 
HETATM   21  C   UNL     1       8.012  32.267  60.936  1.00  0.00     0.003 A 
ENDBRANCH  10  13
ENDBRANCH   5   9
BRANCH   4  22
HETATM   22  C   UNL     1       5.390  35.691  65.054  1.00  0.00     0.064 A 
HETATM   23  N   UNL     1       6.346  34.727  65.250  1.00  0.00    -0.277 N 
HETATM   24  H   UNL     1       7.017  34.371  64.577  1.00  0.00     0.189 HD
HETATM   25  N   UNL     1       6.355  34.217  66.493  1.00  0.00    -0.179 NA
HETATM   26  C   UNL     1       5.390  34.890  67.129  1.00  0.00     0.053 A 
HETATM   27  C   UNL     1       5.091  34.617  68.555  1.00  0.00     0.072 C 
HETATM   28  C   UNL     1       4.767  35.830  66.278  1.00  0.00     0.060 A 
ENDBRANCH   4  22
TORSDOF 3
ENDMDL
MODEL 9
REMARK VINA RESULT:      -8.8      3.848      7.561
REMARK  3 active torsions:
REMARK  status: ('A' for Active; 'I' for Inactive)
REMARK    1  A    between atoms: C_4  and  C_5 
REMARK    2  A    between atoms: C_12  and  N_13 
REMARK       I    between atoms: N_13  and  C_14 
REMARK    3  A    between atoms: C_14  and  C_15 
ROOT
HETATM    1  C   UNL     1       5.435  25.227  57.035  1.00  0.00     0.048 C 
HETATM    2  C   UNL     1       5.534  26.125  55.838  1.00  0.00    -0.060 A 
HETATM    3  C   UNL     1       5.112  27.453  55.904  1.00  0.00     0.023 A 
HETATM    4  C   UNL     1       5.239  28.306  54.796  1.00  0.00     0.020 A 
HETATM    5  C   UNL     1       5.801  27.822  53.588  1.00  0.00     0.053 A 
HETATM    6  C   UNL     1       6.301  26.504  53.538  1.00  0.00    -0.034 A 
HETATM    7  C   UNL     1       7.149  25.948  52.425  1.00  0.00     0.050 C 
HETATM    8  C   UNL     1       6.128  25.666  54.659  1.00  0.00     0.015 A 
ENDROOT
BRANCH   5   9
HETATM    9  N   UNL     1       6.014  28.753  52.554  1.00  0.00    -0.322 N 
HETATM   10  C   UNL     1       5.557  28.822  51.270  1.00  0.00     0.278 C 
HETATM   11  O   UNL     1       6.081  29.682  50.545  1.00  0.00    -0.268 OA
HETATM   12  H   UNL     1       6.524  29.593  52.814  1.00  0.00     0.169 HD
BRANCH  10  13
HETATM   13  C   UNL     1       4.333  28.014  50.755  1.00  0.00     0.366 C 
HETATM   14  O   UNL     1       3.198  28.668  50.190  1.00  0.00    -0.308 OA
HETATM   15  C   UNL     1       2.895  27.836  49.160  1.00  0.00     0.106 A 
HETATM   16  C   UNL     1       3.867  26.885  48.963  1.00  0.00     0.106 A 
HETATM   17  C   UNL     1       1.762  27.890  48.378  1.00  0.00     0.040 A 
HETATM   18  O   UNL     1       4.881  27.004  49.858  1.00  0.00    -0.308 OA
HETATM   19  C   UNL     1       3.771  25.941  47.963  1.00  0.00     0.040 A 
HETATM   20  C   UNL     1       2.628  25.966  47.159  1.00  0.00     0.003 A 
HETATM   21  C   UNL     1       1.627  26.933  47.368  1.00  0.00     0.003 A 
ENDBRANCH  10  13
ENDBRANCH   5   9
BRANCH   4  22
HETATM   22  C   UNL     1       4.759  29.682  54.940  1.00  0.00     0.064 A 
HETATM   23  N   UNL     1       5.524  30.704  55.443  1.00  0.00    -0.277 N 
HETATM   24  H   UNL     1       6.482  30.657  55.774  1.00  0.00     0.189 HD
HETATM   25  N   UNL     1       4.888  31.886  55.488  1.00  0.00    -0.179 NA
HETATM   26  C   UNL     1       3.680  31.626  54.977  1.00  0.00     0.053 A 
HETATM   27  C   UNL     1       2.667  32.701  54.847  1.00  0.00     0.072 C 
HETATM   28  C   UNL     1       3.555  30.269  54.607  1.00  0.00     0.060 A 
ENDBRANCH   4  22
TORSDOF 3
ENDMDL
MODEL 10
REMARK VINA RESULT:      -8.8      2.640      4.802
REMARK  3 active torsions:
REMARK  status: ('A' for Active; 'I' for Inactive)
REMARK    1  A    between atoms: C_4  and  C_5 
REMARK    2  A    between atoms: C_12  and  N_13 
REMARK       I    between atoms: N_13  and  C_14 
REMARK    3  A    between atoms: C_14  and  C_15 
ROOT
HETATM    1  C   UNL     1       4.147  32.665  53.343  1.00  0.00     0.048 C 
HETATM    2  C   UNL     1       4.006  31.171  53.330  1.00  0.00    -0.060 A 
HETATM    3  C   UNL     1       4.006  30.464  52.127  1.00  0.00     0.023 A 
HETATM    4  C   UNL     1       3.913  29.063  52.115  1.00  0.00     0.020 A 
HETATM    5  C   UNL     1       3.815  28.347  53.335  1.00  0.00     0.053 A 
HETATM    6  C   UNL     1       3.892  29.048  54.555  1.00  0.00    -0.034 A 
HETATM    7  C   UNL     1       4.064  28.406  55.907  1.00  0.00     0.050 C 
HETATM    8  C   UNL     1       3.954  30.457  54.530  1.00  0.00     0.015 A 
ENDROOT
BRANCH   5   9
HETATM    9  N   UNL     1       3.846  26.942  53.264  1.00  0.00    -0.322 N 
HETATM   10  C   UNL     1       4.874  26.044  53.265  1.00  0.00     0.278 C 
HETATM   11  O   UNL     1       4.578  24.868  53.002  1.00  0.00    -0.268 OA
HETATM   12  H   UNL     1       2.945  26.476  53.317  1.00  0.00     0.169 HD
BRANCH  10  13
HETATM   13  C   UNL     1       6.314  26.395  53.735  1.00  0.00     0.366 C 
HETATM   14  O   UNL     1       6.862  27.697  53.536  1.00  0.00    -0.308 OA
HETATM   15  C   UNL     1       7.527  27.889  54.705  1.00  0.00     0.106 A 
HETATM   16  C   UNL     1       7.242  26.911  55.627  1.00  0.00     0.106 A 
HETATM   17  C   UNL     1       8.397  28.920  54.985  1.00  0.00     0.040 A 
HETATM   18  O   UNL     1       6.379  25.986  55.132  1.00  0.00    -0.308 OA
HETATM   19  C   UNL     1       7.798  26.913  56.887  1.00  0.00     0.040 A 
HETATM   20  C   UNL     1       8.693  27.942  57.197  1.00  0.00     0.003 A 
HETATM   21  C   UNL     1       8.993  28.938  56.249  1.00  0.00     0.003 A 
ENDBRANCH  10  13
ENDBRANCH   5   9
BRANCH   4  22
HETATM   22  C   UNL     1       3.904  28.395  50.812  1.00  0.00     0.064 A 
HETATM   23  N   UNL     1       2.763  28.165  50.085  1.00  0.00    -0.277 N 
HETATM   24  H   UNL     1       1.810  28.408  50.332  1.00  0.00     0.189 HD
HETATM   25  N   UNL     1       2.982  27.537  48.918  1.00  0.00    -0.179 NA
HETATM   26  C   UNL     1       4.309  27.376  48.877  1.00  0.00     0.053 A 
HETATM   27  C   UNL     1       4.956  26.717  47.717  1.00  0.00     0.072 C 
HETATM   28  C   UNL     1       4.931  27.907  50.029  1.00  0.00     0.060 A 
ENDBRANCH   4  22
TORSDOF 3
ENDMDL
