MODEL 1
REMARK VINA RESULT:     -11.5      0.000      0.000
REMARK  9 active torsions:
REMARK  status: ('A' for Active; 'I' for Inactive)
REMARK    1  A    between atoms: C_2  and  C_3 
REMARK    2  A    between atoms: C_4  and  N_5 
REMARK       I    between atoms: N_5  and  C_6 
REMARK    3  A    between atoms: C_6  and  C_7 
REMARK    4  A    between atoms: C_7  and  N_8 
REMARK    5  A    between atoms: N_12  and  C_13 
REMARK    6  A    between atoms: C_15  and  N_16 
REMARK    7  A    between atoms: N_16  and  C_17 
REMARK    8  A    between atoms: C_24  and  N_25 
REMARK    9  A    between atoms: N_25  and  C_26 
ROOT
HETATM    1  C   UNL     1       5.752  26.778  55.150  1.00  0.00     0.240 A 
HETATM    2  N   UNL     1       6.736  25.918  54.955  1.00  0.00    -0.030 NA
HETATM    3  C   UNL     1       6.878  25.441  53.722  1.00  0.00     0.745 A 
HETATM    4  N   UNL     1       6.091  25.772  52.710  1.00  0.00     0.131 NA
HETATM    5  C   UNL     1       5.164  26.686  52.972  1.00  0.00     0.745 A 
HETATM    6  N   UNL     1       4.930  27.157  54.191  1.00  0.00    -0.030 NA
ENDROOT
BRANCH   1   7
HETATM    7  N   UNL     1       5.530  27.273  56.438  1.00  0.00    -0.247 NA
HETATM    8  C   UNL     1       5.259  28.716  56.529  1.00  0.00     0.126 C 
HETATM    9  C   UNL     1       6.554  29.554  56.464  1.00  0.00     0.250 C 
HETATM   10  N   UNL     1       7.558  29.048  57.490  1.00  0.00    -0.060 N 
HETATM   11  H   UNL     1       7.144  29.149  58.433  1.00  0.00     0.280 HD
HETATM   12  C   UNL     1       7.830  27.547  57.332  1.00  0.00     0.250 C 
HETATM   13  C   UNL     1       6.502  26.758  57.418  1.00  0.00     0.126 C 
BRANCH  10  14
HETATM   14  C   UNL     1       8.832  29.885  57.546  1.00  0.00     0.337 C 
BRANCH  14  15
HETATM   15  C   UNL     1       8.760  30.882  58.706  1.00  0.00     0.248 C 
HETATM   16  N   UNL     1       7.919  30.507  59.735  1.00  0.00    -0.325 N 
HETATM   17  H   UNL     1       7.174  29.865  59.489  1.00  0.00     0.169 HD
HETATM   18  O   UNL     1       9.398  31.932  58.608  1.00  0.00    -0.271 OA
BRANCH  16  19
HETATM   19  C   UNL     1       7.615  31.368  60.820  1.00  0.00     0.047 A 
HETATM   20  C   UNL     1       6.577  32.325  60.762  1.00  0.00    -0.031 A 
HETATM   21  C   UNL     1       6.317  33.109  61.902  1.00  0.00     0.009 A 
HETATM   22  C   UNL     1       7.079  32.978  63.058  1.00  0.00     0.001 A 
HETATM   23  C   UNL     1       8.136  32.078  63.090  1.00  0.00     0.009 A 
HETATM   24  C   UNL     1       8.426  31.274  61.978  1.00  0.00    -0.035 A 
HETATM   25  C   UNL     1       9.576  30.308  62.088  1.00  0.00     0.050 C 
BRANCH  20  26
HETATM   26  C   UNL     1       5.817  32.692  59.502  1.00  0.00     0.036 C 
HETATM   27  C   UNL     1       4.672  33.654  59.791  1.00  0.00     0.010 C 
ENDBRANCH  20  26
ENDBRANCH  16  19
ENDBRANCH  14  15
ENDBRANCH  10  14
ENDBRANCH   1   7
BRANCH   3  28
HETATM   28  N   UNL     1       7.843  24.470  53.460  1.00  0.00    -0.188 N 
HETATM   29  H   UNL     1       8.711  24.900  53.169  1.00  0.00     0.184 HD
BRANCH  28  30
HETATM   30  C   UNL     1       7.935  23.126  53.849  1.00  0.00     0.049 A 
HETATM   31  C   UNL     1       8.006  22.141  52.854  1.00  0.00     0.030 A 
HETATM   32  C   UNL     1       8.046  20.783  53.184  1.00  0.00     0.002 A 
HETATM   33  C   UNL     1       8.011  20.388  54.517  1.00  0.00     0.000 A 
HETATM   34  C   UNL     1       7.931  21.351  55.520  1.00  0.00     0.002 A 
HETATM   35  C   UNL     1       7.883  22.707  55.185  1.00  0.00     0.030 A 
ENDBRANCH  28  30
ENDBRANCH   3  28
BRANCH   5  36
HETATM   36  N   UNL     1       4.386  27.107  51.892  1.00  0.00    -0.188 N 
HETATM   37  H   UNL     1       3.445  26.748  51.988  1.00  0.00     0.184 HD
BRANCH  36  38
HETATM   38  C   UNL     1       4.754  27.395  50.564  1.00  0.00     0.049 A 
HETATM   39  C   UNL     1       5.353  28.597  50.169  1.00  0.00     0.030 A 
HETATM   40  C   UNL     1       5.675  28.840  48.829  1.00  0.00     0.002 A 
HETATM   41  C   UNL     1       5.379  27.890  47.858  1.00  0.00     0.000 A 
HETATM   42  C   UNL     1       4.758  26.701  48.224  1.00  0.00     0.002 A 
HETATM   43  C   UNL     1       4.444  26.459  49.566  1.00  0.00     0.030 A 
ENDBRANCH  36  38
ENDBRANCH   5  36
TORSDOF 9
ENDMDL
MODEL 2
REMARK VINA RESULT:     -11.4      0.222      4.880
REMARK  9 active torsions:
REMARK  status: ('A' for Active; 'I' for Inactive)
REMARK    1  A    between atoms: C_2  and  C_3 
REMARK    2  A    between atoms: C_4  and  N_5 
REMARK       I    between atoms: N_5  and  C_6 
REMARK    3  A    between atoms: C_6  and  C_7 
REMARK    4  A    between atoms: C_7  and  N_8 
REMARK    5  A    between atoms: N_12  and  C_13 
REMARK    6  A    between atoms: C_15  and  N_16 
REMARK    7  A    between atoms: N_16  and  C_17 
REMARK    8  A    between atoms: C_24  and  N_25 
REMARK    9  A    between atoms: N_25  and  C_26 
ROOT
HETATM    1  C   UNL     1       5.461  26.954  55.088  1.00  0.00     0.240 A 
HETATM    2  N   UNL     1       4.683  27.268  54.068  1.00  0.00    -0.030 NA
HETATM    3  C   UNL     1       4.988  26.724  52.893  1.00  0.00     0.745 A 
HETATM    4  N   UNL     1       6.015  25.910  52.705  1.00  0.00     0.131 NA
HETATM    5  C   UNL     1       6.712  25.595  53.790  1.00  0.00     0.745 A 
HETATM    6  N   UNL     1       6.500  26.149  54.977  1.00  0.00    -0.030 NA
ENDROOT
BRANCH   1   7
HETATM    7  N   UNL     1       5.213  27.537  56.334  1.00  0.00    -0.247 NA
HETATM    8  C   UNL     1       5.079  29.001  56.340  1.00  0.00     0.126 C 
HETATM    9  C   UNL     1       6.452  29.709  56.318  1.00  0.00     0.250 C 
HETATM   10  N   UNL     1       7.339  29.166  57.428  1.00  0.00    -0.060 N 
HETATM   11  H   UNL     1       6.882  29.356  58.338  1.00  0.00     0.280 HD
HETATM   12  C   UNL     1       7.472  27.640  57.360  1.00  0.00     0.250 C 
HETATM   13  C   UNL     1       6.071  26.986  57.397  1.00  0.00     0.126 C 
BRANCH  10  14
HETATM   14  C   UNL     1       8.683  29.881  57.527  1.00  0.00     0.337 C 
BRANCH  14  15
HETATM   15  C   UNL     1       8.669  30.878  58.688  1.00  0.00     0.248 C 
HETATM   16  N   UNL     1       7.808  30.549  59.717  1.00  0.00    -0.325 N 
HETATM   17  H   UNL     1       7.027  29.952  59.470  1.00  0.00     0.169 HD
HETATM   18  O   UNL     1       9.367  31.889  58.593  1.00  0.00    -0.271 OA
BRANCH  16  19
HETATM   19  C   UNL     1       7.554  31.424  60.805  1.00  0.00     0.047 A 
HETATM   20  C   UNL     1       6.510  32.376  60.786  1.00  0.00    -0.031 A 
HETATM   21  C   UNL     1       6.304  33.175  61.927  1.00  0.00     0.009 A 
HETATM   22  C   UNL     1       7.124  33.062  63.045  1.00  0.00     0.001 A 
HETATM   23  C   UNL     1       8.186  32.168  63.036  1.00  0.00     0.009 A 
HETATM   24  C   UNL     1       8.423  31.350  61.921  1.00  0.00    -0.035 A 
HETATM   25  C   UNL     1       9.583  30.390  61.986  1.00  0.00     0.050 C 
BRANCH  20  26
HETATM   26  C   UNL     1       5.686  32.721  59.561  1.00  0.00     0.036 C 
HETATM   27  C   UNL     1       4.669  33.817  59.854  1.00  0.00     0.010 C 
ENDBRANCH  20  26
ENDBRANCH  16  19
ENDBRANCH  14  15
ENDBRANCH  10  14
ENDBRANCH   1   7
BRANCH   3  28
HETATM   28  N   UNL     1       4.260  27.073  51.757  1.00  0.00    -0.188 N 
HETATM   29  H   UNL     1       3.362  27.460  52.014  1.00  0.00     0.184 HD
BRANCH  28  30
HETATM   30  C   UNL     1       4.662  27.304  50.434  1.00  0.00     0.049 A 
HETATM   31  C   UNL     1       5.348  28.491  50.137  1.00  0.00     0.030 A 
HETATM   32  C   UNL     1       5.727  28.797  48.826  1.00  0.00     0.002 A 
HETATM   33  C   UNL     1       5.421  27.921  47.790  1.00  0.00     0.000 A 
HETATM   34  C   UNL     1       4.733  26.742  48.063  1.00  0.00     0.002 A 
HETATM   35  C   UNL     1       4.349  26.444  49.373  1.00  0.00     0.030 A 
ENDBRANCH  28  30
ENDBRANCH   3  28
BRANCH   5  36
HETATM   36  N   UNL     1       7.743  24.670  53.617  1.00  0.00    -0.188 N 
HETATM   37  H   UNL     1       8.312  24.935  52.823  1.00  0.00     0.184 HD
BRANCH  36  38
HETATM   38  C   UNL     1       7.791  23.296  53.919  1.00  0.00     0.049 A 
HETATM   39  C   UNL     1       7.747  22.786  55.222  1.00  0.00     0.030 A 
HETATM   40  C   UNL     1       7.824  21.410  55.465  1.00  0.00     0.002 A 
HETATM   41  C   UNL     1       7.973  20.522  54.405  1.00  0.00     0.000 A 
HETATM   42  C   UNL     1       8.048  21.009  53.104  1.00  0.00     0.002 A 
HETATM   43  C   UNL     1       7.963  22.385  52.866  1.00  0.00     0.030 A 
ENDBRANCH  36  38
ENDBRANCH   5  36
TORSDOF 9
ENDMDL
MODEL 3
REMARK VINA RESULT:     -10.7      2.992      9.942
REMARK  9 active torsions:
REMARK  status: ('A' for Active; 'I' for Inactive)
REMARK    1  A    between atoms: C_2  and  C_3 
REMARK    2  A    between atoms: C_4  and  N_5 
REMARK       I    between atoms: N_5  and  C_6 
REMARK    3  A    between atoms: C_6  and  C_7 
REMARK    4  A    between atoms: C_7  and  N_8 
REMARK    5  A    between atoms: N_12  and  C_13 
REMARK    6  A    between atoms: C_15  and  N_16 
REMARK    7  A    between atoms: N_16  and  C_17 
REMARK    8  A    between atoms: C_24  and  N_25 
REMARK    9  A    between atoms: N_25  and  C_26 
ROOT
HETATM    1  C   UNL     1       5.840  26.372  55.249  1.00  0.00     0.240 A 
HETATM    2  N   UNL     1       6.171  27.353  56.070  1.00  0.00    -0.030 NA
HETATM    3  C   UNL     1       7.240  27.157  56.837  1.00  0.00     0.745 A 
HETATM    4  N   UNL     1       7.962  26.047  56.822  1.00  0.00     0.131 NA
HETATM    5  C   UNL     1       7.602  25.134  55.927  1.00  0.00     0.745 A 
HETATM    6  N   UNL     1       6.513  25.240  55.176  1.00  0.00    -0.030 NA
ENDROOT
BRANCH   1   7
HETATM    7  N   UNL     1       4.699  26.508  54.455  1.00  0.00    -0.247 NA
HETATM    8  C   UNL     1       4.709  25.764  53.187  1.00  0.00     0.126 C 
HETATM    9  C   UNL     1       5.518  26.493  52.092  1.00  0.00     0.250 C 
HETATM   10  N   UNL     1       5.040  27.932  51.959  1.00  0.00    -0.060 N 
HETATM   11  H   UNL     1       4.042  27.924  51.685  1.00  0.00     0.280 HD
HETATM   12  C   UNL     1       5.078  28.674  53.301  1.00  0.00     0.250 C 
HETATM   13  C   UNL     1       4.244  27.906  54.353  1.00  0.00     0.126 C 
BRANCH  10  14
HETATM   14  C   UNL     1       5.734  28.694  50.835  1.00  0.00     0.337 C 
BRANCH  14  15
HETATM   15  C   UNL     1       4.846  28.722  49.588  1.00  0.00     0.248 C 
HETATM   16  N   UNL     1       3.547  28.301  49.798  1.00  0.00    -0.325 N 
HETATM   17  H   UNL     1       3.402  27.680  50.586  1.00  0.00     0.169 HD
HETATM   18  O   UNL     1       5.357  29.058  48.519  1.00  0.00    -0.271 OA
BRANCH  16  19
HETATM   19  C   UNL     1       2.624  28.122  48.735  1.00  0.00     0.047 A 
HETATM   20  C   UNL     1       2.593  26.950  47.946  1.00  0.00    -0.031 A 
HETATM   21  C   UNL     1       1.616  26.840  46.939  1.00  0.00     0.009 A 
HETATM   22  C   UNL     1       0.713  27.870  46.693  1.00  0.00     0.001 A 
HETATM   23  C   UNL     1       0.786  29.043  47.431  1.00  0.00     0.009 A 
HETATM   24  C   UNL     1       1.742  29.192  48.447  1.00  0.00    -0.035 A 
HETATM   25  C   UNL     1       1.753  30.485  49.220  1.00  0.00     0.050 C 
BRANCH  20  26
HETATM   26  C   UNL     1       3.643  25.857  47.992  1.00  0.00     0.036 C 
HETATM   27  C   UNL     1       3.015  24.471  48.041  1.00  0.00     0.010 C 
ENDBRANCH  20  26
ENDBRANCH  16  19
ENDBRANCH  14  15
ENDBRANCH  10  14
ENDBRANCH   1   7
BRANCH   3  28
HETATM   28  N   UNL     1       7.600  28.115  57.783  1.00  0.00    -0.188 N 
HETATM   29  H   UNL     1       7.203  27.892  58.685  1.00  0.00     0.184 HD
BRANCH  28  30
HETATM   30  C   UNL     1       8.633  29.063  57.793  1.00  0.00     0.049 A 
HETATM   31  C   UNL     1       8.509  30.184  58.628  1.00  0.00     0.030 A 
HETATM   32  C   UNL     1       9.483  31.186  58.640  1.00  0.00     0.002 A 
HETATM   33  C   UNL     1      10.596  31.086  57.812  1.00  0.00     0.000 A 
HETATM   34  C   UNL     1      10.733  29.986  56.970  1.00  0.00     0.002 A 
HETATM   35  C   UNL     1       9.753  28.991  56.955  1.00  0.00     0.030 A 
ENDBRANCH  28  30
ENDBRANCH   3  28
BRANCH   5  36
HETATM   36  N   UNL     1       8.410  23.998  55.844  1.00  0.00    -0.188 N 
HETATM   37  H   UNL     1       9.363  24.238  56.084  1.00  0.00     0.184 HD
BRANCH  36  38
HETATM   38  C   UNL     1       8.297  22.861  55.022  1.00  0.00     0.049 A 
HETATM   39  C   UNL     1       8.221  22.917  53.625  1.00  0.00     0.030 A 
HETATM   40  C   UNL     1       8.084  21.755  52.859  1.00  0.00     0.002 A 
HETATM   41  C   UNL     1       7.995  20.515  53.483  1.00  0.00     0.000 A 
HETATM   42  C   UNL     1       8.040  20.438  54.872  1.00  0.00     0.002 A 
HETATM   43  C   UNL     1       8.184  21.603  55.633  1.00  0.00     0.030 A 
ENDBRANCH  36  38
ENDBRANCH   5  36
TORSDOF 9
ENDMDL
MODEL 4
REMARK VINA RESULT:     -10.6      2.976      9.810
REMARK  9 active torsions:
REMARK  status: ('A' for Active; 'I' for Inactive)
REMARK    1  A    between atoms: C_2  and  C_3 
REMARK    2  A    between atoms: C_4  and  N_5 
REMARK       I    between atoms: N_5  and  C_6 
REMARK    3  A    between atoms: C_6  and  C_7 
REMARK    4  A    between atoms: C_7  and  N_8 
REMARK    5  A    between atoms: N_12  and  C_13 
REMARK    6  A    between atoms: C_15  and  N_16 
REMARK    7  A    between atoms: N_16  and  C_17 
REMARK    8  A    between atoms: C_24  and  N_25 
REMARK    9  A    between atoms: N_25  and  C_26 
ROOT
HETATM    1  C   UNL     1       5.875  26.400  55.326  1.00  0.00     0.240 A 
HETATM    2  N   UNL     1       6.200  27.369  56.164  1.00  0.00    -0.030 NA
HETATM    3  C   UNL     1       7.285  27.176  56.909  1.00  0.00     0.745 A 
HETATM    4  N   UNL     1       8.028  26.082  56.856  1.00  0.00     0.131 NA
HETATM    5  C   UNL     1       7.672  25.182  55.947  1.00  0.00     0.745 A 
HETATM    6  N   UNL     1       6.569  25.284  55.216  1.00  0.00    -0.030 NA
ENDROOT
BRANCH   1   7
HETATM    7  N   UNL     1       4.718  26.531  54.554  1.00  0.00    -0.247 NA
HETATM    8  C   UNL     1       4.601  25.608  53.416  1.00  0.00     0.126 C 
HETATM    9  C   UNL     1       5.428  26.078  52.199  1.00  0.00     0.250 C 
HETATM   10  N   UNL     1       5.085  27.522  51.860  1.00  0.00    -0.060 N 
HETATM   11  H   UNL     1       4.080  27.574  51.619  1.00  0.00     0.280 HD
HETATM   12  C   UNL     1       5.254  28.449  53.070  1.00  0.00     0.250 C 
HETATM   13  C   UNL     1       4.396  27.937  54.251  1.00  0.00     0.126 C 
BRANCH  10  14
HETATM   14  C   UNL     1       5.799  28.031  50.612  1.00  0.00     0.337 C 
BRANCH  14  15
HETATM   15  C   UNL     1       4.781  28.354  49.515  1.00  0.00     0.248 C 
HETATM   16  N   UNL     1       3.550  27.748  49.676  1.00  0.00    -0.325 N 
HETATM   17  H   UNL     1       3.542  26.898  50.228  1.00  0.00     0.169 HD
HETATM   18  O   UNL     1       5.145  29.065  48.577  1.00  0.00    -0.271 OA
BRANCH  16  19
HETATM   19  C   UNL     1       2.535  27.813  48.688  1.00  0.00     0.047 A 
HETATM   20  C   UNL     1       1.651  28.910  48.580  1.00  0.00    -0.031 A 
HETATM   21  C   UNL     1       0.700  28.911  47.541  1.00  0.00     0.009 A 
HETATM   22  C   UNL     1       0.601  27.846  46.651  1.00  0.00     0.001 A 
HETATM   23  C   UNL     1       1.432  26.744  46.798  1.00  0.00     0.009 A 
HETATM   24  C   UNL     1       2.396  26.705  47.817  1.00  0.00    -0.035 A 
HETATM   25  C   UNL     1       3.276  25.485  47.907  1.00  0.00     0.050 C 
BRANCH  20  26
HETATM   26  C   UNL     1       1.536  30.024  49.602  1.00  0.00     0.036 C 
HETATM   27  C   UNL     1       2.280  31.277  49.160  1.00  0.00     0.010 C 
ENDBRANCH  20  26
ENDBRANCH  16  19
ENDBRANCH  14  15
ENDBRANCH  10  14
ENDBRANCH   1   7
BRANCH   3  28
HETATM   28  N   UNL     1       7.641  28.119  57.871  1.00  0.00    -0.188 N 
HETATM   29  H   UNL     1       7.342  27.823  58.790  1.00  0.00     0.184 HD
BRANCH  28  30
HETATM   30  C   UNL     1       8.588  29.154  57.848  1.00  0.00     0.049 A 
HETATM   31  C   UNL     1       9.661  29.064  56.950  1.00  0.00     0.030 A 
HETATM   32  C   UNL     1      10.662  30.040  56.920  1.00  0.00     0.002 A 
HETATM   33  C   UNL     1      10.606  31.121  57.794  1.00  0.00     0.000 A 
HETATM   34  C   UNL     1       9.554  31.224  58.699  1.00  0.00     0.002 A 
HETATM   35  C   UNL     1       8.560  30.242  58.730  1.00  0.00     0.030 A 
ENDBRANCH  28  30
ENDBRANCH   3  28
BRANCH   5  36
HETATM   36  N   UNL     1       8.501  24.066  55.824  1.00  0.00    -0.188 N 
HETATM   37  H   UNL     1       9.466  24.339  55.959  1.00  0.00     0.184 HD
BRANCH  36  38
HETATM   38  C   UNL     1       8.341  22.895  55.059  1.00  0.00     0.049 A 
HETATM   39  C   UNL     1       8.309  22.882  53.659  1.00  0.00     0.030 A 
HETATM   40  C   UNL     1       8.122  21.690  52.951  1.00  0.00     0.002 A 
HETATM   41  C   UNL     1       7.939  20.493  53.634  1.00  0.00     0.000 A 
HETATM   42  C   UNL     1       7.939  20.488  55.025  1.00  0.00     0.002 A 
HETATM   43  C   UNL     1       8.133  21.681  55.730  1.00  0.00     0.030 A 
ENDBRANCH  36  38
ENDBRANCH   5  36
TORSDOF 9
ENDMDL
MODEL 5
REMARK VINA RESULT:     -10.5      3.010      9.361
REMARK  9 active torsions:
REMARK  status: ('A' for Active; 'I' for Inactive)
REMARK    1  A    between atoms: C_2  and  C_3 
REMARK    2  A    between atoms: C_4  and  N_5 
REMARK       I    between atoms: N_5  and  C_6 
REMARK    3  A    between atoms: C_6  and  C_7 
REMARK    4  A    between atoms: C_7  and  N_8 
REMARK    5  A    between atoms: N_12  and  C_13 
REMARK    6  A    between atoms: C_15  and  N_16 
REMARK    7  A    between atoms: N_16  and  C_17 
REMARK    8  A    between atoms: C_24  and  N_25 
REMARK    9  A    between atoms: N_25  and  C_26 
ROOT
HETATM    1  C   UNL     1       5.792  26.282  55.290  1.00  0.00     0.240 A 
HETATM    2  N   UNL     1       6.531  25.194  55.164  1.00  0.00    -0.030 NA
HETATM    3  C   UNL     1       7.637  25.133  55.899  1.00  0.00     0.745 A 
HETATM    4  N   UNL     1       8.026  26.093  56.723  1.00  0.00     0.131 NA
HETATM    5  C   UNL     1       7.200  27.126  56.840  1.00  0.00     0.745 A 
HETATM    6  N   UNL     1       6.115  27.278  56.093  1.00  0.00    -0.030 NA
ENDROOT
BRANCH   1   7
HETATM    7  N   UNL     1       4.645  26.418  54.505  1.00  0.00    -0.247 NA
HETATM    8  C   UNL     1       4.519  25.469  53.388  1.00  0.00     0.126 C 
HETATM    9  C   UNL     1       5.365  25.893  52.168  1.00  0.00     0.250 C 
HETATM   10  N   UNL     1       5.055  27.334  51.791  1.00  0.00    -0.060 N 
HETATM   11  H   UNL     1       4.053  27.401  51.540  1.00  0.00     0.280 HD
HETATM   12  C   UNL     1       5.231  28.288  52.980  1.00  0.00     0.250 C 
HETATM   13  C   UNL     1       4.353  27.821  54.165  1.00  0.00     0.126 C 
BRANCH  10  14
HETATM   14  C   UNL     1       5.789  27.799  50.538  1.00  0.00     0.337 C 
BRANCH  14  15
HETATM   15  C   UNL     1       4.785  28.168  49.442  1.00  0.00     0.248 C 
HETATM   16  N   UNL     1       3.528  27.617  49.605  1.00  0.00    -0.325 N 
HETATM   17  H   UNL     1       3.483  26.768  50.155  1.00  0.00     0.169 HD
HETATM   18  O   UNL     1       5.179  28.864  48.505  1.00  0.00    -0.271 OA
BRANCH  16  19
HETATM   19  C   UNL     1       2.516  27.730  48.617  1.00  0.00     0.047 A 
HETATM   20  C   UNL     1       1.700  28.876  48.494  1.00  0.00    -0.031 A 
HETATM   21  C   UNL     1       0.747  28.919  47.458  1.00  0.00     0.009 A 
HETATM   22  C   UNL     1       0.581  27.849  46.586  1.00  0.00     0.001 A 
HETATM   23  C   UNL     1       1.344  26.700  46.748  1.00  0.00     0.009 A 
HETATM   24  C   UNL     1       2.307  26.618  47.764  1.00  0.00    -0.035 A 
HETATM   25  C   UNL     1       3.111  25.349  47.872  1.00  0.00     0.050 C 
BRANCH  20  26
HETATM   26  C   UNL     1       1.656  30.010  49.500  1.00  0.00     0.036 C 
HETATM   27  C   UNL     1       2.514  31.190  49.060  1.00  0.00     0.010 C 
ENDBRANCH  20  26
ENDBRANCH  16  19
ENDBRANCH  14  15
ENDBRANCH  10  14
ENDBRANCH   1   7
BRANCH   3  28
HETATM   28  N   UNL     1       8.505  24.051  55.758  1.00  0.00    -0.188 N 
HETATM   29  H   UNL     1       9.226  24.078  56.465  1.00  0.00     0.184 HD
BRANCH  28  30
HETATM   30  C   UNL     1       8.358  22.827  55.089  1.00  0.00     0.049 A 
HETATM   31  C   UNL     1       8.156  21.666  55.848  1.00  0.00     0.030 A 
HETATM   32  C   UNL     1       8.055  20.412  55.237  1.00  0.00     0.002 A 
HETATM   33  C   UNL     1       8.161  20.301  53.855  1.00  0.00     0.000 A 
HETATM   34  C   UNL     1       8.370  21.441  53.084  1.00  0.00     0.002 A 
HETATM   35  C   UNL     1       8.478  22.690  53.700  1.00  0.00     0.030 A 
ENDBRANCH  28  30
ENDBRANCH   3  28
BRANCH   5  36
HETATM   36  N   UNL     1       7.558  28.102  57.772  1.00  0.00    -0.188 N 
HETATM   37  H   UNL     1       6.744  28.386  58.301  1.00  0.00     0.184 HD
BRANCH  36  38
HETATM   38  C   UNL     1       8.574  29.075  57.724  1.00  0.00     0.049 A 
HETATM   39  C   UNL     1       9.627  29.053  56.802  1.00  0.00     0.030 A 
HETATM   40  C   UNL     1      10.625  30.033  56.817  1.00  0.00     0.002 A 
HETATM   41  C   UNL     1      10.598  31.041  57.774  1.00  0.00     0.000 A 
HETATM   42  C   UNL     1       9.576  31.067  58.718  1.00  0.00     0.002 A 
HETATM   43  C   UNL     1       8.577  30.088  58.695  1.00  0.00     0.030 A 
ENDBRANCH  36  38
ENDBRANCH   5  36
TORSDOF 9
ENDMDL
MODEL 6
REMARK VINA RESULT:     -10.3      3.044     10.439
REMARK  9 active torsions:
REMARK  status: ('A' for Active; 'I' for Inactive)
REMARK    1  A    between atoms: C_2  and  C_3 
REMARK    2  A    between atoms: C_4  and  N_5 
REMARK       I    between atoms: N_5  and  C_6 
REMARK    3  A    between atoms: C_6  and  C_7 
REMARK    4  A    between atoms: C_7  and  N_8 
REMARK    5  A    between atoms: N_12  and  C_13 
REMARK    6  A    between atoms: C_15  and  N_16 
REMARK    7  A    between atoms: N_16  and  C_17 
REMARK    8  A    between atoms: C_24  and  N_25 
REMARK    9  A    between atoms: N_25  and  C_26 
ROOT
HETATM    1  C   UNL     1       6.693  30.616  57.383  1.00  0.00     0.240 A 
HETATM    2  N   UNL     1       7.237  30.446  58.576  1.00  0.00    -0.030 NA
HETATM    3  C   UNL     1       6.792  31.230  59.553  1.00  0.00     0.745 A 
HETATM    4  N   UNL     1       5.860  32.155  59.388  1.00  0.00     0.131 NA
HETATM    5  C   UNL     1       5.320  32.223  58.176  1.00  0.00     0.745 A 
HETATM    6  N   UNL     1       5.758  31.515  57.144  1.00  0.00    -0.030 NA
ENDROOT
BRANCH   1   7
HETATM    7  N   UNL     1       7.157  29.850  56.311  1.00  0.00    -0.247 NA
HETATM    8  C   UNL     1       6.220  28.842  55.792  1.00  0.00     0.126 C 
HETATM    9  C   UNL     1       6.206  27.563  56.658  1.00  0.00     0.250 C 
HETATM   10  N   UNL     1       7.624  27.046  56.851  1.00  0.00    -0.060 N 
HETATM   11  H   UNL     1       8.020  26.815  55.923  1.00  0.00     0.280 HD
HETATM   12  C   UNL     1       8.554  28.124  57.423  1.00  0.00     0.250 C 
HETATM   13  C   UNL     1       8.537  29.374  56.511  1.00  0.00     0.126 C 
BRANCH  10  14
HETATM   14  C   UNL     1       7.685  25.733  57.624  1.00  0.00     0.337 C 
BRANCH  14  15
HETATM   15  C   UNL     1       7.326  24.561  56.706  1.00  0.00     0.248 C 
HETATM   16  N   UNL     1       8.412  23.897  56.171  1.00  0.00    -0.325 N 
HETATM   17  H   UNL     1       9.271  24.431  56.103  1.00  0.00     0.169 HD
HETATM   18  O   UNL     1       6.134  24.342  56.484  1.00  0.00    -0.271 OA
BRANCH  16  19
HETATM   19  C   UNL     1       8.275  22.883  55.189  1.00  0.00     0.047 A 
HETATM   20  C   UNL     1       8.107  23.173  53.816  1.00  0.00    -0.031 A 
HETATM   21  C   UNL     1       8.021  22.103  52.906  1.00  0.00     0.009 A 
HETATM   22  C   UNL     1       8.067  20.781  53.338  1.00  0.00     0.001 A 
HETATM   23  C   UNL     1       8.172  20.501  54.693  1.00  0.00     0.009 A 
HETATM   24  C   UNL     1       8.266  21.538  55.634  1.00  0.00    -0.035 A 
HETATM   25  C   UNL     1       8.395  21.161  57.087  1.00  0.00     0.050 C 
BRANCH  20  26
HETATM   26  C   UNL     1       7.847  24.558  53.258  1.00  0.00     0.036 C 
HETATM   27  C   UNL     1       7.549  24.520  51.765  1.00  0.00     0.010 C 
ENDBRANCH  20  26
ENDBRANCH  16  19
ENDBRANCH  14  15
ENDBRANCH  10  14
ENDBRANCH   1   7
BRANCH   3  28
HETATM   28  N   UNL     1       7.376  31.161  60.817  1.00  0.00    -0.188 N 
HETATM   29  H   UNL     1       8.294  30.742  60.763  1.00  0.00     0.184 HD
BRANCH  28  30
HETATM   30  C   UNL     1       7.093  31.848  62.007  1.00  0.00     0.049 A 
HETATM   31  C   UNL     1       8.161  32.349  62.765  1.00  0.00     0.030 A 
HETATM   32  C   UNL     1       7.940  32.995  63.985  1.00  0.00     0.002 A 
HETATM   33  C   UNL     1       6.644  33.146  64.468  1.00  0.00     0.000 A 
HETATM   34  C   UNL     1       5.571  32.648  63.735  1.00  0.00     0.002 A 
HETATM   35  C   UNL     1       5.798  31.996  62.520  1.00  0.00     0.030 A 
ENDBRANCH  28  30
ENDBRANCH   3  28
BRANCH   5  36
HETATM   36  N   UNL     1       4.276  33.136  58.015  1.00  0.00    -0.188 N 
HETATM   37  H   UNL     1       3.597  32.767  57.362  1.00  0.00     0.184 HD
BRANCH  36  38
HETATM   38  C   UNL     1       4.274  34.540  58.107  1.00  0.00     0.049 A 
HETATM   39  C   UNL     1       4.683  35.387  57.069  1.00  0.00     0.030 A 
HETATM   40  C   UNL     1       4.684  36.777  57.226  1.00  0.00     0.002 A 
HETATM   41  C   UNL     1       4.298  37.343  58.436  1.00  0.00     0.000 A 
HETATM   42  C   UNL     1       3.915  36.520  59.490  1.00  0.00     0.002 A 
HETATM   43  C   UNL     1       3.909  35.130  59.326  1.00  0.00     0.030 A 
ENDBRANCH  36  38
ENDBRANCH   5  36
TORSDOF 9
ENDMDL
MODEL 7
REMARK VINA RESULT:     -10.0      3.360      9.910
REMARK  9 active torsions:
REMARK  status: ('A' for Active; 'I' for Inactive)
REMARK    1  A    between atoms: C_2  and  C_3 
REMARK    2  A    between atoms: C_4  and  N_5 
REMARK       I    between atoms: N_5  and  C_6 
REMARK    3  A    between atoms: C_6  and  C_7 
REMARK    4  A    between atoms: C_7  and  N_8 
REMARK    5  A    between atoms: N_12  and  C_13 
REMARK    6  A    between atoms: C_15  and  N_16 
REMARK    7  A    between atoms: N_16  and  C_17 
REMARK    8  A    between atoms: C_24  and  N_25 
REMARK    9  A    between atoms: N_25  and  C_26 
ROOT
HETATM    1  C   UNL     1       5.752  26.551  53.926  1.00  0.00     0.240 A 
HETATM    2  N   UNL     1       6.127  25.410  54.478  1.00  0.00    -0.030 NA
HETATM    3  C   UNL     1       7.272  25.421  55.154  1.00  0.00     0.745 A 
HETATM    4  N   UNL     1       8.038  26.493  55.288  1.00  0.00     0.131 NA
HETATM    5  C   UNL     1       7.563  27.614  54.757  1.00  0.00     0.745 A 
HETATM    6  N   UNL     1       6.461  27.659  54.019  1.00  0.00    -0.030 NA
ENDROOT
BRANCH   1   7
HETATM    7  N   UNL     1       4.581  26.583  53.165  1.00  0.00    -0.247 NA
HETATM    8  C   UNL     1       4.614  25.819  51.909  1.00  0.00     0.126 C 
HETATM    9  C   UNL     1       5.331  26.591  50.780  1.00  0.00     0.250 C 
HETATM   10  N   UNL     1       4.737  27.985  50.639  1.00  0.00    -0.060 N 
HETATM   11  H   UNL     1       3.735  27.893  50.395  1.00  0.00     0.280 HD
HETATM   12  C   UNL     1       4.755  28.751  51.967  1.00  0.00     0.250 C 
HETATM   13  C   UNL     1       4.014  27.938  53.055  1.00  0.00     0.126 C 
BRANCH  10  14
HETATM   14  C   UNL     1       5.336  28.778  49.482  1.00  0.00     0.337 C 
BRANCH  14  15
HETATM   15  C   UNL     1       4.377  28.781  48.289  1.00  0.00     0.248 C 
HETATM   16  N   UNL     1       3.050  28.980  48.618  1.00  0.00    -0.325 N 
HETATM   17  H   UNL     1       2.783  28.727  49.562  1.00  0.00     0.169 HD
HETATM   18  O   UNL     1       4.842  28.560  47.170  1.00  0.00    -0.271 OA
BRANCH  16  19
HETATM   19  C   UNL     1       2.005  28.869  47.665  1.00  0.00     0.047 A 
HETATM   20  C   UNL     1       1.383  27.638  47.361  1.00  0.00    -0.031 A 
HETATM   21  C   UNL     1       0.324  27.627  46.433  1.00  0.00     0.009 A 
HETATM   22  C   UNL     1      -0.089  28.793  45.796  1.00  0.00     0.001 A 
HETATM   23  C   UNL     1       0.565  29.990  46.053  1.00  0.00     0.009 A 
HETATM   24  C   UNL     1       1.621  30.045  46.975  1.00  0.00    -0.035 A 
HETATM   25  C   UNL     1       2.274  31.380  47.218  1.00  0.00     0.050 C 
BRANCH  20  26
HETATM   26  C   UNL     1       1.875  26.286  47.840  1.00  0.00     0.036 C 
HETATM   27  C   UNL     1       2.791  25.623  46.819  1.00  0.00     0.010 C 
ENDBRANCH  20  26
ENDBRANCH  16  19
ENDBRANCH  14  15
ENDBRANCH  10  14
ENDBRANCH   1   7
BRANCH   3  28
HETATM   28  N   UNL     1       7.769  24.236  55.694  1.00  0.00    -0.188 N 
HETATM   29  H   UNL     1       7.791  24.286  56.704  1.00  0.00     0.184 HD
BRANCH  28  30
HETATM   30  C   UNL     1       7.894  22.950  55.149  1.00  0.00     0.049 A 
HETATM   31  C   UNL     1       7.929  21.851  56.019  1.00  0.00     0.030 A 
HETATM   32  C   UNL     1       8.104  20.551  55.534  1.00  0.00     0.002 A 
HETATM   33  C   UNL     1       8.251  20.331  54.169  1.00  0.00     0.000 A 
HETATM   34  C   UNL     1       8.227  21.410  53.289  1.00  0.00     0.002 A 
HETATM   35  C   UNL     1       8.060  22.708  53.780  1.00  0.00     0.030 A 
ENDBRANCH  28  30
ENDBRANCH   3  28
BRANCH   5  36
HETATM   36  N   UNL     1       8.320  28.767  54.967  1.00  0.00    -0.188 N 
HETATM   37  H   UNL     1       8.873  28.969  54.144  1.00  0.00     0.184 HD
BRANCH  36  38
HETATM   38  C   UNL     1       8.851  29.302  56.156  1.00  0.00     0.049 A 
HETATM   39  C   UNL     1       8.102  29.494  57.323  1.00  0.00     0.030 A 
HETATM   40  C   UNL     1       8.676  30.054  58.469  1.00  0.00     0.002 A 
HETATM   41  C   UNL     1      10.008  30.454  58.458  1.00  0.00     0.000 A 
HETATM   42  C   UNL     1      10.764  30.298  57.300  1.00  0.00     0.002 A 
HETATM   43  C   UNL     1      10.187  29.732  56.158  1.00  0.00     0.030 A 
ENDBRANCH  36  38
ENDBRANCH   5  36
TORSDOF 9
ENDMDL
MODEL 8
REMARK VINA RESULT:      -9.8      1.211      2.410
REMARK  9 active torsions:
REMARK  status: ('A' for Active; 'I' for Inactive)
REMARK    1  A    between atoms: C_2  and  C_3 
REMARK    2  A    between atoms: C_4  and  N_5 
REMARK       I    between atoms: N_5  and  C_6 
REMARK    3  A    between atoms: C_6  and  C_7 
REMARK    4  A    between atoms: C_7  and  N_8 
REMARK    5  A    between atoms: N_12  and  C_13 
REMARK    6  A    between atoms: C_15  and  N_16 
REMARK    7  A    between atoms: N_16  and  C_17 
REMARK    8  A    between atoms: C_24  and  N_25 
REMARK    9  A    between atoms: N_25  and  C_26 
ROOT
HETATM    1  C   UNL     1       6.301  26.656  55.069  1.00  0.00     0.240 A 
HETATM    2  N   UNL     1       7.109  25.615  54.979  1.00  0.00    -0.030 NA
HETATM    3  C   UNL     1       7.451  25.227  53.754  1.00  0.00     0.745 A 
HETATM    4  N   UNL     1       7.021  25.817  52.649  1.00  0.00     0.131 NA
HETATM    5  C   UNL     1       6.262  26.893  52.824  1.00  0.00     0.745 A 
HETATM    6  N   UNL     1       5.835  27.296  54.014  1.00  0.00    -0.030 NA
ENDROOT
BRANCH   1   7
HETATM    7  N   UNL     1       5.874  27.075  56.332  1.00  0.00    -0.247 NA
HETATM    8  C   UNL     1       5.394  28.463  56.416  1.00  0.00     0.126 C 
HETATM    9  C   UNL     1       6.558  29.474  56.510  1.00  0.00     0.250 C 
HETATM   10  N   UNL     1       7.506  29.079  57.633  1.00  0.00    -0.060 N 
HETATM   11  H   UNL     1       6.982  29.092  58.526  1.00  0.00     0.280 HD
HETATM   12  C   UNL     1       8.002  27.635  57.482  1.00  0.00     0.250 C 
HETATM   13  C   UNL     1       6.797  26.669  57.406  1.00  0.00     0.126 C 
BRANCH  10  14
HETATM   14  C   UNL     1       8.636  30.081  57.845  1.00  0.00     0.337 C 
BRANCH  14  15
HETATM   15  C   UNL     1       8.161  31.236  58.732  1.00  0.00     0.248 C 
HETATM   16  N   UNL     1       6.880  31.089  59.229  1.00  0.00    -0.325 N 
HETATM   17  H   UNL     1       6.262  30.490  58.695  1.00  0.00     0.169 HD
HETATM   18  O   UNL     1       8.915  32.197  58.885  1.00  0.00    -0.271 OA
BRANCH  16  19
HETATM   19  C   UNL     1       6.221  32.120  59.946  1.00  0.00     0.047 A 
HETATM   20  C   UNL     1       6.460  32.364  61.317  1.00  0.00    -0.031 A 
HETATM   21  C   UNL     1       5.792  33.436  61.938  1.00  0.00     0.009 A 
HETATM   22  C   UNL     1       4.888  34.228  61.238  1.00  0.00     0.001 A 
HETATM   23  C   UNL     1       4.611  33.947  59.907  1.00  0.00     0.009 A 
HETATM   24  C   UNL     1       5.258  32.890  59.248  1.00  0.00    -0.035 A 
HETATM   25  C   UNL     1       4.922  32.653  57.799  1.00  0.00     0.050 C 
BRANCH  20  26
HETATM   26  C   UNL     1       7.267  31.454  62.222  1.00  0.00     0.036 C 
HETATM   27  C   UNL     1       8.610  32.069  62.593  1.00  0.00     0.010 C 
ENDBRANCH  20  26
ENDBRANCH  16  19
ENDBRANCH  14  15
ENDBRANCH  10  14
ENDBRANCH   1   7
BRANCH   3  28
HETATM   28  N   UNL     1       8.235  24.088  53.580  1.00  0.00    -0.188 N 
HETATM   29  H   UNL     1       9.080  24.310  53.073  1.00  0.00     0.184 HD
BRANCH  28  30
HETATM   30  C   UNL     1       8.237  22.855  54.248  1.00  0.00     0.049 A 
HETATM   31  C   UNL     1       7.960  21.692  53.515  1.00  0.00     0.030 A 
HETATM   32  C   UNL     1       7.898  20.442  54.139  1.00  0.00     0.002 A 
HETATM   33  C   UNL     1       8.108  20.337  55.510  1.00  0.00     0.000 A 
HETATM   34  C   UNL     1       8.376  21.481  56.257  1.00  0.00     0.002 A 
HETATM   35  C   UNL     1       8.429  22.728  55.630  1.00  0.00     0.030 A 
ENDBRANCH  28  30
ENDBRANCH   3  28
BRANCH   5  36
HETATM   36  N   UNL     1       5.876  27.572  51.668  1.00  0.00    -0.188 N 
HETATM   37  H   UNL     1       6.660  28.094  51.299  1.00  0.00     0.184 HD
BRANCH  36  38
HETATM   38  C   UNL     1       4.621  28.088  51.292  1.00  0.00     0.049 A 
HETATM   39  C   UNL     1       4.101  27.994  49.996  1.00  0.00     0.030 A 
HETATM   40  C   UNL     1       2.857  28.548  49.673  1.00  0.00     0.002 A 
HETATM   41  C   UNL     1       2.124  29.228  50.640  1.00  0.00     0.000 A 
HETATM   42  C   UNL     1       2.635  29.357  51.927  1.00  0.00     0.002 A 
HETATM   43  C   UNL     1       3.876  28.796  52.247  1.00  0.00     0.030 A 
ENDBRANCH  36  38
ENDBRANCH   5  36
TORSDOF 9
ENDMDL
MODEL 9
REMARK VINA RESULT:      -9.7      2.538      9.892
REMARK  9 active torsions:
REMARK  status: ('A' for Active; 'I' for Inactive)
REMARK    1  A    between atoms: C_2  and  C_3 
REMARK    2  A    between atoms: C_4  and  N_5 
REMARK       I    between atoms: N_5  and  C_6 
REMARK    3  A    between atoms: C_6  and  C_7 
REMARK    4  A    between atoms: C_7  and  N_8 
REMARK    5  A    between atoms: N_12  and  C_13 
REMARK    6  A    between atoms: C_15  and  N_16 
REMARK    7  A    between atoms: N_16  and  C_17 
REMARK    8  A    between atoms: C_24  and  N_25 
REMARK    9  A    between atoms: N_25  and  C_26 
ROOT
HETATM    1  C   UNL     1       5.746  29.677  57.489  1.00  0.00     0.240 A 
HETATM    2  N   UNL     1       6.289  30.664  58.179  1.00  0.00    -0.030 NA
HETATM    3  C   UNL     1       7.547  30.497  58.575  1.00  0.00     0.745 A 
HETATM    4  N   UNL     1       8.259  29.409  58.323  1.00  0.00     0.131 NA
HETATM    5  C   UNL     1       7.664  28.488  57.573  1.00  0.00     0.745 A 
HETATM    6  N   UNL     1       6.394  28.565  57.198  1.00  0.00    -0.030 NA
ENDROOT
BRANCH   1   7
HETATM    7  N   UNL     1       4.412  29.782  57.089  1.00  0.00    -0.247 NA
HETATM    8  C   UNL     1       3.962  28.796  56.095  1.00  0.00     0.126 C 
HETATM    9  C   UNL     1       4.388  29.182  54.662  1.00  0.00     0.250 C 
HETATM   10  N   UNL     1       3.958  30.609  54.354  1.00  0.00    -0.060 N 
HETATM   11  H   UNL     1       2.927  30.664  54.420  1.00  0.00     0.280 HD
HETATM   12  C   UNL     1       4.478  31.602  55.401  1.00  0.00     0.250 C 
HETATM   13  C   UNL     1       4.012  31.173  56.812  1.00  0.00     0.126 C 
BRANCH  10  14
HETATM   14  C   UNL     1       4.267  31.033  52.922  1.00  0.00     0.337 C 
BRANCH  14  15
HETATM   15  C   UNL     1       3.960  29.889  51.952  1.00  0.00     0.248 C 
HETATM   16  N   UNL     1       5.060  29.403  51.271  1.00  0.00    -0.325 N 
HETATM   17  H   UNL     1       5.837  30.044  51.167  1.00  0.00     0.169 HD
HETATM   18  O   UNL     1       2.787  29.537  51.822  1.00  0.00    -0.271 OA
BRANCH  16  19
HETATM   19  C   UNL     1       4.946  28.447  50.229  1.00  0.00     0.047 A 
HETATM   20  C   UNL     1       4.855  27.059  50.480  1.00  0.00    -0.031 A 
HETATM   21  C   UNL     1       4.702  26.185  49.387  1.00  0.00     0.009 A 
HETATM   22  C   UNL     1       4.673  26.660  48.080  1.00  0.00     0.001 A 
HETATM   23  C   UNL     1       4.824  28.018  47.835  1.00  0.00     0.009 A 
HETATM   24  C   UNL     1       4.973  28.924  48.896  1.00  0.00    -0.035 A 
HETATM   25  C   UNL     1       5.115  30.386  48.559  1.00  0.00     0.050 C 
BRANCH  20  26
HETATM   26  C   UNL     1       5.071  26.416  51.835  1.00  0.00     0.036 C 
HETATM   27  C   UNL     1       5.036  24.895  51.752  1.00  0.00     0.010 C 
ENDBRANCH  20  26
ENDBRANCH  16  19
ENDBRANCH  14  15
ENDBRANCH  10  14
ENDBRANCH   1   7
BRANCH   3  28
HETATM   28  N   UNL     1       8.157  31.462  59.375  1.00  0.00    -0.188 N 
HETATM   29  H   UNL     1       8.739  32.072  58.817  1.00  0.00     0.184 HD
BRANCH  28  30
HETATM   30  C   UNL     1       7.847  31.930  60.660  1.00  0.00     0.049 A 
HETATM   31  C   UNL     1       6.698  32.716  60.831  1.00  0.00     0.030 A 
HETATM   32  C   UNL     1       6.370  33.253  62.080  1.00  0.00     0.002 A 
HETATM   33  C   UNL     1       7.190  33.014  63.178  1.00  0.00     0.000 A 
HETATM   34  C   UNL     1       8.340  32.244  63.027  1.00  0.00     0.002 A 
HETATM   35  C   UNL     1       8.668  31.716  61.775  1.00  0.00     0.030 A 
ENDBRANCH  28  30
ENDBRANCH   3  28
BRANCH   5  36
HETATM   36  N   UNL     1       8.436  27.377  57.230  1.00  0.00    -0.188 N 
HETATM   37  H   UNL     1       9.370  27.674  56.975  1.00  0.00     0.184 HD
BRANCH  36  38
HETATM   38  C   UNL     1       8.056  26.145  56.665  1.00  0.00     0.049 A 
HETATM   39  C   UNL     1       7.323  26.029  55.478  1.00  0.00     0.030 A 
HETATM   40  C   UNL     1       6.950  24.778  54.976  1.00  0.00     0.002 A 
HETATM   41  C   UNL     1       7.285  23.620  55.669  1.00  0.00     0.000 A 
HETATM   42  C   UNL     1       7.988  23.713  56.866  1.00  0.00     0.002 A 
HETATM   43  C   UNL     1       8.365  24.967  57.361  1.00  0.00     0.030 A 
ENDBRANCH  36  38
ENDBRANCH   5  36
TORSDOF 9
ENDMDL
MODEL 10
REMARK VINA RESULT:      -9.6      1.868      2.436
REMARK  9 active torsions:
REMARK  status: ('A' for Active; 'I' for Inactive)
REMARK    1  A    between atoms: C_2  and  C_3 
REMARK    2  A    between atoms: C_4  and  N_5 
REMARK       I    between atoms: N_5  and  C_6 
REMARK    3  A    between atoms: C_6  and  C_7 
REMARK    4  A    between atoms: C_7  and  N_8 
REMARK    5  A    between atoms: N_12  and  C_13 
REMARK    6  A    between atoms: C_15  and  N_16 
REMARK    7  A    between atoms: N_16  and  C_17 
REMARK    8  A    between atoms: C_24  and  N_25 
REMARK    9  A    between atoms: N_25  and  C_26 
ROOT
HETATM    1  C   UNL     1       4.748  28.690  54.697  1.00  0.00     0.240 A 
HETATM    2  N   UNL     1       5.774  27.906  54.983  1.00  0.00    -0.030 NA
HETATM    3  C   UNL     1       6.531  27.516  53.961  1.00  0.00     0.745 A 
HETATM    4  N   UNL     1       6.303  27.861  52.704  1.00  0.00     0.131 NA
HETATM    5  C   UNL     1       5.292  28.698  52.506  1.00  0.00     0.745 A 
HETATM    6  N   UNL     1       4.462  29.077  53.470  1.00  0.00    -0.030 NA
ENDROOT
BRANCH   1   7
HETATM    7  N   UNL     1       3.894  29.089  55.728  1.00  0.00    -0.247 NA
HETATM    8  C   UNL     1       3.279  30.416  55.570  1.00  0.00     0.126 C 
HETATM    9  C   UNL     1       4.243  31.554  55.971  1.00  0.00     0.250 C 
HETATM   10  N   UNL     1       4.807  31.296  57.361  1.00  0.00    -0.060 N 
HETATM   11  H   UNL     1       4.022  31.272  58.036  1.00  0.00     0.280 HD
HETATM   12  C   UNL     1       5.464  29.915  57.465  1.00  0.00     0.250 C 
HETATM   13  C   UNL     1       4.451  28.816  57.064  1.00  0.00     0.126 C 
BRANCH  10  14
HETATM   14  C   UNL     1       5.701  32.424  57.864  1.00  0.00     0.337 C 
BRANCH  14  15
HETATM   15  C   UNL     1       5.656  32.494  59.393  1.00  0.00     0.248 C 
HETATM   16  N   UNL     1       6.792  33.019  59.978  1.00  0.00    -0.325 N 
HETATM   17  H   UNL     1       7.646  32.946  59.436  1.00  0.00     0.169 HD
HETATM   18  O   UNL     1       4.663  32.043  59.966  1.00  0.00    -0.271 OA
BRANCH  16  19
HETATM   19  C   UNL     1       6.990  33.027  61.383  1.00  0.00     0.047 A 
HETATM   20  C   UNL     1       6.304  33.916  62.240  1.00  0.00    -0.031 A 
HETATM   21  C   UNL     1       6.530  33.825  63.627  1.00  0.00     0.009 A 
HETATM   22  C   UNL     1       7.432  32.906  64.153  1.00  0.00     0.001 A 
HETATM   23  C   UNL     1       8.149  32.076  63.302  1.00  0.00     0.009 A 
HETATM   24  C   UNL     1       7.949  32.131  61.914  1.00  0.00    -0.035 A 
HETATM   25  C   UNL     1       8.748  31.190  61.050  1.00  0.00     0.050 C 
BRANCH  20  26
HETATM   26  C   UNL     1       5.454  35.080  61.769  1.00  0.00     0.036 C 
HETATM   27  C   UNL     1       4.450  35.514  62.829  1.00  0.00     0.010 C 
ENDBRANCH  20  26
ENDBRANCH  16  19
ENDBRANCH  14  15
ENDBRANCH  10  14
ENDBRANCH   1   7
BRANCH   3  28
HETATM   28  N   UNL     1       7.580  26.625  54.177  1.00  0.00    -0.188 N 
HETATM   29  H   UNL     1       8.324  27.070  54.698  1.00  0.00     0.184 HD
BRANCH  28  30
HETATM   30  C   UNL     1       7.633  25.225  54.123  1.00  0.00     0.049 A 
HETATM   31  C   UNL     1       7.895  24.608  52.891  1.00  0.00     0.030 A 
HETATM   32  C   UNL     1       7.907  23.215  52.769  1.00  0.00     0.002 A 
HETATM   33  C   UNL     1       7.652  22.417  53.879  1.00  0.00     0.000 A 
HETATM   34  C   UNL     1       7.381  23.009  55.109  1.00  0.00     0.002 A 
HETATM   35  C   UNL     1       7.362  24.402  55.224  1.00  0.00     0.030 A 
ENDBRANCH  28  30
ENDBRANCH   3  28
BRANCH   5  36
HETATM   36  N   UNL     1       5.098  29.137  51.195  1.00  0.00    -0.188 N 
HETATM   37  H   UNL     1       4.533  29.976  51.194  1.00  0.00     0.184 HD
BRANCH  36  38
HETATM   38  C   UNL     1       5.038  28.408  49.992  1.00  0.00     0.049 A 
HETATM   39  C   UNL     1       5.542  28.879  48.774  1.00  0.00     0.030 A 
HETATM   40  C   UNL     1       5.432  28.121  47.603  1.00  0.00     0.002 A 
HETATM   41  C   UNL     1       4.792  26.887  47.628  1.00  0.00     0.000 A 
HETATM   42  C   UNL     1       4.258  26.413  48.822  1.00  0.00     0.002 A 
HETATM   43  C   UNL     1       4.377  27.171  49.992  1.00  0.00     0.030 A 
ENDBRANCH  36  38
ENDBRANCH   5  36
TORSDOF 9
ENDMDL
