MODEL 1
REMARK VINA RESULT:      -9.0      0.000      0.000
REMARK  6 active torsions:
REMARK  status: ('A' for Active; 'I' for Inactive)
REMARK    1  A    between atoms: O_2  and  C_3 
REMARK    2  A    between atoms: C_4  and  O_5 
REMARK    3  A    between atoms: O_5  and  C_6 
REMARK    4  A    between atoms: C_9  and  N_10 
REMARK       I    between atoms: N_10  and  C_11 
REMARK    5  A    between atoms: C_11  and  C_12 
REMARK    6  A    between atoms: C_12  and  C_13 
ROOT
HETATM    1  C   UNL     1       7.050  24.874  52.892  1.00  0.00     0.103 A 
HETATM    2  C   UNL     1       6.615  25.156  54.198  1.00  0.00     0.109 A 
HETATM    3  C   UNL     1       6.791  24.222  55.225  1.00  0.00     0.041 A 
HETATM    4  C   UNL     1       7.353  22.977  54.943  1.00  0.00     0.025 A 
HETATM    5  C   UNL     1       7.757  22.673  53.639  1.00  0.00     0.047 A 
HETATM    6  C   UNL     1       8.336  21.394  53.347  1.00  0.00     0.099 C 
HETATM    7  N   UNL     1       8.804  20.360  53.105  1.00  0.00    -0.191 NA
HETATM    8  C   UNL     1       7.608  23.621  52.616  1.00  0.00     0.062 A 
ENDROOT
BRANCH   1   9
HETATM    9  O   UNL     1       6.866  25.866  51.966  1.00  0.00    -0.353 OA
HETATM   10  C   UNL     1       5.696  25.796  51.159  1.00  0.00     0.210 C 
ENDBRANCH   1   9
BRANCH   2  11
HETATM   11  O   UNL     1       6.126  26.420  54.451  1.00  0.00    -0.308 OA
BRANCH  11  12
HETATM   12  C   UNL     1       6.725  27.188  55.421  1.00  0.00     0.076 A 
HETATM   13  C   UNL     1       7.727  28.048  54.977  1.00  0.00     0.039 A 
HETATM   14  C   UNL     1       8.365  28.917  55.868  1.00  0.00     0.032 A 
HETATM   15  C   UNL     1       8.003  28.940  57.216  1.00  0.00     0.034 A 
HETATM   16  C   UNL     1       6.992  28.074  57.656  1.00  0.00     0.032 A 
HETATM   17  C   UNL     1       6.343  27.213  56.762  1.00  0.00     0.039 A 
BRANCH  15  18
HETATM   18  N   UNL     1       8.594  29.789  58.175  1.00  0.00    -0.327 N 
HETATM   19  C   UNL     1       8.171  31.058  58.549  1.00  0.00     0.227 C 
HETATM   20  O   UNL     1       7.157  31.622  58.141  1.00  0.00    -0.273 OA
HETATM   21  H   UNL     1       9.387  29.405  58.675  1.00  0.00     0.169 HD
BRANCH  19  22
HETATM   22  C   UNL     1       9.077  31.684  59.614  1.00  0.00     0.159 C 
BRANCH  22  23
HETATM   23  C   UNL     1       8.428  31.829  60.958  1.00  0.00     0.017 A 
HETATM   24  N   UNL     1       7.128  31.445  61.207  1.00  0.00    -0.369 N 
HETATM   25  H   UNL     1       6.496  31.076  60.500  1.00  0.00     0.165 HD
HETATM   26  C   UNL     1       6.818  31.673  62.520  1.00  0.00     0.088 A 
HETATM   27  C   UNL     1       7.929  32.205  63.132  1.00  0.00     0.019 A 
HETATM   28  C   UNL     1       8.944  32.302  62.151  1.00  0.00     0.027 A 
ENDBRANCH  22  23
ENDBRANCH  19  22
ENDBRANCH  15  18
ENDBRANCH  11  12
ENDBRANCH   2  11
TORSDOF 6
ENDMDL
MODEL 2
REMARK VINA RESULT:      -8.7      1.583      2.489
REMARK  6 active torsions:
REMARK  status: ('A' for Active; 'I' for Inactive)
REMARK    1  A    between atoms: O_2  and  C_3 
REMARK    2  A    between atoms: C_4  and  O_5 
REMARK    3  A    between atoms: O_5  and  C_6 
REMARK    4  A    between atoms: C_9  and  N_10 
REMARK       I    between atoms: N_10  and  C_11 
REMARK    5  A    between atoms: C_11  and  C_12 
REMARK    6  A    between atoms: C_12  and  C_13 
ROOT
HETATM    1  C   UNL     1       6.218  25.843  55.089  1.00  0.00     0.103 A 
HETATM    2  C   UNL     1       6.865  26.883  54.401  1.00  0.00     0.109 A 
HETATM    3  C   UNL     1       7.702  26.605  53.314  1.00  0.00     0.041 A 
HETATM    4  C   UNL     1       7.942  25.282  52.943  1.00  0.00     0.025 A 
HETATM    5  C   UNL     1       7.330  24.238  53.644  1.00  0.00     0.047 A 
HETATM    6  C   UNL     1       7.575  22.878  53.263  1.00  0.00     0.099 C 
HETATM    7  N   UNL     1       7.771  21.774  52.960  1.00  0.00    -0.191 NA
HETATM    8  C   UNL     1       6.467  24.518  54.714  1.00  0.00     0.062 A 
ENDROOT
BRANCH   1   9
HETATM    9  O   UNL     1       5.391  26.219  56.114  1.00  0.00    -0.353 OA
HETATM   10  C   UNL     1       5.127  25.254  57.126  1.00  0.00     0.210 C 
ENDBRANCH   1   9
BRANCH   2  11
HETATM   11  O   UNL     1       6.551  28.178  54.754  1.00  0.00    -0.308 OA
BRANCH  11  12
HETATM   12  C   UNL     1       7.049  28.691  55.928  1.00  0.00     0.076 A 
HETATM   13  C   UNL     1       6.185  29.524  56.636  1.00  0.00     0.039 A 
HETATM   14  C   UNL     1       6.566  30.056  57.872  1.00  0.00     0.032 A 
HETATM   15  C   UNL     1       7.815  29.754  58.419  1.00  0.00     0.034 A 
HETATM   16  C   UNL     1       8.677  28.912  57.704  1.00  0.00     0.032 A 
HETATM   17  C   UNL     1       8.291  28.367  56.471  1.00  0.00     0.039 A 
BRANCH  15  18
HETATM   18  N   UNL     1       8.269  30.246  59.661  1.00  0.00    -0.327 N 
HETATM   19  C   UNL     1       8.885  31.466  59.907  1.00  0.00     0.227 C 
HETATM   20  O   UNL     1       9.075  32.352  59.075  1.00  0.00    -0.273 OA
HETATM   21  H   UNL     1       8.080  29.659  60.464  1.00  0.00     0.169 HD
BRANCH  19  22
HETATM   22  C   UNL     1       9.255  31.645  61.383  1.00  0.00     0.159 C 
BRANCH  22  23
HETATM   23  C   UNL     1       8.246  32.425  62.173  1.00  0.00     0.017 A 
HETATM   24  N   UNL     1       7.245  33.166  61.584  1.00  0.00    -0.369 N 
HETATM   25  H   UNL     1       7.134  33.280  60.579  1.00  0.00     0.165 HD
HETATM   26  C   UNL     1       6.466  33.746  62.548  1.00  0.00     0.088 A 
HETATM   27  C   UNL     1       6.961  33.373  63.775  1.00  0.00     0.019 A 
HETATM   28  C   UNL     1       8.081  32.540  63.542  1.00  0.00     0.027 A 
ENDBRANCH  22  23
ENDBRANCH  19  22
ENDBRANCH  15  18
ENDBRANCH  11  12
ENDBRANCH   2  11
TORSDOF 6
ENDMDL
MODEL 3
REMARK VINA RESULT:      -8.5      1.176      2.108
REMARK  6 active torsions:
REMARK  status: ('A' for Active; 'I' for Inactive)
REMARK    1  A    between atoms: O_2  and  C_3 
REMARK    2  A    between atoms: C_4  and  O_5 
REMARK    3  A    between atoms: O_5  and  C_6 
REMARK    4  A    between atoms: C_9  and  N_10 
REMARK       I    between atoms: N_10  and  C_11 
REMARK    5  A    between atoms: C_11  and  C_12 
REMARK    6  A    between atoms: C_12  and  C_13 
ROOT
HETATM    1  C   UNL     1       6.358  24.650  54.662  1.00  0.00     0.103 A 
HETATM    2  C   UNL     1       6.570  25.611  53.659  1.00  0.00     0.109 A 
HETATM    3  C   UNL     1       7.335  25.303  52.528  1.00  0.00     0.041 A 
HETATM    4  C   UNL     1       7.938  24.051  52.417  1.00  0.00     0.025 A 
HETATM    5  C   UNL     1       7.760  23.099  53.426  1.00  0.00     0.047 A 
HETATM    6  C   UNL     1       8.379  21.810  53.314  1.00  0.00     0.099 C 
HETATM    7  N   UNL     1       8.878  20.765  53.228  1.00  0.00    -0.191 NA
HETATM    8  C   UNL     1       6.969  23.397  54.546  1.00  0.00     0.062 A 
ENDROOT
BRANCH   1   9
HETATM    9  O   UNL     1       5.566  25.035  55.711  1.00  0.00    -0.353 OA
HETATM   10  C   UNL     1       6.179  25.129  56.991  1.00  0.00     0.210 C 
ENDBRANCH   1   9
BRANCH   2  11
HETATM   11  O   UNL     1       5.905  26.813  53.772  1.00  0.00    -0.308 OA
BRANCH  11  12
HETATM   12  C   UNL     1       6.407  27.780  54.610  1.00  0.00     0.076 A 
HETATM   13  C   UNL     1       5.460  28.499  55.337  1.00  0.00     0.039 A 
HETATM   14  C   UNL     1       5.860  29.468  56.263  1.00  0.00     0.032 A 
HETATM   15  C   UNL     1       7.215  29.725  56.478  1.00  0.00     0.034 A 
HETATM   16  C   UNL     1       8.163  28.995  55.746  1.00  0.00     0.032 A 
HETATM   17  C   UNL     1       7.763  28.015  54.828  1.00  0.00     0.039 A 
BRANCH  15  18
HETATM   18  N   UNL     1       7.699  30.681  57.396  1.00  0.00    -0.327 N 
HETATM   19  C   UNL     1       8.182  30.447  58.677  1.00  0.00     0.227 C 
HETATM   20  O   UNL     1       8.326  29.341  59.195  1.00  0.00    -0.273 OA
HETATM   21  H   UNL     1       7.738  31.635  57.059  1.00  0.00     0.169 HD
BRANCH  19  22
HETATM   22  C   UNL     1       8.604  31.738  59.385  1.00  0.00     0.159 C 
BRANCH  22  23
HETATM   23  C   UNL     1       8.166  31.818  60.817  1.00  0.00     0.017 A 
HETATM   24  N   UNL     1       6.873  31.563  61.220  1.00  0.00    -0.369 N 
HETATM   25  H   UNL     1       6.109  31.346  60.584  1.00  0.00     0.165 HD
HETATM   26  C   UNL     1       6.774  31.689  62.579  1.00  0.00     0.088 A 
HETATM   27  C   UNL     1       8.017  32.022  63.065  1.00  0.00     0.019 A 
HETATM   28  C   UNL     1       8.895  32.102  61.958  1.00  0.00     0.027 A 
ENDBRANCH  22  23
ENDBRANCH  19  22
ENDBRANCH  15  18
ENDBRANCH  11  12
ENDBRANCH   2  11
TORSDOF 6
ENDMDL
MODEL 4
REMARK VINA RESULT:      -8.1      2.173     10.076
REMARK  6 active torsions:
REMARK  status: ('A' for Active; 'I' for Inactive)
REMARK    1  A    between atoms: O_2  and  C_3 
REMARK    2  A    between atoms: C_4  and  O_5 
REMARK    3  A    between atoms: O_5  and  C_6 
REMARK    4  A    between atoms: C_9  and  N_10 
REMARK       I    between atoms: N_10  and  C_11 
REMARK    5  A    between atoms: C_11  and  C_12 
REMARK    6  A    between atoms: C_12  and  C_13 
ROOT
HETATM    1  C   UNL     1       7.743  32.070  61.515  1.00  0.00     0.103 A 
HETATM    2  C   UNL     1       6.939  32.143  60.365  1.00  0.00     0.109 A 
HETATM    3  C   UNL     1       5.604  32.556  60.453  1.00  0.00     0.041 A 
HETATM    4  C   UNL     1       5.049  32.848  61.699  1.00  0.00     0.025 A 
HETATM    5  C   UNL     1       5.832  32.745  62.854  1.00  0.00     0.047 A 
HETATM    6  C   UNL     1       5.262  33.045  64.135  1.00  0.00     0.099 C 
HETATM    7  N   UNL     1       4.806  33.286  65.176  1.00  0.00    -0.191 NA
HETATM    8  C   UNL     1       7.177  32.359  62.761  1.00  0.00     0.062 A 
ENDROOT
BRANCH   1   9
HETATM    9  O   UNL     1       9.044  31.690  61.320  1.00  0.00    -0.353 OA
HETATM   10  C   UNL     1       9.429  30.409  61.804  1.00  0.00     0.210 C 
ENDBRANCH   1   9
BRANCH   2  11
HETATM   11  O   UNL     1       7.540  31.912  59.147  1.00  0.00    -0.308 OA
BRANCH  11  12
HETATM   12  C   UNL     1       7.168  30.810  58.414  1.00  0.00     0.076 A 
HETATM   13  C   UNL     1       7.994  29.695  58.537  1.00  0.00     0.039 A 
HETATM   14  C   UNL     1       7.679  28.500  57.881  1.00  0.00     0.032 A 
HETATM   15  C   UNL     1       6.527  28.405  57.098  1.00  0.00     0.034 A 
HETATM   16  C   UNL     1       5.698  29.530  56.981  1.00  0.00     0.032 A 
HETATM   17  C   UNL     1       6.006  30.723  57.649  1.00  0.00     0.039 A 
BRANCH  15  18
HETATM   18  N   UNL     1       6.138  27.236  56.410  1.00  0.00    -0.327 N 
HETATM   19  C   UNL     1       6.458  26.883  55.106  1.00  0.00     0.227 C 
HETATM   20  O   UNL     1       7.199  27.516  54.356  1.00  0.00    -0.273 OA
HETATM   21  H   UNL     1       5.605  26.564  56.949  1.00  0.00     0.169 HD
BRANCH  19  22
HETATM   22  C   UNL     1       5.839  25.542  54.697  1.00  0.00     0.159 C 
BRANCH  22  23
HETATM   23  C   UNL     1       6.844  24.512  54.274  1.00  0.00     0.017 A 
HETATM   24  N   UNL     1       7.760  23.958  55.142  1.00  0.00    -0.369 N 
HETATM   25  H   UNL     1       7.858  24.229  56.118  1.00  0.00     0.165 HD
HETATM   26  C   UNL     1       8.527  23.036  54.485  1.00  0.00     0.088 A 
HETATM   27  C   UNL     1       8.101  22.984  53.178  1.00  0.00     0.019 A 
HETATM   28  C   UNL     1       7.041  23.912  53.044  1.00  0.00     0.027 A 
ENDBRANCH  22  23
ENDBRANCH  19  22
ENDBRANCH  15  18
ENDBRANCH  11  12
ENDBRANCH   2  11
TORSDOF 6
ENDMDL
MODEL 5
REMARK VINA RESULT:      -8.1      3.669      9.717
REMARK  6 active torsions:
REMARK  status: ('A' for Active; 'I' for Inactive)
REMARK    1  A    between atoms: O_2  and  C_3 
REMARK    2  A    between atoms: C_4  and  O_5 
REMARK    3  A    between atoms: O_5  and  C_6 
REMARK    4  A    between atoms: C_9  and  N_10 
REMARK       I    between atoms: N_10  and  C_11 
REMARK    5  A    between atoms: C_11  and  C_12 
REMARK    6  A    between atoms: C_12  and  C_13 
ROOT
HETATM    1  C   UNL     1       6.354  29.243  57.568  1.00  0.00     0.103 A 
HETATM    2  C   UNL     1       6.864  28.066  56.994  1.00  0.00     0.109 A 
HETATM    3  C   UNL     1       8.244  27.880  56.858  1.00  0.00     0.041 A 
HETATM    4  C   UNL     1       9.122  28.892  57.243  1.00  0.00     0.025 A 
HETATM    5  C   UNL     1       8.623  30.081  57.784  1.00  0.00     0.047 A 
HETATM    6  C   UNL     1       9.525  31.123  58.181  1.00  0.00     0.099 C 
HETATM    7  N   UNL     1      10.251  31.970  58.504  1.00  0.00    -0.191 NA
HETATM    8  C   UNL     1       7.241  30.256  57.948  1.00  0.00     0.062 A 
ENDROOT
BRANCH   1   9
HETATM    9  O   UNL     1       4.992  29.315  57.692  1.00  0.00    -0.353 OA
HETATM   10  C   UNL     1       4.334  30.394  57.039  1.00  0.00     0.210 C 
ENDBRANCH   1   9
BRANCH   2  11
HETATM   11  O   UNL     1       5.969  27.063  56.688  1.00  0.00    -0.308 OA
BRANCH  11  12
HETATM   12  C   UNL     1       5.653  26.828  55.371  1.00  0.00     0.076 A 
HETATM   13  C   UNL     1       6.141  25.637  54.836  1.00  0.00     0.039 A 
HETATM   14  C   UNL     1       5.833  25.269  53.523  1.00  0.00     0.032 A 
HETATM   15  C   UNL     1       5.024  26.085  52.730  1.00  0.00     0.034 A 
HETATM   16  C   UNL     1       4.533  27.279  53.275  1.00  0.00     0.032 A 
HETATM   17  C   UNL     1       4.831  27.643  54.595  1.00  0.00     0.039 A 
BRANCH  15  18
HETATM   18  N   UNL     1       4.664  25.781  51.399  1.00  0.00    -0.327 N 
HETATM   19  C   UNL     1       4.858  26.572  50.275  1.00  0.00     0.227 C 
HETATM   20  O   UNL     1       5.444  27.653  50.253  1.00  0.00    -0.273 OA
HETATM   21  H   UNL     1       4.262  24.863  51.251  1.00  0.00     0.169 HD
BRANCH  19  22
HETATM   22  C   UNL     1       4.319  25.914  49.000  1.00  0.00     0.159 C 
BRANCH  22  23
HETATM   23  C   UNL     1       3.109  26.593  48.430  1.00  0.00     0.017 A 
HETATM   24  N   UNL     1       2.415  27.575  49.103  1.00  0.00    -0.369 N 
HETATM   25  H   UNL     1       2.636  27.887  50.046  1.00  0.00     0.165 HD
HETATM   26  C   UNL     1       1.377  28.023  48.332  1.00  0.00     0.088 A 
HETATM   27  C   UNL     1       1.401  27.331  47.144  1.00  0.00     0.019 A 
HETATM   28  C   UNL     1       2.492  26.431  47.203  1.00  0.00     0.027 A 
ENDBRANCH  22  23
ENDBRANCH  19  22
ENDBRANCH  15  18
ENDBRANCH  11  12
ENDBRANCH   2  11
TORSDOF 6
ENDMDL
MODEL 6
REMARK VINA RESULT:      -7.6      2.392      3.602
REMARK  6 active torsions:
REMARK  status: ('A' for Active; 'I' for Inactive)
REMARK    1  A    between atoms: O_2  and  C_3 
REMARK    2  A    between atoms: C_4  and  O_5 
REMARK    3  A    between atoms: O_5  and  C_6 
REMARK    4  A    between atoms: C_9  and  N_10 
REMARK       I    between atoms: N_10  and  C_11 
REMARK    5  A    between atoms: C_11  and  C_12 
REMARK    6  A    between atoms: C_12  and  C_13 
ROOT
HETATM    1  C   UNL     1       5.627  25.706  52.424  1.00  0.00     0.103 A 
HETATM    2  C   UNL     1       5.067  26.741  53.192  1.00  0.00     0.109 A 
HETATM    3  C   UNL     1       4.369  27.787  52.577  1.00  0.00     0.041 A 
HETATM    4  C   UNL     1       4.273  27.834  51.187  1.00  0.00     0.025 A 
HETATM    5  C   UNL     1       4.856  26.826  50.412  1.00  0.00     0.047 A 
HETATM    6  C   UNL     1       4.757  26.873  48.982  1.00  0.00     0.099 C 
HETATM    7  N   UNL     1       4.681  26.906  47.824  1.00  0.00    -0.191 NA
HETATM    8  C   UNL     1       5.530  25.763  51.030  1.00  0.00     0.062 A 
ENDROOT
BRANCH   1   9
HETATM    9  O   UNL     1       6.259  24.710  53.121  1.00  0.00    -0.353 OA
HETATM   10  C   UNL     1       7.485  24.220  52.590  1.00  0.00     0.210 C 
ENDBRANCH   1   9
BRANCH   2  11
HETATM   11  O   UNL     1       5.126  26.625  54.564  1.00  0.00    -0.308 OA
BRANCH  11  12
HETATM   12  C   UNL     1       5.644  27.662  55.303  1.00  0.00     0.076 A 
HETATM   13  C   UNL     1       4.899  28.040  56.418  1.00  0.00     0.039 A 
HETATM   14  C   UNL     1       5.361  29.046  57.273  1.00  0.00     0.032 A 
HETATM   15  C   UNL     1       6.579  29.682  57.026  1.00  0.00     0.034 A 
HETATM   16  C   UNL     1       7.325  29.294  55.904  1.00  0.00     0.032 A 
HETATM   17  C   UNL     1       6.870  28.277  55.054  1.00  0.00     0.039 A 
BRANCH  15  18
HETATM   18  N   UNL     1       7.115  30.700  57.843  1.00  0.00    -0.327 N 
HETATM   19  C   UNL     1       7.946  30.544  58.943  1.00  0.00     0.227 C 
HETATM   20  O   UNL     1       8.406  29.477  59.346  1.00  0.00    -0.273 OA
HETATM   21  H   UNL     1       6.903  31.649  57.559  1.00  0.00     0.169 HD
BRANCH  19  22
HETATM   22  C   UNL     1       8.312  31.883  59.592  1.00  0.00     0.159 C 
BRANCH  22  23
HETATM   23  C   UNL     1       7.965  31.969  61.048  1.00  0.00     0.017 A 
HETATM   24  N   UNL     1       6.749  31.564  61.554  1.00  0.00    -0.369 N 
HETATM   25  H   UNL     1       5.981  31.217  60.984  1.00  0.00     0.165 HD
HETATM   26  C   UNL     1       6.727  31.737  62.911  1.00  0.00     0.088 A 
HETATM   27  C   UNL     1       7.943  32.255  63.292  1.00  0.00     0.019 A 
HETATM   28  C   UNL     1       8.725  32.400  62.121  1.00  0.00     0.027 A 
ENDBRANCH  22  23
ENDBRANCH  19  22
ENDBRANCH  15  18
ENDBRANCH  11  12
ENDBRANCH   2  11
TORSDOF 6
ENDMDL
MODEL 7
REMARK VINA RESULT:      -7.5      2.092      9.137
REMARK  6 active torsions:
REMARK  status: ('A' for Active; 'I' for Inactive)
REMARK    1  A    between atoms: O_2  and  C_3 
REMARK    2  A    between atoms: C_4  and  O_5 
REMARK    3  A    between atoms: O_5  and  C_6 
REMARK    4  A    between atoms: C_9  and  N_10 
REMARK       I    between atoms: N_10  and  C_11 
REMARK    5  A    between atoms: C_11  and  C_12 
REMARK    6  A    between atoms: C_12  and  C_13 
ROOT
HETATM    1  C   UNL     1       6.140  31.096  58.164  1.00  0.00     0.103 A 
HETATM    2  C   UNL     1       6.639  29.930  57.560  1.00  0.00     0.109 A 
HETATM    3  C   UNL     1       7.809  29.327  58.035  1.00  0.00     0.041 A 
HETATM    4  C   UNL     1       8.518  29.916  59.082  1.00  0.00     0.025 A 
HETATM    5  C   UNL     1       8.047  31.096  59.668  1.00  0.00     0.047 A 
HETATM    6  C   UNL     1       8.774  31.702  60.745  1.00  0.00     0.099 C 
HETATM    7  N   UNL     1       9.360  32.198  61.617  1.00  0.00    -0.191 NA
HETATM    8  C   UNL     1       6.858  31.684  59.211  1.00  0.00     0.062 A 
ENDROOT
BRANCH   1   9
HETATM    9  O   UNL     1       4.970  31.590  57.651  1.00  0.00    -0.353 OA
HETATM   10  C   UNL     1       3.802  31.466  58.453  1.00  0.00     0.210 C 
ENDBRANCH   1   9
BRANCH   2  11
HETATM   11  O   UNL     1       5.877  29.343  56.574  1.00  0.00    -0.308 OA
BRANCH  11  12
HETATM   12  C   UNL     1       6.269  28.130  56.058  1.00  0.00     0.076 A 
HETATM   13  C   UNL     1       7.051  28.188  54.906  1.00  0.00     0.039 A 
HETATM   14  C   UNL     1       7.553  27.018  54.328  1.00  0.00     0.032 A 
HETATM   15  C   UNL     1       7.283  25.773  54.901  1.00  0.00     0.034 A 
HETATM   16  C   UNL     1       6.500  25.722  56.062  1.00  0.00     0.032 A 
HETATM   17  C   UNL     1       6.007  26.895  56.649  1.00  0.00     0.039 A 
BRANCH  15  18
HETATM   18  N   UNL     1       7.757  24.549  54.381  1.00  0.00    -0.327 N 
HETATM   19  C   UNL     1       7.172  23.776  53.387  1.00  0.00     0.227 C 
HETATM   20  O   UNL     1       6.165  24.076  52.748  1.00  0.00    -0.273 OA
HETATM   21  H   UNL     1       8.646  24.231  54.746  1.00  0.00     0.169 HD
BRANCH  19  22
HETATM   22  C   UNL     1       7.968  22.499  53.098  1.00  0.00     0.159 C 
BRANCH  22  23
HETATM   23  C   UNL     1       8.217  21.650  54.309  1.00  0.00     0.017 A 
HETATM   24  N   UNL     1       9.468  21.483  54.863  1.00  0.00    -0.369 N 
HETATM   25  H   UNL     1      10.321  21.882  54.478  1.00  0.00     0.165 HD
HETATM   26  C   UNL     1       9.385  20.679  55.967  1.00  0.00     0.088 A 
HETATM   27  C   UNL     1       8.068  20.324  56.136  1.00  0.00     0.019 A 
HETATM   28  C   UNL     1       7.329  20.936  55.095  1.00  0.00     0.027 A 
ENDBRANCH  22  23
ENDBRANCH  19  22
ENDBRANCH  15  18
ENDBRANCH  11  12
ENDBRANCH   2  11
TORSDOF 6
ENDMDL
MODEL 8
REMARK VINA RESULT:      -7.4      5.576      9.322
REMARK  6 active torsions:
REMARK  status: ('A' for Active; 'I' for Inactive)
REMARK    1  A    between atoms: O_2  and  C_3 
REMARK    2  A    between atoms: C_4  and  O_5 
REMARK    3  A    between atoms: O_5  and  C_6 
REMARK    4  A    between atoms: C_9  and  N_10 
REMARK       I    between atoms: N_10  and  C_11 
REMARK    5  A    between atoms: C_11  and  C_12 
REMARK    6  A    between atoms: C_12  and  C_13 
ROOT
HETATM    1  C   UNL     1       6.817  24.091  55.040  1.00  0.00     0.103 A 
HETATM    2  C   UNL     1       7.146  24.768  53.853  1.00  0.00     0.109 A 
HETATM    3  C   UNL     1       7.878  24.126  52.847  1.00  0.00     0.041 A 
HETATM    4  C   UNL     1       8.333  22.823  53.044  1.00  0.00     0.025 A 
HETATM    5  C   UNL     1       8.040  22.153  54.236  1.00  0.00     0.047 A 
HETATM    6  C   UNL     1       8.507  20.813  54.439  1.00  0.00     0.099 C 
HETATM    7  N   UNL     1       8.884  19.727  54.609  1.00  0.00    -0.191 NA
HETATM    8  C   UNL     1       7.281  22.786  55.232  1.00  0.00     0.062 A 
ENDROOT
BRANCH   1   9
HETATM    9  O   UNL     1       6.068  24.792  55.948  1.00  0.00    -0.353 OA
HETATM   10  C   UNL     1       6.720  25.226  57.135  1.00  0.00     0.210 C 
ENDBRANCH   1   9
BRANCH   2  11
HETATM   11  O   UNL     1       6.622  26.029  53.669  1.00  0.00    -0.308 OA
BRANCH  11  12
HETATM   12  C   UNL     1       5.922  26.302  52.518  1.00  0.00     0.076 A 
HETATM   13  C   UNL     1       6.025  27.608  52.043  1.00  0.00     0.039 A 
HETATM   14  C   UNL     1       5.399  27.982  50.849  1.00  0.00     0.032 A 
HETATM   15  C   UNL     1       4.668  27.049  50.111  1.00  0.00     0.034 A 
HETATM   16  C   UNL     1       4.572  25.736  50.592  1.00  0.00     0.032 A 
HETATM   17  C   UNL     1       5.209  25.357  51.781  1.00  0.00     0.039 A 
BRANCH  15  18
HETATM   18  N   UNL     1       4.014  27.346  48.897  1.00  0.00    -0.327 N 
HETATM   19  C   UNL     1       2.818  28.032  48.732  1.00  0.00     0.227 C 
HETATM   20  O   UNL     1       2.163  28.553  49.634  1.00  0.00    -0.273 OA
HETATM   21  H   UNL     1       4.501  27.066  48.054  1.00  0.00     0.169 HD
BRANCH  19  22
HETATM   22  C   UNL     1       2.410  28.148  47.260  1.00  0.00     0.159 C 
BRANCH  22  23
HETATM   23  C   UNL     1       2.529  29.535  46.703  1.00  0.00     0.017 A 
HETATM   24  N   UNL     1       1.519  30.147  45.993  1.00  0.00    -0.369 N 
HETATM   25  H   UNL     1       0.637  29.699  45.755  1.00  0.00     0.165 HD
HETATM   26  C   UNL     1       1.901  31.410  45.633  1.00  0.00     0.088 A 
HETATM   27  C   UNL     1       3.169  31.625  46.119  1.00  0.00     0.019 A 
HETATM   28  C   UNL     1       3.567  30.446  46.794  1.00  0.00     0.027 A 
ENDBRANCH  22  23
ENDBRANCH  19  22
ENDBRANCH  15  18
ENDBRANCH  11  12
ENDBRANCH   2  11
TORSDOF 6
ENDMDL
MODEL 9
REMARK VINA RESULT:      -7.0      3.205      9.803
REMARK  6 active torsions:
REMARK  status: ('A' for Active; 'I' for Inactive)
REMARK    1  A    between atoms: O_2  and  C_3 
REMARK    2  A    between atoms: C_4  and  O_5 
REMARK    3  A    between atoms: O_5  and  C_6 
REMARK    4  A    between atoms: C_9  and  N_10 
REMARK       I    between atoms: N_10  and  C_11 
REMARK    5  A    between atoms: C_11  and  C_12 
REMARK    6  A    between atoms: C_12  and  C_13 
ROOT
HETATM    1  C   UNL     1       5.774  32.372  58.435  1.00  0.00     0.103 A 
HETATM    2  C   UNL     1       5.707  31.263  57.576  1.00  0.00     0.109 A 
HETATM    3  C   UNL     1       4.666  31.142  56.648  1.00  0.00     0.041 A 
HETATM    4  C   UNL     1       3.655  32.102  56.611  1.00  0.00     0.025 A 
HETATM    5  C   UNL     1       3.694  33.192  57.485  1.00  0.00     0.047 A 
HETATM    6  C   UNL     1       2.655  34.180  57.447  1.00  0.00     0.099 C 
HETATM    7  N   UNL     1       1.817  34.983  57.422  1.00  0.00    -0.191 NA
HETATM    8  C   UNL     1       4.753  33.328  58.395  1.00  0.00     0.062 A 
ENDROOT
BRANCH   1   9
HETATM    9  O   UNL     1       6.850  32.418  59.282  1.00  0.00    -0.353 OA
HETATM   10  C   UNL     1       6.589  32.690  60.653  1.00  0.00     0.210 C 
ENDBRANCH   1   9
BRANCH   2  11
HETATM   11  O   UNL     1       6.758  30.371  57.597  1.00  0.00    -0.308 OA
BRANCH  11  12
HETATM   12  C   UNL     1       6.691  29.238  56.822  1.00  0.00     0.076 A 
HETATM   13  C   UNL     1       7.437  29.267  55.645  1.00  0.00     0.039 A 
HETATM   14  C   UNL     1       7.488  28.147  54.809  1.00  0.00     0.032 A 
HETATM   15  C   UNL     1       6.797  26.982  55.143  1.00  0.00     0.034 A 
HETATM   16  C   UNL     1       6.051  26.958  56.330  1.00  0.00     0.032 A 
HETATM   17  C   UNL     1       6.010  28.074  57.176  1.00  0.00     0.039 A 
BRANCH  15  18
HETATM   18  N   UNL     1       6.802  25.811  54.355  1.00  0.00    -0.327 N 
HETATM   19  C   UNL     1       7.538  24.654  54.574  1.00  0.00     0.227 C 
HETATM   20  O   UNL     1       8.266  24.442  55.543  1.00  0.00    -0.273 OA
HETATM   21  H   UNL     1       6.160  25.804  53.572  1.00  0.00     0.169 HD
BRANCH  19  22
HETATM   22  C   UNL     1       7.296  23.595  53.493  1.00  0.00     0.159 C 
BRANCH  22  23
HETATM   23  C   UNL     1       7.754  22.219  53.876  1.00  0.00     0.017 A 
HETATM   24  N   UNL     1       7.669  21.732  55.162  1.00  0.00    -0.369 N 
HETATM   25  H   UNL     1       7.332  22.272  55.956  1.00  0.00     0.165 HD
HETATM   26  C   UNL     1       8.138  20.447  55.205  1.00  0.00     0.088 A 
HETATM   27  C   UNL     1       8.526  20.094  53.934  1.00  0.00     0.019 A 
HETATM   28  C   UNL     1       8.283  21.208  53.095  1.00  0.00     0.027 A 
ENDBRANCH  22  23
ENDBRANCH  19  22
ENDBRANCH  15  18
ENDBRANCH  11  12
ENDBRANCH   2  11
TORSDOF 6
ENDMDL
MODEL 10
REMARK VINA RESULT:      -6.8      6.587     10.566
REMARK  6 active torsions:
REMARK  status: ('A' for Active; 'I' for Inactive)
REMARK    1  A    between atoms: O_2  and  C_3 
REMARK    2  A    between atoms: C_4  and  O_5 
REMARK    3  A    between atoms: O_5  and  C_6 
REMARK    4  A    between atoms: C_9  and  N_10 
REMARK       I    between atoms: N_10  and  C_11 
REMARK    5  A    between atoms: C_11  and  C_12 
REMARK    6  A    between atoms: C_12  and  C_13 
ROOT
HETATM    1  C   UNL     1       4.985  32.192  46.104  1.00  0.00     0.103 A 
HETATM    2  C   UNL     1       4.845  31.954  47.482  1.00  0.00     0.109 A 
HETATM    3  C   UNL     1       5.685  32.591  48.403  1.00  0.00     0.041 A 
HETATM    4  C   UNL     1       6.705  33.427  47.950  1.00  0.00     0.025 A 
HETATM    5  C   UNL     1       6.874  33.643  46.579  1.00  0.00     0.047 A 
HETATM    6  C   UNL     1       7.922  34.503  46.111  1.00  0.00     0.099 C 
HETATM    7  N   UNL     1       8.770  35.197  45.728  1.00  0.00    -0.191 NA
HETATM    8  C   UNL     1       6.014  33.028  45.657  1.00  0.00     0.062 A 
ENDROOT
BRANCH   1   9
HETATM    9  O   UNL     1       4.093  31.550  45.286  1.00  0.00    -0.353 OA
HETATM   10  C   UNL     1       4.062  31.943  43.920  1.00  0.00     0.210 C 
ENDBRANCH   1   9
BRANCH   2  11
HETATM   11  O   UNL     1       3.785  31.176  47.894  1.00  0.00    -0.308 OA
BRANCH  11  12
HETATM   12  C   UNL     1       4.037  30.007  48.573  1.00  0.00     0.076 A 
HETATM   13  C   UNL     1       3.424  29.888  49.818  1.00  0.00     0.039 A 
HETATM   14  C   UNL     1       3.564  28.718  50.571  1.00  0.00     0.032 A 
HETATM   15  C   UNL     1       4.315  27.648  50.082  1.00  0.00     0.034 A 
HETATM   16  C   UNL     1       4.926  27.772  48.827  1.00  0.00     0.032 A 
HETATM   17  C   UNL     1       4.776  28.939  48.066  1.00  0.00     0.039 A 
BRANCH  15  18
HETATM   18  N   UNL     1       4.500  26.434  50.777  1.00  0.00    -0.327 N 
HETATM   19  C   UNL     1       5.418  26.175  51.787  1.00  0.00     0.227 C 
HETATM   20  O   UNL     1       6.183  26.998  52.286  1.00  0.00    -0.273 OA
HETATM   21  H   UNL     1       3.857  25.688  50.541  1.00  0.00     0.169 HD
BRANCH  19  22
HETATM   22  C   UNL     1       5.335  24.731  52.293  1.00  0.00     0.159 C 
BRANCH  22  23
HETATM   23  C   UNL     1       6.478  24.330  53.177  1.00  0.00     0.017 A 
HETATM   24  N   UNL     1       6.762  24.963  54.367  1.00  0.00    -0.369 N 
HETATM   25  H   UNL     1       6.254  25.772  54.719  1.00  0.00     0.165 HD
HETATM   26  C   UNL     1       7.840  24.370  54.966  1.00  0.00     0.088 A 
HETATM   27  C   UNL     1       8.257  23.336  54.160  1.00  0.00     0.019 A 
HETATM   28  C   UNL     1       7.399  23.308  53.034  1.00  0.00     0.027 A 
ENDBRANCH  22  23
ENDBRANCH  19  22
ENDBRANCH  15  18
ENDBRANCH  11  12
ENDBRANCH   2  11
TORSDOF 6
ENDMDL
