MODEL 1
REMARK VINA RESULT:     -10.1      0.000      0.000
REMARK  5 active torsions:
REMARK  status: ('A' for Active; 'I' for Inactive)
REMARK    1  A    between atoms: C_6  and  N_7 
REMARK       I    between atoms: N_7  and  C_8 
REMARK       I    between atoms: C_8  and  N_9 
REMARK    2  A    between atoms: N_9  and  C_10 
REMARK    3  A    between atoms: C_13  and  C_14 
REMARK       I    between atoms: C_14  and  N_15 
REMARK    4  A    between atoms: N_15  and  C_16 
REMARK    5  A    between atoms: C_16  and  C_17 
ROOT
HETATM    1  C   UNL     1       8.519  29.227  57.230  1.00  0.00     0.175 A 
HETATM    2  S   UNL     1       7.149  29.626  56.299  1.00  0.00    -0.061 SA
HETATM    3  C   UNL     1       6.673  27.985  56.336  1.00  0.00     0.090 A 
HETATM    4  C   UNL     1       7.574  27.239  57.079  1.00  0.00     0.133 A 
HETATM    5  N   UNL     1       8.669  27.968  57.573  1.00  0.00    -0.218 NA
ENDROOT
BRANCH   1   6
HETATM    6  N   UNL     1       9.316  30.292  57.517  1.00  0.00    -0.287 N 
HETATM    7  C   UNL     1       9.192  31.166  58.555  1.00  0.00     0.326 C 
HETATM    8  N   UNL     1       8.212  30.904  59.474  1.00  0.00    -0.309 N 
HETATM    9  O   UNL     1       9.990  32.100  58.600  1.00  0.00    -0.247 OA
HETATM   10  H   UNL     1       7.680  30.057  59.300  1.00  0.00     0.170 HD
HETATM   11  H   UNL     1      10.089  30.479  56.897  1.00  0.00     0.172 HD
BRANCH   8  12
HETATM   12  C   UNL     1       7.916  31.619  60.652  1.00  0.00     0.037 A 
HETATM   13  C   UNL     1       6.990  32.664  60.719  1.00  0.00     0.053 A 
HETATM   14  C   UNL     1       6.769  33.328  61.927  1.00  0.00     0.036 A 
HETATM   15  C   UNL     1       7.464  32.964  63.078  1.00  0.00     0.024 A 
HETATM   16 CL   UNL     1       5.622  34.612  62.001  1.00  0.00    -0.084 Cl
HETATM   17  C   UNL     1       8.384  31.920  63.022  1.00  0.00     0.004 A 
HETATM   18  C   UNL     1       8.605  31.248  61.815  1.00  0.00     0.029 A 
ENDBRANCH   8  12
ENDBRANCH   1   6
BRANCH   4  19
HETATM   19  C   UNL     1       7.384  25.811  57.348  1.00  0.00     0.271 C 
HETATM   20  N   UNL     1       8.550  25.084  57.345  1.00  0.00    -0.351 N 
HETATM   21  H   UNL     1       9.395  25.550  57.040  1.00  0.00     0.163 HD
HETATM   22  O   UNL     1       6.282  25.319  57.572  1.00  0.00    -0.266 OA
BRANCH  20  23
HETATM   23  C   UNL     1       8.532  23.660  57.571  1.00  0.00     0.161 C 
BRANCH  23  24
HETATM   24  C   UNL     1       8.402  22.856  56.302  1.00  0.00    -0.040 A 
HETATM   25  C   UNL     1       8.564  23.442  55.036  1.00  0.00     0.010 A 
HETATM   26  C   UNL     1       8.498  22.664  53.877  1.00  0.00     0.024 A 
HETATM   27  C   UNL     1       8.292  21.290  53.975  1.00  0.00     0.034 A 
HETATM   28 CL   UNL     1       8.226  20.329  52.550  1.00  0.00    -0.084 Cl
HETATM   29  C   UNL     1       8.152  20.688  55.222  1.00  0.00     0.024 A 
HETATM   30  C   UNL     1       8.210  21.467  56.380  1.00  0.00     0.010 A 
ENDBRANCH  23  24
ENDBRANCH  20  23
ENDBRANCH   4  19
TORSDOF 5
ENDMDL
MODEL 2
REMARK VINA RESULT:     -10.1      2.425     10.130
REMARK  5 active torsions:
REMARK  status: ('A' for Active; 'I' for Inactive)
REMARK    1  A    between atoms: C_6  and  N_7 
REMARK       I    between atoms: N_7  and  C_8 
REMARK       I    between atoms: C_8  and  N_9 
REMARK    2  A    between atoms: N_9  and  C_10 
REMARK    3  A    between atoms: C_13  and  C_14 
REMARK       I    between atoms: C_14  and  N_15 
REMARK    4  A    between atoms: N_15  and  C_16 
REMARK    5  A    between atoms: C_16  and  C_17 
ROOT
HETATM    1  C   UNL     1       5.293  27.421  55.322  1.00  0.00     0.175 A 
HETATM    2  S   UNL     1       4.177  28.567  55.908  1.00  0.00    -0.061 SA
HETATM    3  C   UNL     1       5.381  29.165  56.964  1.00  0.00     0.090 A 
HETATM    4  C   UNL     1       6.568  28.473  56.783  1.00  0.00     0.133 A 
HETATM    5  N   UNL     1       6.499  27.432  55.841  1.00  0.00    -0.218 NA
ENDROOT
BRANCH   1   6
HETATM    6  N   UNL     1       4.787  26.609  54.352  1.00  0.00    -0.287 N 
HETATM    7  C   UNL     1       5.282  25.413  53.929  1.00  0.00     0.326 C 
HETATM    8  N   UNL     1       6.361  24.912  54.606  1.00  0.00    -0.309 N 
HETATM    9  O   UNL     1       4.700  24.865  52.995  1.00  0.00    -0.247 OA
HETATM   10  H   UNL     1       6.677  25.480  55.385  1.00  0.00     0.170 HD
HETATM   11  H   UNL     1       3.953  26.916  53.874  1.00  0.00     0.172 HD
BRANCH   8  12
HETATM   12  C   UNL     1       7.020  23.683  54.398  1.00  0.00     0.037 A 
HETATM   13  C   UNL     1       7.224  22.729  55.399  1.00  0.00     0.053 A 
HETATM   14  C   UNL     1       7.901  21.543  55.108  1.00  0.00     0.036 A 
HETATM   15  C   UNL     1       8.382  21.293  53.825  1.00  0.00     0.024 A 
HETATM   16 CL   UNL     1       8.145  20.370  56.347  1.00  0.00    -0.084 Cl
HETATM   17  C   UNL     1       8.177  22.236  52.820  1.00  0.00     0.004 A 
HETATM   18  C   UNL     1       7.495  23.423  53.106  1.00  0.00     0.029 A 
ENDBRANCH   8  12
ENDBRANCH   1   6
BRANCH   4  19
HETATM   19  C   UNL     1       7.799  28.816  57.499  1.00  0.00     0.271 C 
HETATM   20  N   UNL     1       7.807  30.089  58.015  1.00  0.00    -0.351 N 
HETATM   21  H   UNL     1       7.048  30.707  57.756  1.00  0.00     0.163 HD
HETATM   22  O   UNL     1       8.728  28.025  57.637  1.00  0.00    -0.266 OA
BRANCH  20  23
HETATM   23  C   UNL     1       8.955  30.589  58.729  1.00  0.00     0.161 C 
BRANCH  23  24
HETATM   24  C   UNL     1       8.621  31.124  60.098  1.00  0.00    -0.040 A 
HETATM   25  C   UNL     1       9.126  30.530  61.267  1.00  0.00     0.010 A 
HETATM   26  C   UNL     1       8.852  31.081  62.521  1.00  0.00     0.024 A 
HETATM   27  C   UNL     1       8.089  32.242  62.617  1.00  0.00     0.034 A 
HETATM   28 CL   UNL     1       7.764  32.928  64.161  1.00  0.00    -0.084 Cl
HETATM   29  C   UNL     1       7.599  32.858  61.469  1.00  0.00     0.024 A 
HETATM   30  C   UNL     1       7.867  32.303  60.215  1.00  0.00     0.010 A 
ENDBRANCH  23  24
ENDBRANCH  20  23
ENDBRANCH   4  19
TORSDOF 5
ENDMDL
MODEL 3
REMARK VINA RESULT:      -9.4      1.947      2.281
REMARK  5 active torsions:
REMARK  status: ('A' for Active; 'I' for Inactive)
REMARK    1  A    between atoms: C_6  and  N_7 
REMARK       I    between atoms: N_7  and  C_8 
REMARK       I    between atoms: C_8  and  N_9 
REMARK    2  A    between atoms: N_9  and  C_10 
REMARK    3  A    between atoms: C_13  and  C_14 
REMARK       I    between atoms: C_14  and  N_15 
REMARK    4  A    between atoms: N_15  and  C_16 
REMARK    5  A    between atoms: C_16  and  C_17 
ROOT
HETATM    1  C   UNL     1       5.408  29.571  56.506  1.00  0.00     0.175 A 
HETATM    2  S   UNL     1       4.923  29.309  54.894  1.00  0.00    -0.061 SA
HETATM    3  C   UNL     1       5.285  27.649  55.078  1.00  0.00     0.090 A 
HETATM    4  C   UNL     1       5.726  27.393  56.367  1.00  0.00     0.133 A 
HETATM    5  N   UNL     1       5.825  28.529  57.187  1.00  0.00    -0.218 NA
ENDROOT
BRANCH   1   6
HETATM    6  N   UNL     1       5.297  30.867  56.908  1.00  0.00    -0.287 N 
HETATM    7  C   UNL     1       5.988  31.490  57.903  1.00  0.00     0.326 C 
HETATM    8  N   UNL     1       6.973  30.768  58.522  1.00  0.00    -0.309 N 
HETATM    9  O   UNL     1       5.693  32.659  58.144  1.00  0.00    -0.247 OA
HETATM   10  H   UNL     1       7.109  29.832  58.155  1.00  0.00     0.170 HD
HETATM   11  H   UNL     1       4.625  31.449  56.431  1.00  0.00     0.172 HD
BRANCH   8  12
HETATM   12  C   UNL     1       7.855  31.197  59.535  1.00  0.00     0.037 A 
HETATM   13  C   UNL     1       7.467  31.438  60.855  1.00  0.00     0.053 A 
HETATM   14  C   UNL     1       8.405  31.876  61.793  1.00  0.00     0.036 A 
HETATM   15  C   UNL     1       9.734  32.078  61.429  1.00  0.00     0.024 A 
HETATM   16 CL   UNL     1       7.918  32.167  63.420  1.00  0.00    -0.084 Cl
HETATM   17  C   UNL     1      10.130  31.834  60.116  1.00  0.00     0.004 A 
HETATM   18  C   UNL     1       9.196  31.391  59.176  1.00  0.00     0.029 A 
ENDBRANCH   8  12
ENDBRANCH   1   6
BRANCH   4  19
HETATM   19  C   UNL     1       6.041  26.041  56.840  1.00  0.00     0.271 C 
HETATM   20  N   UNL     1       7.356  25.685  56.670  1.00  0.00    -0.351 N 
HETATM   21  H   UNL     1       7.948  26.307  56.134  1.00  0.00     0.163 HD
HETATM   22  O   UNL     1       5.203  25.308  57.356  1.00  0.00    -0.266 OA
BRANCH  20  23
HETATM   23  C   UNL     1       7.823  24.378  57.063  1.00  0.00     0.161 C 
BRANCH  23  24
HETATM   24  C   UNL     1       7.877  23.395  55.922  1.00  0.00    -0.040 A 
HETATM   25  C   UNL     1       8.012  23.816  54.589  1.00  0.00     0.010 A 
HETATM   26  C   UNL     1       8.121  22.883  53.554  1.00  0.00     0.024 A 
HETATM   27  C   UNL     1       8.119  21.521  53.846  1.00  0.00     0.034 A 
HETATM   28 CL   UNL     1       8.267  20.373  52.574  1.00  0.00    -0.084 Cl
HETATM   29  C   UNL     1       8.009  21.085  55.162  1.00  0.00     0.024 A 
HETATM   30  C   UNL     1       7.892  22.017  56.196  1.00  0.00     0.010 A 
ENDBRANCH  23  24
ENDBRANCH  20  23
ENDBRANCH   4  19
TORSDOF 5
ENDMDL
MODEL 4
REMARK VINA RESULT:      -9.4      1.527      1.934
REMARK  5 active torsions:
REMARK  status: ('A' for Active; 'I' for Inactive)
REMARK    1  A    between atoms: C_6  and  N_7 
REMARK       I    between atoms: N_7  and  C_8 
REMARK       I    between atoms: C_8  and  N_9 
REMARK    2  A    between atoms: N_9  and  C_10 
REMARK    3  A    between atoms: C_13  and  C_14 
REMARK       I    between atoms: C_14  and  N_15 
REMARK    4  A    between atoms: N_15  and  C_16 
REMARK    5  A    between atoms: C_16  and  C_17 
ROOT
HETATM    1  C   UNL     1       9.435  29.796  57.682  1.00  0.00     0.175 A 
HETATM    2  S   UNL     1       9.980  29.806  56.068  1.00  0.00    -0.061 SA
HETATM    3  C   UNL     1       8.873  28.555  55.710  1.00  0.00     0.090 A 
HETATM    4  C   UNL     1       8.136  28.226  56.837  1.00  0.00     0.133 A 
HETATM    5  N   UNL     1       8.493  28.937  57.995  1.00  0.00    -0.218 NA
ENDROOT
BRANCH   1   6
HETATM    6  N   UNL     1      10.057  30.710  58.476  1.00  0.00    -0.287 N 
HETATM    7  C   UNL     1       9.492  31.508  59.424  1.00  0.00     0.326 C 
HETATM    8  N   UNL     1       8.161  31.319  59.683  1.00  0.00    -0.309 N 
HETATM    9  O   UNL     1      10.228  32.311  59.993  1.00  0.00    -0.247 OA
HETATM   10  H   UNL     1       7.725  30.574  59.149  1.00  0.00     0.170 HD
HETATM   11  H   UNL     1      11.052  30.832  58.359  1.00  0.00     0.172 HD
BRANCH   8  12
HETATM   12  C   UNL     1       7.363  31.975  60.642  1.00  0.00     0.037 A 
HETATM   13  C   UNL     1       7.753  32.187  61.967  1.00  0.00     0.053 A 
HETATM   14  C   UNL     1       6.891  32.833  62.856  1.00  0.00     0.036 A 
HETATM   15  C   UNL     1       5.638  33.273  62.440  1.00  0.00     0.024 A 
HETATM   16 CL   UNL     1       7.382  33.094  64.487  1.00  0.00    -0.084 Cl
HETATM   17  C   UNL     1       5.243  33.071  61.119  1.00  0.00     0.004 A 
HETATM   18  C   UNL     1       6.104  32.429  60.224  1.00  0.00     0.029 A 
ENDBRANCH   8  12
ENDBRANCH   1   6
BRANCH   4  19
HETATM   19  C   UNL     1       7.056  27.236  56.813  1.00  0.00     0.271 C 
HETATM   20  N   UNL     1       7.375  26.081  56.142  1.00  0.00    -0.351 N 
HETATM   21  H   UNL     1       8.245  26.060  55.626  1.00  0.00     0.163 HD
HETATM   22  O   UNL     1       5.974  27.422  57.362  1.00  0.00    -0.266 OA
BRANCH  20  23
HETATM   23  C   UNL     1       6.413  25.015  56.009  1.00  0.00     0.161 C 
BRANCH  23  24
HETATM   24  C   UNL     1       6.907  23.865  55.169  1.00  0.00    -0.040 A 
HETATM   25  C   UNL     1       7.006  23.960  53.772  1.00  0.00     0.010 A 
HETATM   26  C   UNL     1       7.525  22.902  53.020  1.00  0.00     0.024 A 
HETATM   27  C   UNL     1       7.970  21.749  53.662  1.00  0.00     0.034 A 
HETATM   28 CL   UNL     1       8.622  20.452  52.739  1.00  0.00    -0.084 Cl
HETATM   29  C   UNL     1       7.901  21.645  55.048  1.00  0.00     0.024 A 
HETATM   30  C   UNL     1       7.375  22.700  55.799  1.00  0.00     0.010 A 
ENDBRANCH  23  24
ENDBRANCH  20  23
ENDBRANCH   4  19
TORSDOF 5
ENDMDL
MODEL 5
REMARK VINA RESULT:      -9.4      2.056      2.326
REMARK  5 active torsions:
REMARK  status: ('A' for Active; 'I' for Inactive)
REMARK    1  A    between atoms: C_6  and  N_7 
REMARK       I    between atoms: N_7  and  C_8 
REMARK       I    between atoms: C_8  and  N_9 
REMARK    2  A    between atoms: N_9  and  C_10 
REMARK    3  A    between atoms: C_13  and  C_14 
REMARK       I    between atoms: C_14  and  N_15 
REMARK    4  A    between atoms: N_15  and  C_16 
REMARK    5  A    between atoms: C_16  and  C_17 
ROOT
HETATM    1  C   UNL     1       5.675  30.429  57.550  1.00  0.00     0.175 A 
HETATM    2  S   UNL     1       4.459  29.555  56.737  1.00  0.00    -0.061 SA
HETATM    3  C   UNL     1       5.532  28.232  56.600  1.00  0.00     0.090 A 
HETATM    4  C   UNL     1       6.742  28.529  57.208  1.00  0.00     0.133 A 
HETATM    5  N   UNL     1       6.828  29.828  57.735  1.00  0.00    -0.218 NA
ENDROOT
BRANCH   1   6
HETATM    6  N   UNL     1       5.292  31.680  57.926  1.00  0.00    -0.287 N 
HETATM    7  C   UNL     1       5.470  32.273  59.139  1.00  0.00     0.326 C 
HETATM    8  N   UNL     1       6.193  31.579  60.071  1.00  0.00    -0.309 N 
HETATM    9  O   UNL     1       4.994  33.397  59.289  1.00  0.00    -0.247 OA
HETATM   10  H   UNL     1       6.551  30.684  59.753  1.00  0.00     0.170 HD
HETATM   11  H   UNL     1       4.812  32.247  57.244  1.00  0.00     0.172 HD
BRANCH   8  12
HETATM   12  C   UNL     1       6.556  31.991  61.369  1.00  0.00     0.037 A 
HETATM   13  C   UNL     1       5.648  32.467  62.319  1.00  0.00     0.053 A 
HETATM   14  C   UNL     1       6.098  32.869  63.579  1.00  0.00     0.036 A 
HETATM   15  C   UNL     1       7.450  32.804  63.906  1.00  0.00     0.024 A 
HETATM   16 CL   UNL     1       4.970  33.450  64.745  1.00  0.00    -0.084 Cl
HETATM   17  C   UNL     1       8.361  32.326  62.967  1.00  0.00     0.004 A 
HETATM   18  C   UNL     1       7.915  31.917  61.707  1.00  0.00     0.029 A 
ENDBRANCH   8  12
ENDBRANCH   1   6
BRANCH   4  19
HETATM   19  C   UNL     1       7.833  27.555  57.313  1.00  0.00     0.271 C 
HETATM   20  N   UNL     1       7.416  26.247  57.284  1.00  0.00    -0.351 N 
HETATM   21  H   UNL     1       6.421  26.068  57.324  1.00  0.00     0.163 HD
HETATM   22  O   UNL     1       9.011  27.888  57.399  1.00  0.00    -0.266 OA
BRANCH  20  23
HETATM   23  C   UNL     1       8.365  25.168  57.399  1.00  0.00     0.161 C 
BRANCH  23  24
HETATM   24  C   UNL     1       8.173  24.090  56.362  1.00  0.00    -0.040 A 
HETATM   25  C   UNL     1       7.906  24.397  55.018  1.00  0.00     0.010 A 
HETATM   26  C   UNL     1       7.792  23.383  54.064  1.00  0.00     0.024 A 
HETATM   27  C   UNL     1       7.967  22.054  54.441  1.00  0.00     0.034 A 
HETATM   28 CL   UNL     1       7.842  20.805  53.264  1.00  0.00    -0.084 Cl
HETATM   29  C   UNL     1       8.255  21.731  55.764  1.00  0.00     0.024 A 
HETATM   30  C   UNL     1       8.361  22.745  56.719  1.00  0.00     0.010 A 
ENDBRANCH  23  24
ENDBRANCH  20  23
ENDBRANCH   4  19
TORSDOF 5
ENDMDL
MODEL 6
REMARK VINA RESULT:      -9.3      6.031      9.150
REMARK  5 active torsions:
REMARK  status: ('A' for Active; 'I' for Inactive)
REMARK    1  A    between atoms: C_6  and  N_7 
REMARK       I    between atoms: N_7  and  C_8 
REMARK       I    between atoms: C_8  and  N_9 
REMARK    2  A    between atoms: N_9  and  C_10 
REMARK    3  A    between atoms: C_13  and  C_14 
REMARK       I    between atoms: C_14  and  N_15 
REMARK    4  A    between atoms: N_15  and  C_16 
REMARK    5  A    between atoms: C_16  and  C_17 
ROOT
HETATM    1  C   UNL     1       5.049  29.057  52.932  1.00  0.00     0.175 A 
HETATM    2  S   UNL     1       3.915  29.840  53.934  1.00  0.00    -0.061 SA
HETATM    3  C   UNL     1       4.194  28.658  55.136  1.00  0.00     0.090 A 
HETATM    4  C   UNL     1       5.156  27.755  54.710  1.00  0.00     0.133 A 
HETATM    5  N   UNL     1       5.628  27.978  53.406  1.00  0.00    -0.218 NA
ENDROOT
BRANCH   1   6
HETATM    6  N   UNL     1       5.226  29.664  51.726  1.00  0.00    -0.287 N 
HETATM    7  C   UNL     1       4.817  29.219  50.505  1.00  0.00     0.326 C 
HETATM    8  N   UNL     1       4.064  28.077  50.479  1.00  0.00    -0.309 N 
HETATM    9  O   UNL     1       5.131  29.897  49.528  1.00  0.00    -0.247 OA
HETATM   10  H   UNL     1       3.861  27.679  51.391  1.00  0.00     0.170 HD
HETATM   11  H   UNL     1       5.722  30.542  51.713  1.00  0.00     0.172 HD
BRANCH   8  12
HETATM   12  C   UNL     1       3.483  27.447  49.360  1.00  0.00     0.037 A 
HETATM   13  C   UNL     1       2.268  27.836  48.789  1.00  0.00     0.053 A 
HETATM   14  C   UNL     1       1.759  27.144  47.688  1.00  0.00     0.036 A 
HETATM   15  C   UNL     1       2.447  26.063  47.145  1.00  0.00     0.024 A 
HETATM   16 CL   UNL     1       0.262  27.634  46.988  1.00  0.00    -0.084 Cl
HETATM   17  C   UNL     1       3.662  25.672  47.704  1.00  0.00     0.004 A 
HETATM   18  C   UNL     1       4.179  26.365  48.803  1.00  0.00     0.029 A 
ENDBRANCH   8  12
ENDBRANCH   1   6
BRANCH   4  19
HETATM   19  C   UNL     1       5.654  26.671  55.561  1.00  0.00     0.271 C 
HETATM   20  N   UNL     1       6.961  26.326  55.316  1.00  0.00    -0.351 N 
HETATM   21  H   UNL     1       7.414  26.740  54.511  1.00  0.00     0.163 HD
HETATM   22  O   UNL     1       4.966  26.139  56.427  1.00  0.00    -0.266 OA
BRANCH  20  23
HETATM   23  C   UNL     1       7.594  25.262  56.054  1.00  0.00     0.161 C 
BRANCH  23  24
HETATM   24  C   UNL     1       7.825  24.020  55.232  1.00  0.00    -0.040 A 
HETATM   25  C   UNL     1       7.900  22.747  55.821  1.00  0.00     0.010 A 
HETATM   26  C   UNL     1       8.054  21.604  55.032  1.00  0.00     0.024 A 
HETATM   27  C   UNL     1       8.111  21.721  53.646  1.00  0.00     0.034 A 
HETATM   28 CL   UNL     1       8.285  20.313  52.673  1.00  0.00    -0.084 Cl
HETATM   29  C   UNL     1       8.015  22.971  53.042  1.00  0.00     0.024 A 
HETATM   30  C   UNL     1       7.869  24.115  53.831  1.00  0.00     0.010 A 
ENDBRANCH  23  24
ENDBRANCH  20  23
ENDBRANCH   4  19
TORSDOF 5
ENDMDL
MODEL 7
REMARK VINA RESULT:      -9.3      1.467     10.279
REMARK  5 active torsions:
REMARK  status: ('A' for Active; 'I' for Inactive)
REMARK    1  A    between atoms: C_6  and  N_7 
REMARK       I    between atoms: N_7  and  C_8 
REMARK       I    between atoms: C_8  and  N_9 
REMARK    2  A    between atoms: N_9  and  C_10 
REMARK    3  A    between atoms: C_13  and  C_14 
REMARK       I    between atoms: C_14  and  N_15 
REMARK    4  A    between atoms: N_15  and  C_16 
REMARK    5  A    between atoms: C_16  and  C_17 
ROOT
HETATM    1  C   UNL     1       6.956  28.038  56.796  1.00  0.00     0.175 A 
HETATM    2  S   UNL     1       7.751  28.537  55.374  1.00  0.00    -0.061 SA
HETATM    3  C   UNL     1       8.721  29.587  56.311  1.00  0.00     0.090 A 
HETATM    4  C   UNL     1       8.398  29.471  57.654  1.00  0.00     0.133 A 
HETATM    5  N   UNL     1       7.342  28.585  57.926  1.00  0.00    -0.218 NA
ENDROOT
BRANCH   1   6
HETATM    6  N   UNL     1       5.990  27.103  56.585  1.00  0.00    -0.287 N 
HETATM    7  C   UNL     1       6.138  25.868  56.029  1.00  0.00     0.326 C 
HETATM    8  N   UNL     1       7.413  25.471  55.725  1.00  0.00    -0.309 N 
HETATM    9  O   UNL     1       5.120  25.196  55.876  1.00  0.00    -0.247 OA
HETATM   10  H   UNL     1       8.136  26.140  55.968  1.00  0.00     0.170 HD
HETATM   11  H   UNL     1       5.047  27.334  56.856  1.00  0.00     0.172 HD
BRANCH   8  12
HETATM   12  C   UNL     1       7.832  24.234  55.196  1.00  0.00     0.037 A 
HETATM   13  C   UNL     1       8.238  23.149  55.977  1.00  0.00     0.053 A 
HETATM   14  C   UNL     1       8.653  21.963  55.367  1.00  0.00     0.036 A 
HETATM   15  C   UNL     1       8.671  21.844  53.980  1.00  0.00     0.024 A 
HETATM   16 CL   UNL     1       9.146  20.628  56.339  1.00  0.00    -0.084 Cl
HETATM   17  C   UNL     1       8.263  22.919  53.194  1.00  0.00     0.004 A 
HETATM   18  C   UNL     1       7.841  24.106  53.800  1.00  0.00     0.029 A 
ENDBRANCH   8  12
ENDBRANCH   1   6
BRANCH   4  19
HETATM   19  C   UNL     1       9.117  30.197  58.704  1.00  0.00     0.271 C 
HETATM   20  N   UNL     1       8.543  30.090  59.947  1.00  0.00    -0.351 N 
HETATM   21  H   UNL     1       7.635  29.648  60.011  1.00  0.00     0.163 HD
HETATM   22  O   UNL     1      10.149  30.825  58.488  1.00  0.00    -0.266 OA
BRANCH  20  23
HETATM   23  C   UNL     1       9.117  30.765  61.085  1.00  0.00     0.161 C 
BRANCH  23  24
HETATM   24  C   UNL     1       8.213  31.819  61.673  1.00  0.00    -0.040 A 
HETATM   25  C   UNL     1       7.172  32.398  60.929  1.00  0.00     0.010 A 
HETATM   26  C   UNL     1       6.310  33.329  61.514  1.00  0.00     0.024 A 
HETATM   27  C   UNL     1       6.467  33.672  62.855  1.00  0.00     0.034 A 
HETATM   28 CL   UNL     1       5.397  34.807  63.580  1.00  0.00    -0.084 Cl
HETATM   29  C   UNL     1       7.479  33.092  63.615  1.00  0.00     0.024 A 
HETATM   30  C   UNL     1       8.346  32.167  63.027  1.00  0.00     0.010 A 
ENDBRANCH  23  24
ENDBRANCH  20  23
ENDBRANCH   4  19
TORSDOF 5
ENDMDL
MODEL 8
REMARK VINA RESULT:      -9.3      1.672     10.080
REMARK  5 active torsions:
REMARK  status: ('A' for Active; 'I' for Inactive)
REMARK    1  A    between atoms: C_6  and  N_7 
REMARK       I    between atoms: N_7  and  C_8 
REMARK       I    between atoms: C_8  and  N_9 
REMARK    2  A    between atoms: N_9  and  C_10 
REMARK    3  A    between atoms: C_13  and  C_14 
REMARK       I    between atoms: C_14  and  N_15 
REMARK    4  A    between atoms: N_15  and  C_16 
REMARK    5  A    between atoms: C_16  and  C_17 
ROOT
HETATM    1  C   UNL     1       7.174  27.530  55.728  1.00  0.00     0.175 A 
HETATM    2  S   UNL     1       7.699  27.795  54.129  1.00  0.00    -0.061 SA
HETATM    3  C   UNL     1       8.862  28.901  54.718  1.00  0.00     0.090 A 
HETATM    4  C   UNL     1       8.796  28.978  56.101  1.00  0.00     0.133 A 
HETATM    5  N   UNL     1       7.784  28.195  56.682  1.00  0.00    -0.218 NA
ENDROOT
BRANCH   1   6
HETATM    6  N   UNL     1       6.157  26.631  55.829  1.00  0.00    -0.287 N 
HETATM    7  C   UNL     1       6.232  25.276  55.710  1.00  0.00     0.326 C 
HETATM    8  N   UNL     1       7.480  24.733  55.562  1.00  0.00    -0.309 N 
HETATM    9  O   UNL     1       5.178  24.647  55.779  1.00  0.00    -0.247 OA
HETATM   10  H   UNL     1       8.241  25.404  55.578  1.00  0.00     0.170 HD
HETATM   11  H   UNL     1       5.230  26.989  56.002  1.00  0.00     0.172 HD
BRANCH   8  12
HETATM   12  C   UNL     1       7.827  23.370  55.471  1.00  0.00     0.037 A 
HETATM   13  C   UNL     1       7.828  22.643  54.277  1.00  0.00     0.053 A 
HETATM   14  C   UNL     1       8.172  21.290  54.281  1.00  0.00     0.036 A 
HETATM   15  C   UNL     1       8.515  20.645  55.467  1.00  0.00     0.024 A 
HETATM   16 CL   UNL     1       8.175  20.403  52.803  1.00  0.00    -0.084 Cl
HETATM   17  C   UNL     1       8.522  21.363  56.660  1.00  0.00     0.004 A 
HETATM   18  C   UNL     1       8.184  22.720  56.661  1.00  0.00     0.029 A 
ENDBRANCH   8  12
ENDBRANCH   1   6
BRANCH   4  19
HETATM   19  C   UNL     1       9.724  29.791  56.891  1.00  0.00     0.271 C 
HETATM   20  N   UNL     1       9.157  30.357  58.007  1.00  0.00    -0.351 N 
HETATM   21  H   UNL     1       8.154  30.278  58.118  1.00  0.00     0.163 HD
HETATM   22  O   UNL     1      10.904  29.934  56.587  1.00  0.00    -0.266 OA
BRANCH  20  23
HETATM   23  C   UNL     1       9.931  31.205  58.879  1.00  0.00     0.161 C 
BRANCH  23  24
HETATM   24  C   UNL     1       9.240  31.511  60.183  1.00  0.00    -0.040 A 
HETATM   25  C   UNL     1       9.485  30.760  61.344  1.00  0.00     0.010 A 
HETATM   26  C   UNL     1       8.878  31.102  62.556  1.00  0.00     0.024 A 
HETATM   27  C   UNL     1       8.038  32.211  62.621  1.00  0.00     0.034 A 
HETATM   28 CL   UNL     1       7.302  32.640  64.116  1.00  0.00    -0.084 Cl
HETATM   29  C   UNL     1       7.800  32.981  61.487  1.00  0.00     0.024 A 
HETATM   30  C   UNL     1       8.401  32.634  60.274  1.00  0.00     0.010 A 
ENDBRANCH  23  24
ENDBRANCH  20  23
ENDBRANCH   4  19
TORSDOF 5
ENDMDL
MODEL 9
REMARK VINA RESULT:      -9.1      3.228      4.399
REMARK  5 active torsions:
REMARK  status: ('A' for Active; 'I' for Inactive)
REMARK    1  A    between atoms: C_6  and  N_7 
REMARK       I    between atoms: N_7  and  C_8 
REMARK       I    between atoms: C_8  and  N_9 
REMARK    2  A    between atoms: N_9  and  C_10 
REMARK    3  A    between atoms: C_13  and  C_14 
REMARK       I    between atoms: C_14  and  N_15 
REMARK    4  A    between atoms: N_15  and  C_16 
REMARK    5  A    between atoms: C_16  and  C_17 
ROOT
HETATM    1  C   UNL     1       4.386  28.423  54.803  1.00  0.00     0.175 A 
HETATM    2  S   UNL     1       3.626  29.126  53.449  1.00  0.00    -0.061 SA
HETATM    3  C   UNL     1       4.260  27.875  52.472  1.00  0.00     0.090 A 
HETATM    4  C   UNL     1       4.989  26.983  53.244  1.00  0.00     0.133 A 
HETATM    5  N   UNL     1       5.083  27.329  54.602  1.00  0.00    -0.218 NA
ENDROOT
BRANCH   1   6
HETATM    6  N   UNL     1       4.170  29.099  55.965  1.00  0.00    -0.287 N 
HETATM    7  C   UNL     1       5.104  29.576  56.834  1.00  0.00     0.326 C 
HETATM    8  N   UNL     1       6.417  29.449  56.468  1.00  0.00    -0.309 N 
HETATM    9  O   UNL     1       4.692  30.112  57.861  1.00  0.00    -0.247 OA
HETATM   10  H   UNL     1       6.566  29.024  55.559  1.00  0.00     0.170 HD
HETATM   11  H   UNL     1       3.213  29.269  56.236  1.00  0.00     0.172 HD
BRANCH   8  12
HETATM   12  C   UNL     1       7.557  29.903  57.161  1.00  0.00     0.037 A 
HETATM   13  C   UNL     1       7.519  30.841  58.196  1.00  0.00     0.053 A 
HETATM   14  C   UNL     1       8.702  31.245  58.819  1.00  0.00     0.036 A 
HETATM   15  C   UNL     1       9.930  30.726  58.420  1.00  0.00     0.024 A 
HETATM   16 CL   UNL     1       8.644  32.399  60.097  1.00  0.00    -0.084 Cl
HETATM   17  C   UNL     1       9.977  29.786  57.393  1.00  0.00     0.004 A 
HETATM   18  C   UNL     1       8.795  29.373  56.770  1.00  0.00     0.029 A 
ENDBRANCH   8  12
ENDBRANCH   1   6
BRANCH   4  19
HETATM   19  C   UNL     1       5.590  25.767  52.689  1.00  0.00     0.271 C 
HETATM   20  N   UNL     1       6.957  25.717  52.809  1.00  0.00    -0.351 N 
HETATM   21  H   UNL     1       7.432  26.548  53.137  1.00  0.00     0.163 HD
HETATM   22  O   UNL     1       4.922  24.870  52.182  1.00  0.00    -0.266 OA
BRANCH  20  23
HETATM   23  C   UNL     1       7.702  24.596  52.293  1.00  0.00     0.161 C 
BRANCH  23  24
HETATM   24  C   UNL     1       7.849  23.469  53.284  1.00  0.00    -0.040 A 
HETATM   25  C   UNL     1       7.861  23.700  54.669  1.00  0.00     0.010 A 
HETATM   26  C   UNL     1       7.936  22.634  55.569  1.00  0.00     0.024 A 
HETATM   27  C   UNL     1       7.979  21.326  55.092  1.00  0.00     0.034 A 
HETATM   28 CL   UNL     1       8.057  20.012  56.200  1.00  0.00    -0.084 Cl
HETATM   29  C   UNL     1       7.945  21.075  53.724  1.00  0.00     0.024 A 
HETATM   30  C   UNL     1       7.877  22.142  52.824  1.00  0.00     0.010 A 
ENDBRANCH  23  24
ENDBRANCH  20  23
ENDBRANCH   4  19
TORSDOF 5
ENDMDL
MODEL 10
REMARK VINA RESULT:      -9.0      5.758      8.845
REMARK  5 active torsions:
REMARK  status: ('A' for Active; 'I' for Inactive)
REMARK    1  A    between atoms: C_6  and  N_7 
REMARK       I    between atoms: N_7  and  C_8 
REMARK       I    between atoms: C_8  and  N_9 
REMARK    2  A    between atoms: N_9  and  C_10 
REMARK    3  A    between atoms: C_13  and  C_14 
REMARK       I    between atoms: C_14  and  N_15 
REMARK    4  A    between atoms: N_15  and  C_16 
REMARK    5  A    between atoms: C_16  and  C_17 
ROOT
HETATM    1  C   UNL     1       4.351  28.264  55.794  1.00  0.00     0.175 A 
HETATM    2  S   UNL     1       4.270  29.801  56.525  1.00  0.00    -0.061 SA
HETATM    3  C   UNL     1       4.344  30.517  54.974  1.00  0.00     0.090 A 
HETATM    4  C   UNL     1       4.397  29.539  53.994  1.00  0.00     0.133 A 
HETATM    5  N   UNL     1       4.433  28.222  54.484  1.00  0.00    -0.218 NA
ENDROOT
BRANCH   1   6
HETATM    6  N   UNL     1       4.317  27.233  56.682  1.00  0.00    -0.287 N 
HETATM    7  C   UNL     1       5.063  26.094  56.661  1.00  0.00     0.326 C 
HETATM    8  N   UNL     1       6.026  25.999  55.693  1.00  0.00    -0.309 N 
HETATM    9  O   UNL     1       4.834  25.257  57.533  1.00  0.00    -0.247 OA
HETATM   10  H   UNL     1       6.105  26.811  55.090  1.00  0.00     0.170 HD
HETATM   11  H   UNL     1       3.663  27.296  57.448  1.00  0.00     0.172 HD
BRANCH   8  12
HETATM   12  C   UNL     1       6.954  24.957  55.493  1.00  0.00     0.037 A 
HETATM   13  C   UNL     1       6.894  24.052  54.429  1.00  0.00     0.053 A 
HETATM   14  C   UNL     1       7.848  23.039  54.316  1.00  0.00     0.036 A 
HETATM   15  C   UNL     1       8.868  22.914  55.255  1.00  0.00     0.024 A 
HETATM   16 CL   UNL     1       7.768  21.932  52.998  1.00  0.00    -0.084 Cl
HETATM   17  C   UNL     1       8.940  23.814  56.315  1.00  0.00     0.004 A 
HETATM   18  C   UNL     1       7.989  24.834  56.430  1.00  0.00     0.029 A 
ENDBRANCH   8  12
ENDBRANCH   1   6
BRANCH   4  19
HETATM   19  C   UNL     1       4.393  29.854  52.563  1.00  0.00     0.271 C 
HETATM   20  N   UNL     1       5.440  29.300  51.868  1.00  0.00    -0.351 N 
HETATM   21  H   UNL     1       6.173  28.848  52.400  1.00  0.00     0.163 HD
HETATM   22  O   UNL     1       3.519  30.536  52.037  1.00  0.00    -0.266 OA
BRANCH  20  23
HETATM   23  C   UNL     1       5.593  29.534  50.453  1.00  0.00     0.161 C 
BRANCH  23  24
HETATM   24  C   UNL     1       4.866  28.526  49.600  1.00  0.00    -0.040 A 
HETATM   25  C   UNL     1       4.233  28.893  48.401  1.00  0.00     0.010 A 
HETATM   26  C   UNL     1       3.618  27.930  47.596  1.00  0.00     0.024 A 
HETATM   27  C   UNL     1       3.651  26.589  47.971  1.00  0.00     0.034 A 
HETATM   28 CL   UNL     1       2.907  25.402  46.973  1.00  0.00    -0.084 Cl
HETATM   29  C   UNL     1       4.294  26.203  49.144  1.00  0.00     0.024 A 
HETATM   30  C   UNL     1       4.902  27.167  49.953  1.00  0.00     0.010 A 
ENDBRANCH  23  24
ENDBRANCH  20  23
ENDBRANCH   4  19
TORSDOF 5
ENDMDL
