MODEL 1
REMARK VINA RESULT:      -9.9      0.000      0.000
REMARK  5 active torsions:
REMARK  status: ('A' for Active; 'I' for Inactive)
REMARK    1  A    between atoms: C_2  and  C_3 
REMARK    2  A    between atoms: C_8  and  C_9 
REMARK       I    between atoms: C_9  and  N_10 
REMARK    3  A    between atoms: N_10  and  C_11 
REMARK    4  A    between atoms: C_11  and  C_12 
REMARK    5  A    between atoms: C_19  and  C_20 
ROOT
HETATM    1  C   UNL     1       6.118  25.157  55.449  1.00  0.00     0.118 C 
HETATM    2  N   UNL     1       5.079  25.688  54.573  1.00  0.00    -0.366 N 
HETATM    3  C   UNL     1       5.356  26.680  53.697  1.00  0.00     0.123 C 
HETATM    4  N   UNL     1       6.510  27.416  53.781  1.00  0.00    -0.240 N 
HETATM    5  N   UNL     1       6.710  28.210  52.714  1.00  0.00    -0.165 NA
HETATM    6  C   UNL     1       5.574  28.077  51.991  1.00  0.00     0.148 C 
HETATM    7  C   UNL     1       4.691  27.141  52.593  1.00  0.00     0.088 C 
HETATM    8  C   UNL     1       7.560  27.173  54.753  1.00  0.00     0.221 C 
HETATM    9  C   UNL     1       7.058  26.280  55.905  1.00  0.00     0.066 C 
HETATM   10  H   UNL     1       4.339  25.023  54.350  1.00  0.00     0.161 HD
ENDROOT
BRANCH   6  11
HETATM   11  C   UNL     1       5.366  28.784  50.719  1.00  0.00     0.272 C 
HETATM   12  N   UNL     1       5.326  27.948  49.629  1.00  0.00    -0.353 N 
HETATM   13  H   UNL     1       5.611  26.987  49.801  1.00  0.00     0.162 HD
HETATM   14  O   UNL     1       5.226  30.001  50.645  1.00  0.00    -0.266 OA
BRANCH  12  15
HETATM   15  C   UNL     1       5.205  28.430  48.270  1.00  0.00     0.155 C 
BRANCH  15  16
HETATM   16  C   UNL     1       4.014  27.814  47.534  1.00  0.00     0.139 C 
HETATM   17  O   UNL     1       4.276  26.433  47.214  1.00  0.00    -0.384 OA
HETATM   18  C   UNL     1       3.032  25.721  47.249  1.00  0.00     0.168 C 
HETATM   19  C   UNL     1       1.960  26.692  47.708  1.00  0.00     0.029 C 
HETATM   20  C   UNL     1       2.754  27.785  48.378  1.00  0.00     0.035 C 
ENDBRANCH  15  16
ENDBRANCH  12  15
ENDBRANCH   6  11
BRANCH   8  21
HETATM   21  C   UNL     1       8.099  28.470  55.316  1.00  0.00     0.409 C 
HETATM   22  F   UNL     1       7.125  29.382  55.536  1.00  0.00    -0.169 F 
HETATM   23  F   UNL     1       8.686  28.234  56.523  1.00  0.00    -0.169 F 
HETATM   24  F   UNL     1       9.047  29.040  54.546  1.00  0.00    -0.169 F 
ENDBRANCH   8  21
BRANCH   1  25
HETATM   25  C   UNL     1       6.822  23.954  54.835  1.00  0.00    -0.035 A 
HETATM   26  C   UNL     1       6.996  23.792  53.450  1.00  0.00     0.011 A 
HETATM   27  C   UNL     1       7.649  22.670  52.930  1.00  0.00     0.024 A 
HETATM   28  C   UNL     1       8.133  21.691  53.790  1.00  0.00     0.034 A 
HETATM   29  C   UNL     1       7.974  21.825  55.166  1.00  0.00     0.024 A 
HETATM   30 CL   UNL     1       8.927  20.305  53.151  1.00  0.00    -0.084 Cl
HETATM   31  C   UNL     1       7.326  22.951  55.684  1.00  0.00     0.011 A 
ENDBRANCH   1  25
TORSDOF 5
ENDMDL
MODEL 2
REMARK VINA RESULT:      -9.3      4.835      8.448
REMARK  5 active torsions:
REMARK  status: ('A' for Active; 'I' for Inactive)
REMARK    1  A    between atoms: C_2  and  C_3 
REMARK    2  A    between atoms: C_8  and  C_9 
REMARK       I    between atoms: C_9  and  N_10 
REMARK    3  A    between atoms: N_10  and  C_11 
REMARK    4  A    between atoms: C_11  and  C_12 
REMARK    5  A    between atoms: C_19  and  C_20 
ROOT
HETATM    1  C   UNL     1       5.320  25.574  55.971  1.00  0.00     0.118 C 
HETATM    2  N   UNL     1       5.374  26.815  56.736  1.00  0.00    -0.366 N 
HETATM    3  C   UNL     1       6.562  27.358  57.088  1.00  0.00     0.123 C 
HETATM    4  N   UNL     1       7.733  26.649  57.003  1.00  0.00    -0.240 N 
HETATM    5  N   UNL     1       8.826  27.408  57.196  1.00  0.00    -0.165 NA
HETATM    6  C   UNL     1       8.327  28.614  57.552  1.00  0.00     0.148 C 
HETATM    7  C   UNL     1       6.906  28.611  57.518  1.00  0.00     0.088 C 
HETATM    8  C   UNL     1       7.829  25.299  56.478  1.00  0.00     0.221 C 
HETATM    9  C   UNL     1       6.444  24.627  56.410  1.00  0.00     0.066 C 
HETATM   10  H   UNL     1       4.572  27.429  56.596  1.00  0.00     0.161 HD
ENDROOT
BRANCH   6  11
HETATM   11  C   UNL     1       9.193  29.763  57.858  1.00  0.00     0.272 C 
HETATM   12  N   UNL     1       8.698  30.569  58.856  1.00  0.00    -0.353 N 
HETATM   13  H   UNL     1       7.738  30.383  59.136  1.00  0.00     0.162 HD
HETATM   14  O   UNL     1      10.259  29.968  57.287  1.00  0.00    -0.266 OA
BRANCH  12  15
HETATM   15  C   UNL     1       9.345  31.794  59.271  1.00  0.00     0.155 C 
BRANCH  15  16
HETATM   16  C   UNL     1       8.709  32.396  60.525  1.00  0.00     0.139 C 
HETATM   17  O   UNL     1       7.312  32.049  60.601  1.00  0.00    -0.384 OA
HETATM   18  C   UNL     1       6.953  31.935  61.985  1.00  0.00     0.168 C 
HETATM   19  C   UNL     1       8.216  32.127  62.804  1.00  0.00     0.029 C 
HETATM   20  C   UNL     1       9.314  31.855  61.807  1.00  0.00     0.035 C 
ENDBRANCH  15  16
ENDBRANCH  12  15
ENDBRANCH   6  11
BRANCH   8  21
HETATM   21  C   UNL     1       8.763  24.450  57.313  1.00  0.00     0.409 C 
HETATM   22  F   UNL     1       8.718  24.771  58.627  1.00  0.00    -0.169 F 
HETATM   23  F   UNL     1       8.393  23.142  57.224  1.00  0.00    -0.169 F 
HETATM   24  F   UNL     1      10.048  24.503  56.909  1.00  0.00    -0.169 F 
ENDBRANCH   8  21
BRANCH   1  25
HETATM   25  C   UNL     1       5.260  25.831  54.471  1.00  0.00    -0.035 A 
HETATM   26  C   UNL     1       5.467  24.824  53.513  1.00  0.00     0.011 A 
HETATM   27  C   UNL     1       5.402  25.106  52.144  1.00  0.00     0.024 A 
HETATM   28  C   UNL     1       5.133  26.400  51.716  1.00  0.00     0.034 A 
HETATM   29  C   UNL     1       4.926  27.417  52.643  1.00  0.00     0.024 A 
HETATM   30 CL   UNL     1       5.064  26.750  50.033  1.00  0.00    -0.084 Cl
HETATM   31  C   UNL     1       4.985  27.132  54.012  1.00  0.00     0.011 A 
ENDBRANCH   1  25
TORSDOF 5
ENDMDL
MODEL 3
REMARK VINA RESULT:      -8.8      4.472      8.277
REMARK  5 active torsions:
REMARK  status: ('A' for Active; 'I' for Inactive)
REMARK    1  A    between atoms: C_2  and  C_3 
REMARK    2  A    between atoms: C_8  and  C_9 
REMARK       I    between atoms: C_9  and  N_10 
REMARK    3  A    between atoms: N_10  and  C_11 
REMARK    4  A    between atoms: C_11  and  C_12 
REMARK    5  A    between atoms: C_19  and  C_20 
ROOT
HETATM    1  C   UNL     1       4.393  26.476  53.241  1.00  0.00     0.118 C 
HETATM    2  N   UNL     1       4.600  27.558  54.198  1.00  0.00    -0.366 N 
HETATM    3  C   UNL     1       5.813  27.755  54.764  1.00  0.00     0.123 C 
HETATM    4  N   UNL     1       6.803  26.810  54.697  1.00  0.00    -0.240 N 
HETATM    5  N   UNL     1       7.994  27.259  55.131  1.00  0.00    -0.165 NA
HETATM    6  C   UNL     1       7.719  28.491  55.619  1.00  0.00     0.148 C 
HETATM    7  C   UNL     1       6.352  28.825  55.426  1.00  0.00     0.088 C 
HETATM    8  C   UNL     1       6.682  25.556  53.976  1.00  0.00     0.221 C 
HETATM    9  C   UNL     1       5.210  25.242  53.645  1.00  0.00     0.066 C 
HETATM   10  H   UNL     1       3.978  28.356  54.069  1.00  0.00     0.161 HD
ENDROOT
BRANCH   6  11
HETATM   11  C   UNL     1       8.758  29.354  56.201  1.00  0.00     0.272 C 
HETATM   12  N   UNL     1       8.506  29.707  57.506  1.00  0.00    -0.353 N 
HETATM   13  H   UNL     1       7.575  29.483  57.850  1.00  0.00     0.162 HD
HETATM   14  O   UNL     1       9.758  29.707  55.584  1.00  0.00    -0.266 OA
BRANCH  12  15
HETATM   15  C   UNL     1       9.353  30.608  58.255  1.00  0.00     0.155 C 
BRANCH  15  16
HETATM   16  C   UNL     1       8.751  30.990  59.608  1.00  0.00     0.139 C 
HETATM   17  O   UNL     1       8.954  29.934  60.569  1.00  0.00    -0.384 OA
HETATM   18  C   UNL     1       9.099  30.530  61.865  1.00  0.00     0.168 C 
HETATM   19  C   UNL     1       9.081  32.036  61.684  1.00  0.00     0.029 C 
HETATM   20  C   UNL     1       9.416  32.207  60.224  1.00  0.00     0.035 C 
ENDBRANCH  15  16
ENDBRANCH  12  15
ENDBRANCH   6  11
BRANCH   8  21
HETATM   21  C   UNL     1       7.279  24.409  54.762  1.00  0.00     0.409 C 
HETATM   22  F   UNL     1       7.088  24.541  56.094  1.00  0.00    -0.169 F 
HETATM   23  F   UNL     1       6.674  23.244  54.400  1.00  0.00    -0.169 F 
HETATM   24  F   UNL     1       8.597  24.230  54.539  1.00  0.00    -0.169 F 
ENDBRANCH   8  21
BRANCH   1  25
HETATM   25  C   UNL     1       4.608  26.935  51.805  1.00  0.00    -0.035 A 
HETATM   26  C   UNL     1       4.812  26.043  50.738  1.00  0.00     0.011 A 
HETATM   27  C   UNL     1       5.005  26.510  49.434  1.00  0.00     0.024 A 
HETATM   28  C   UNL     1       5.004  27.876  49.181  1.00  0.00     0.034 A 
HETATM   29  C   UNL     1       4.806  28.782  50.218  1.00  0.00     0.024 A 
HETATM   30 CL   UNL     1       5.253  28.452  47.579  1.00  0.00    -0.084 Cl
HETATM   31  C   UNL     1       4.606  28.313  51.521  1.00  0.00     0.011 A 
ENDBRANCH   1  25
TORSDOF 5
ENDMDL
MODEL 4
REMARK VINA RESULT:      -8.7      2.176      3.375
REMARK  5 active torsions:
REMARK  status: ('A' for Active; 'I' for Inactive)
REMARK    1  A    between atoms: C_2  and  C_3 
REMARK    2  A    between atoms: C_8  and  C_9 
REMARK       I    between atoms: C_9  and  N_10 
REMARK    3  A    between atoms: N_10  and  C_11 
REMARK    4  A    between atoms: C_11  and  C_12 
REMARK    5  A    between atoms: C_19  and  C_20 
ROOT
HETATM    1  C   UNL     1       6.162  25.301  55.707  1.00  0.00     0.118 C 
HETATM    2  N   UNL     1       5.120  25.917  54.892  1.00  0.00    -0.366 N 
HETATM    3  C   UNL     1       5.412  26.940  54.057  1.00  0.00     0.123 C 
HETATM    4  N   UNL     1       6.598  27.623  54.139  1.00  0.00    -0.240 N 
HETATM    5  N   UNL     1       6.799  28.462  53.107  1.00  0.00    -0.165 NA
HETATM    6  C   UNL     1       5.637  28.410  52.415  1.00  0.00     0.148 C 
HETATM    7  C   UNL     1       4.734  27.482  52.998  1.00  0.00     0.088 C 
HETATM    8  C   UNL     1       7.666  27.289  55.064  1.00  0.00     0.221 C 
HETATM    9  C   UNL     1       7.161  26.361  56.187  1.00  0.00     0.066 C 
HETATM   10  H   UNL     1       4.347  25.294  54.660  1.00  0.00     0.161 HD
ENDROOT
BRANCH   6  11
HETATM   11  C   UNL     1       5.421  29.189  51.187  1.00  0.00     0.272 C 
HETATM   12  N   UNL     1       5.046  30.490  51.424  1.00  0.00    -0.353 N 
HETATM   13  H   UNL     1       4.799  30.708  52.386  1.00  0.00     0.162 HD
HETATM   14  O   UNL     1       5.577  28.723  50.063  1.00  0.00    -0.266 OA
BRANCH  12  15
HETATM   15  C   UNL     1       4.709  31.418  50.366  1.00  0.00     0.155 C 
BRANCH  15  16
HETATM   16  C   UNL     1       5.874  32.338  50.001  1.00  0.00     0.139 C 
HETATM   17  O   UNL     1       6.116  32.309  48.580  1.00  0.00    -0.384 OA
HETATM   18  C   UNL     1       6.597  33.600  48.180  1.00  0.00     0.168 C 
HETATM   19  C   UNL     1       6.559  34.502  49.400  1.00  0.00     0.029 C 
HETATM   20  C   UNL     1       5.592  33.795  50.317  1.00  0.00     0.035 C 
ENDBRANCH  15  16
ENDBRANCH  12  15
ENDBRANCH   6  11
BRANCH   8  21
HETATM   21  C   UNL     1       8.275  28.533  55.673  1.00  0.00     0.409 C 
HETATM   22  F   UNL     1       7.344  29.460  55.997  1.00  0.00    -0.169 F 
HETATM   23  F   UNL     1       8.915  28.208  56.831  1.00  0.00    -0.169 F 
HETATM   24  F   UNL     1       9.201  29.121  54.888  1.00  0.00    -0.169 F 
ENDBRANCH   8  21
BRANCH   1  25
HETATM   25  C   UNL     1       6.796  24.103  55.012  1.00  0.00    -0.035 A 
HETATM   26  C   UNL     1       7.357  23.020  55.711  1.00  0.00     0.011 A 
HETATM   27  C   UNL     1       7.928  21.940  55.031  1.00  0.00     0.024 A 
HETATM   28  C   UNL     1       7.952  21.931  53.642  1.00  0.00     0.034 A 
HETATM   29  C   UNL     1       7.405  22.990  52.924  1.00  0.00     0.024 A 
HETATM   30 CL   UNL     1       8.665  20.608  52.805  1.00  0.00    -0.084 Cl
HETATM   31  C   UNL     1       6.827  24.067  53.606  1.00  0.00     0.011 A 
ENDBRANCH   1  25
TORSDOF 5
ENDMDL
MODEL 5
REMARK VINA RESULT:      -8.6      4.475      7.472
REMARK  5 active torsions:
REMARK  status: ('A' for Active; 'I' for Inactive)
REMARK    1  A    between atoms: C_2  and  C_3 
REMARK    2  A    between atoms: C_8  and  C_9 
REMARK       I    between atoms: C_9  and  N_10 
REMARK    3  A    between atoms: N_10  and  C_11 
REMARK    4  A    between atoms: C_11  and  C_12 
REMARK    5  A    between atoms: C_19  and  C_20 
ROOT
HETATM    1  C   UNL     1       4.759  28.961  57.119  1.00  0.00     0.118 C 
HETATM    2  N   UNL     1       4.994  27.529  56.970  1.00  0.00    -0.366 N 
HETATM    3  C   UNL     1       5.468  27.025  55.808  1.00  0.00     0.123 C 
HETATM    4  N   UNL     1       5.478  27.762  54.652  1.00  0.00    -0.240 N 
HETATM    5  N   UNL     1       6.168  27.177  53.657  1.00  0.00    -0.165 NA
HETATM    6  C   UNL     1       6.493  25.963  54.156  1.00  0.00     0.148 C 
HETATM    7  C   UNL     1       6.047  25.824  55.498  1.00  0.00     0.088 C 
HETATM    8  C   UNL     1       5.053  29.148  54.568  1.00  0.00     0.221 C 
HETATM    9  C   UNL     1       4.231  29.554  55.807  1.00  0.00     0.066 C 
HETATM   10  H   UNL     1       5.209  27.047  57.842  1.00  0.00     0.161 HD
ENDROOT
BRANCH   6  11
HETATM   11  C   UNL     1       7.267  24.979  53.384  1.00  0.00     0.272 C 
HETATM   12  N   UNL     1       7.091  23.685  53.816  1.00  0.00    -0.353 N 
HETATM   13  H   UNL     1       6.600  23.580  54.700  1.00  0.00     0.162 HD
HETATM   14  O   UNL     1       7.986  25.286  52.438  1.00  0.00    -0.266 OA
BRANCH  12  15
HETATM   15  C   UNL     1       7.809  22.563  53.253  1.00  0.00     0.155 C 
BRANCH  15  16
HETATM   16  C   UNL     1       8.616  21.797  54.302  1.00  0.00     0.139 C 
HETATM   17  O   UNL     1       8.333  22.299  55.624  1.00  0.00    -0.384 OA
HETATM   18  C   UNL     1       8.443  21.209  56.550  1.00  0.00     0.168 C 
HETATM   19  C   UNL     1       8.713  19.950  55.747  1.00  0.00     0.029 C 
HETATM   20  C   UNL     1       8.255  20.325  54.360  1.00  0.00     0.035 C 
ENDBRANCH  15  16
ENDBRANCH  12  15
ENDBRANCH   6  11
BRANCH   8  21
HETATM   21  C   UNL     1       4.240  29.399  53.317  1.00  0.00     0.409 C 
HETATM   22  F   UNL     1       3.356  28.405  53.067  1.00  0.00    -0.169 F 
HETATM   23  F   UNL     1       3.507  30.537  53.470  1.00  0.00    -0.169 F 
HETATM   24  F   UNL     1       4.991  29.584  52.213  1.00  0.00    -0.169 F 
ENDBRANCH   8  21
BRANCH   1  25
HETATM   25  C   UNL     1       5.970  29.681  57.697  1.00  0.00    -0.035 A 
HETATM   26  C   UNL     1       7.239  29.086  57.800  1.00  0.00     0.011 A 
HETATM   27  C   UNL     1       8.323  29.787  58.338  1.00  0.00     0.024 A 
HETATM   28  C   UNL     1       8.152  31.091  58.785  1.00  0.00     0.034 A 
HETATM   29  C   UNL     1       6.906  31.705  58.696  1.00  0.00     0.024 A 
HETATM   30 CL   UNL     1       9.482  31.950  59.456  1.00  0.00    -0.084 Cl
HETATM   31  C   UNL     1       5.823  31.005  58.152  1.00  0.00     0.011 A 
ENDBRANCH   1  25
TORSDOF 5
ENDMDL
MODEL 6
REMARK VINA RESULT:      -8.6      2.012      2.536
REMARK  5 active torsions:
REMARK  status: ('A' for Active; 'I' for Inactive)
REMARK    1  A    between atoms: C_2  and  C_3 
REMARK    2  A    between atoms: C_8  and  C_9 
REMARK       I    between atoms: C_9  and  N_10 
REMARK    3  A    between atoms: N_10  and  C_11 
REMARK    4  A    between atoms: C_11  and  C_12 
REMARK    5  A    between atoms: C_19  and  C_20 
ROOT
HETATM    1  C   UNL     1       7.124  25.538  57.210  1.00  0.00     0.118 C 
HETATM    2  N   UNL     1       5.781  26.098  57.107  1.00  0.00    -0.366 N 
HETATM    3  C   UNL     1       5.550  27.207  56.368  1.00  0.00     0.123 C 
HETATM    4  N   UNL     1       6.573  28.007  55.928  1.00  0.00    -0.240 N 
HETATM    5  N   UNL     1       6.174  28.938  55.044  1.00  0.00    -0.165 NA
HETATM    6  C   UNL     1       4.827  28.813  55.025  1.00  0.00     0.148 C 
HETATM    7  C   UNL     1       4.399  27.751  55.866  1.00  0.00     0.088 C 
HETATM    8  C   UNL     1       7.979  27.721  56.147  1.00  0.00     0.221 C 
HETATM    9  C   UNL     1       8.168  26.661  57.249  1.00  0.00     0.066 C 
HETATM   10  H   UNL     1       5.033  25.414  57.220  1.00  0.00     0.161 HD
ENDROOT
BRANCH   6  11
HETATM   11  C   UNL     1       3.973  29.655  54.174  1.00  0.00     0.272 C 
HETATM   12  N   UNL     1       3.794  29.148  52.909  1.00  0.00    -0.353 N 
HETATM   13  H   UNL     1       4.394  28.366  52.659  1.00  0.00     0.162 HD
HETATM   14  O   UNL     1       3.460  30.699  54.565  1.00  0.00    -0.266 OA
BRANCH  12  15
HETATM   15  C   UNL     1       3.052  29.843  51.880  1.00  0.00     0.155 C 
BRANCH  15  16
HETATM   16  C   UNL     1       3.382  29.336  50.475  1.00  0.00     0.139 C 
HETATM   17  O   UNL     1       4.276  28.207  50.542  1.00  0.00    -0.384 OA
HETATM   18  C   UNL     1       3.985  27.338  49.439  1.00  0.00     0.168 C 
HETATM   19  C   UNL     1       2.785  27.911  48.708  1.00  0.00     0.029 C 
HETATM   20  C   UNL     1       2.161  28.820  49.737  1.00  0.00     0.035 C 
ENDBRANCH  15  16
ENDBRANCH  12  15
ENDBRANCH   6  11
BRANCH   8  21
HETATM   21  C   UNL     1       8.745  28.974  56.514  1.00  0.00     0.409 C 
HETATM   22  F   UNL     1       8.006  29.833  57.253  1.00  0.00    -0.169 F 
HETATM   23  F   UNL     1       9.825  28.643  57.273  1.00  0.00    -0.169 F 
HETATM   24  F   UNL     1       9.229  29.643  55.447  1.00  0.00    -0.169 F 
ENDBRANCH   8  21
BRANCH   1  25
HETATM   25  C   UNL     1       7.381  24.473  56.153  1.00  0.00    -0.035 A 
HETATM   26  C   UNL     1       6.716  24.444  54.916  1.00  0.00     0.011 A 
HETATM   27  C   UNL     1       6.985  23.445  53.974  1.00  0.00     0.024 A 
HETATM   28  C   UNL     1       7.919  22.457  54.261  1.00  0.00     0.034 A 
HETATM   29  C   UNL     1       8.591  22.460  55.479  1.00  0.00     0.024 A 
HETATM   30 CL   UNL     1       8.242  21.222  53.108  1.00  0.00    -0.084 Cl
HETATM   31  C   UNL     1       8.327  23.464  56.417  1.00  0.00     0.011 A 
ENDBRANCH   1  25
TORSDOF 5
ENDMDL
MODEL 7
REMARK VINA RESULT:      -8.6      1.612      2.280
REMARK  5 active torsions:
REMARK  status: ('A' for Active; 'I' for Inactive)
REMARK    1  A    between atoms: C_2  and  C_3 
REMARK    2  A    between atoms: C_8  and  C_9 
REMARK       I    between atoms: C_9  and  N_10 
REMARK    3  A    between atoms: N_10  and  C_11 
REMARK    4  A    between atoms: C_11  and  C_12 
REMARK    5  A    between atoms: C_19  and  C_20 
ROOT
HETATM    1  C   UNL     1       6.113  25.331  55.663  1.00  0.00     0.118 C 
HETATM    2  N   UNL     1       5.054  25.916  54.849  1.00  0.00    -0.366 N 
HETATM    3  C   UNL     1       5.323  26.919  53.982  1.00  0.00     0.123 C 
HETATM    4  N   UNL     1       6.504  27.614  54.027  1.00  0.00    -0.240 N 
HETATM    5  N   UNL     1       6.680  28.426  52.969  1.00  0.00    -0.165 NA
HETATM    6  C   UNL     1       5.508  28.346  52.298  1.00  0.00     0.148 C 
HETATM    7  C   UNL     1       4.623  27.427  52.921  1.00  0.00     0.088 C 
HETATM    8  C   UNL     1       7.589  27.313  54.942  1.00  0.00     0.221 C 
HETATM    9  C   UNL     1       7.111  26.411  56.097  1.00  0.00     0.066 C 
HETATM   10  H   UNL     1       4.282  25.281  54.647  1.00  0.00     0.161 HD
ENDROOT
BRANCH   6  11
HETATM   11  C   UNL     1       5.265  29.090  51.053  1.00  0.00     0.272 C 
HETATM   12  N   UNL     1       4.053  28.801  50.473  1.00  0.00    -0.353 N 
HETATM   13  H   UNL     1       3.557  28.004  50.863  1.00  0.00     0.162 HD
HETATM   14  O   UNL     1       6.063  29.900  50.591  1.00  0.00    -0.266 OA
BRANCH  12  15
HETATM   15  C   UNL     1       3.634  29.359  49.205  1.00  0.00     0.155 C 
BRANCH  15  16
HETATM   16  C   UNL     1       2.487  30.359  49.356  1.00  0.00     0.139 C 
HETATM   17  O   UNL     1       2.800  31.594  48.680  1.00  0.00    -0.384 OA
HETATM   18  C   UNL     1       1.577  32.159  48.189  1.00  0.00     0.168 C 
HETATM   19  C   UNL     1       0.463  31.175  48.492  1.00  0.00     0.029 C 
HETATM   20  C   UNL     1       1.202  29.878  48.709  1.00  0.00     0.035 C 
ENDBRANCH  15  16
ENDBRANCH  12  15
ENDBRANCH   6  11
BRANCH   8  21
HETATM   21  C   UNL     1       8.199  28.578  55.508  1.00  0.00     0.409 C 
HETATM   22  F   UNL     1       7.268  29.521  55.783  1.00  0.00    -0.169 F 
HETATM   23  F   UNL     1       8.823  28.297  56.685  1.00  0.00    -0.169 F 
HETATM   24  F   UNL     1       9.136  29.129  54.710  1.00  0.00    -0.169 F 
ENDBRANCH   8  21
BRANCH   1  25
HETATM   25  C   UNL     1       6.746  24.120  54.990  1.00  0.00    -0.035 A 
HETATM   26  C   UNL     1       7.275  23.033  55.708  1.00  0.00     0.011 A 
HETATM   27  C   UNL     1       7.847  21.941  55.048  1.00  0.00     0.024 A 
HETATM   28  C   UNL     1       7.902  21.923  53.659  1.00  0.00     0.034 A 
HETATM   29  C   UNL     1       7.388  22.986  52.923  1.00  0.00     0.024 A 
HETATM   30 CL   UNL     1       8.616  20.585  52.847  1.00  0.00    -0.084 Cl
HETATM   31  C   UNL     1       6.810  24.075  53.585  1.00  0.00     0.011 A 
ENDBRANCH   1  25
TORSDOF 5
ENDMDL
MODEL 8
REMARK VINA RESULT:      -8.2      4.793      8.538
REMARK  5 active torsions:
REMARK  status: ('A' for Active; 'I' for Inactive)
REMARK    1  A    between atoms: C_2  and  C_3 
REMARK    2  A    between atoms: C_8  and  C_9 
REMARK       I    between atoms: C_9  and  N_10 
REMARK    3  A    between atoms: N_10  and  C_11 
REMARK    4  A    between atoms: C_11  and  C_12 
REMARK    5  A    between atoms: C_19  and  C_20 
ROOT
HETATM    1  C   UNL     1       3.195  29.339  50.242  1.00  0.00     0.118 C 
HETATM    2  N   UNL     1       3.649  28.774  51.507  1.00  0.00    -0.366 N 
HETATM    3  C   UNL     1       4.445  27.680  51.529  1.00  0.00     0.123 C 
HETATM    4  N   UNL     1       4.625  26.897  50.418  1.00  0.00    -0.240 N 
HETATM    5  N   UNL     1       5.601  25.983  50.567  1.00  0.00    -0.165 NA
HETATM    6  C   UNL     1       5.961  26.100  51.866  1.00  0.00     0.148 C 
HETATM    7  C   UNL     1       5.236  27.141  52.507  1.00  0.00     0.088 C 
HETATM    8  C   UNL     1       4.048  27.186  49.118  1.00  0.00     0.221 C 
HETATM    9  C   UNL     1       2.912  28.222  49.229  1.00  0.00     0.066 C 
HETATM   10  H   UNL     1       3.718  29.450  52.268  1.00  0.00     0.161 HD
ENDROOT
BRANCH   6  11
HETATM   11  C   UNL     1       7.019  25.273  52.464  1.00  0.00     0.272 C 
HETATM   12  N   UNL     1       6.829  25.028  53.804  1.00  0.00    -0.353 N 
HETATM   13  H   UNL     1       6.097  25.574  54.251  1.00  0.00     0.162 HD
HETATM   14  O   UNL     1       7.968  24.833  51.822  1.00  0.00    -0.266 OA
BRANCH  12  15
HETATM   15  C   UNL     1       7.781  24.299  54.614  1.00  0.00     0.155 C 
BRANCH  15  16
HETATM   16  C   UNL     1       7.355  22.851  54.859  1.00  0.00     0.139 C 
HETATM   17  O   UNL     1       7.655  22.034  53.709  1.00  0.00    -0.384 OA
HETATM   18  C   UNL     1       7.967  20.712  54.170  1.00  0.00     0.168 C 
HETATM   19  C   UNL     1       7.953  20.738  55.686  1.00  0.00     0.029 C 
HETATM   20  C   UNL     1       8.110  22.203  56.004  1.00  0.00     0.035 C 
ENDBRANCH  15  16
ENDBRANCH  12  15
ENDBRANCH   6  11
BRANCH   8  21
HETATM   21  C   UNL     1       3.523  25.929  48.457  1.00  0.00     0.409 C 
HETATM   22  F   UNL     1       2.270  26.086  47.972  1.00  0.00    -0.169 F 
HETATM   23  F   UNL     1       4.311  25.609  47.393  1.00  0.00    -0.169 F 
HETATM   24  F   UNL     1       3.532  24.850  49.266  1.00  0.00    -0.169 F 
ENDBRANCH   8  21
BRANCH   1  25
HETATM   25  C   UNL     1       4.128  30.430  49.735  1.00  0.00    -0.035 A 
HETATM   26  C   UNL     1       5.008  31.136  50.574  1.00  0.00     0.011 A 
HETATM   27  C   UNL     1       5.849  32.131  50.064  1.00  0.00     0.024 A 
HETATM   28  C   UNL     1       5.817  32.437  48.709  1.00  0.00     0.034 A 
HETATM   29  C   UNL     1       4.955  31.755  47.856  1.00  0.00     0.024 A 
HETATM   30 CL   UNL     1       6.843  33.668  48.084  1.00  0.00    -0.084 Cl
HETATM   31  C   UNL     1       4.120  30.755  48.366  1.00  0.00     0.011 A 
ENDBRANCH   1  25
TORSDOF 5
ENDMDL
MODEL 9
REMARK VINA RESULT:      -8.2     10.674     13.320
REMARK  5 active torsions:
REMARK  status: ('A' for Active; 'I' for Inactive)
REMARK    1  A    between atoms: C_2  and  C_3 
REMARK    2  A    between atoms: C_8  and  C_9 
REMARK       I    between atoms: C_9  and  N_10 
REMARK    3  A    between atoms: N_10  and  C_11 
REMARK    4  A    between atoms: C_11  and  C_12 
REMARK    5  A    between atoms: C_19  and  C_20 
ROOT
HETATM    1  C   UNL     1       4.049  34.119  64.937  1.00  0.00     0.118 C 
HETATM    2  N   UNL     1       4.371  32.949  64.127  1.00  0.00    -0.366 N 
HETATM    3  C   UNL     1       5.226  33.046  63.084  1.00  0.00     0.123 C 
HETATM    4  N   UNL     1       5.600  34.259  62.568  1.00  0.00    -0.240 N 
HETATM    5  N   UNL     1       6.605  34.169  61.679  1.00  0.00    -0.165 NA
HETATM    6  C   UNL     1       6.785  32.838  61.524  1.00  0.00     0.148 C 
HETATM    7  C   UNL     1       5.917  32.101  62.374  1.00  0.00     0.088 C 
HETATM    8  C   UNL     1       5.180  35.538  63.111  1.00  0.00     0.221 C 
HETATM    9  C   UNL     1       3.974  35.373  64.057  1.00  0.00     0.066 C 
HETATM   10  H   UNL     1       4.295  32.062  64.625  1.00  0.00     0.161 HD
ENDROOT
BRANCH   6  11
HETATM   11  C   UNL     1       7.808  32.283  60.625  1.00  0.00     0.272 C 
HETATM   12  N   UNL     1       7.652  30.938  60.384  1.00  0.00    -0.353 N 
HETATM   13  H   UNL     1       6.976  30.461  60.975  1.00  0.00     0.162 HD
HETATM   14  O   UNL     1       8.700  32.962  60.128  1.00  0.00    -0.266 OA
BRANCH  12  15
HETATM   15  C   UNL     1       8.583  30.168  59.589  1.00  0.00     0.155 C 
BRANCH  15  16
HETATM   16  C   UNL     1       7.904  29.450  58.422  1.00  0.00     0.139 C 
HETATM   17  O   UNL     1       6.746  30.187  57.980  1.00  0.00    -0.384 OA
HETATM   18  C   UNL     1       6.599  29.983  56.567  1.00  0.00     0.168 C 
HETATM   19  C   UNL     1       7.780  29.157  56.097  1.00  0.00     0.029 C 
HETATM   20  C   UNL     1       8.793  29.351  57.197  1.00  0.00     0.035 C 
ENDBRANCH  15  16
ENDBRANCH  12  15
ENDBRANCH   6  11
BRANCH   8  21
HETATM   21  C   UNL     1       4.829  36.515  62.010  1.00  0.00     0.409 C 
HETATM   22  F   UNL     1       5.897  37.237  61.600  1.00  0.00    -0.169 F 
HETATM   23  F   UNL     1       4.382  35.833  60.920  1.00  0.00    -0.169 F 
HETATM   24  F   UNL     1       3.842  37.372  62.344  1.00  0.00    -0.169 F 
ENDBRANCH   8  21
BRANCH   1  25
HETATM   25  C   UNL     1       4.968  34.248  66.145  1.00  0.00    -0.035 A 
HETATM   26  C   UNL     1       4.501  34.556  67.434  1.00  0.00     0.011 A 
HETATM   27  C   UNL     1       5.382  34.664  68.515  1.00  0.00     0.024 A 
HETATM   28  C   UNL     1       6.744  34.470  68.319  1.00  0.00     0.034 A 
HETATM   29  C   UNL     1       7.235  34.166  67.053  1.00  0.00     0.024 A 
HETATM   30 CL   UNL     1       7.831  34.614  69.645  1.00  0.00    -0.084 Cl
HETATM   31  C   UNL     1       6.351  34.051  65.974  1.00  0.00     0.011 A 
ENDBRANCH   1  25
TORSDOF 5
ENDMDL
MODEL 10
REMARK VINA RESULT:      -8.1     10.732     13.815
REMARK  5 active torsions:
REMARK  status: ('A' for Active; 'I' for Inactive)
REMARK    1  A    between atoms: C_2  and  C_3 
REMARK    2  A    between atoms: C_8  and  C_9 
REMARK       I    between atoms: C_9  and  N_10 
REMARK    3  A    between atoms: N_10  and  C_11 
REMARK    4  A    between atoms: C_11  and  C_12 
REMARK    5  A    between atoms: C_19  and  C_20 
ROOT
HETATM    1  C   UNL     1       5.055  36.067  64.510  1.00  0.00     0.118 C 
HETATM    2  N   UNL     1       6.088  35.092  64.843  1.00  0.00    -0.366 N 
HETATM    3  C   UNL     1       6.341  34.048  64.022  1.00  0.00     0.123 C 
HETATM    4  N   UNL     1       5.479  33.695  63.016  1.00  0.00    -0.240 N 
HETATM    5  N   UNL     1       5.990  32.773  62.180  1.00  0.00    -0.165 NA
HETATM    6  C   UNL     1       7.164  32.427  62.755  1.00  0.00     0.148 C 
HETATM    7  C   UNL     1       7.405  33.192  63.928  1.00  0.00     0.088 C 
HETATM    8  C   UNL     1       4.267  34.425  62.691  1.00  0.00     0.221 C 
HETATM    9  C   UNL     1       3.864  35.375  63.836  1.00  0.00     0.066 C 
HETATM   10  H   UNL     1       6.843  35.462  65.420  1.00  0.00     0.161 HD
ENDROOT
BRANCH   6  11
HETATM   11  C   UNL     1       8.065  31.429  62.160  1.00  0.00     0.272 C 
HETATM   12  N   UNL     1       8.332  31.658  60.831  1.00  0.00    -0.353 N 
HETATM   13  H   UNL     1       7.757  32.366  60.382  1.00  0.00     0.162 HD
HETATM   14  O   UNL     1       8.541  30.494  62.796  1.00  0.00    -0.266 OA
BRANCH  12  15
HETATM   15  C   UNL     1       9.134  30.764  60.024  1.00  0.00     0.155 C 
BRANCH  15  16
HETATM   16  C   UNL     1       8.471  30.427  58.688  1.00  0.00     0.139 C 
HETATM   17  O   UNL     1       8.243  29.008  58.579  1.00  0.00    -0.384 OA
HETATM   18  C   UNL     1       7.055  28.803  57.802  1.00  0.00     0.168 C 
HETATM   19  C   UNL     1       6.464  30.167  57.497  1.00  0.00     0.029 C 
HETATM   20  C   UNL     1       7.097  31.053  58.541  1.00  0.00     0.035 C 
ENDBRANCH  15  16
ENDBRANCH  12  15
ENDBRANCH   6  11
BRANCH   8  21
HETATM   21  C   UNL     1       3.122  33.484  62.388  1.00  0.00     0.409 C 
HETATM   22  F   UNL     1       2.066  33.673  63.212  1.00  0.00    -0.169 F 
HETATM   23  F   UNL     1       2.669  33.707  61.123  1.00  0.00    -0.169 F 
HETATM   24  F   UNL     1       3.467  32.181  62.436  1.00  0.00    -0.169 F 
ENDBRANCH   8  21
BRANCH   1  25
HETATM   25  C   UNL     1       5.618  37.253  63.737  1.00  0.00    -0.035 A 
HETATM   26  C   UNL     1       5.946  37.191  62.372  1.00  0.00     0.011 A 
HETATM   27  C   UNL     1       6.460  38.306  61.703  1.00  0.00     0.024 A 
HETATM   28  C   UNL     1       6.658  39.497  62.391  1.00  0.00     0.034 A 
HETATM   29  C   UNL     1       6.343  39.586  63.743  1.00  0.00     0.024 A 
HETATM   30 CL   UNL     1       7.301  40.866  61.571  1.00  0.00    -0.084 Cl
HETATM   31  C   UNL     1       5.822  38.472  64.410  1.00  0.00     0.011 A 
ENDBRANCH   1  25
TORSDOF 5
ENDMDL
