MODEL 1
REMARK VINA RESULT:      -9.1      0.000      0.000
REMARK  7 active torsions:
REMARK  status: ('A' for Active; 'I' for Inactive)
REMARK    1  A    between atoms: O_2  and  C_3 
REMARK    2  A    between atoms: C_4  and  C_5 
REMARK    3  A    between atoms: C_5  and  N_6 
REMARK    4  A    between atoms: C_5  and  C_12 
REMARK    5  A    between atoms: C_12  and  N_13 
REMARK       I    between atoms: N_13  and  C_14 
REMARK       I    between atoms: C_14  and  N_15 
REMARK    6  A    between atoms: N_15  and  C_16 
REMARK    7  A    between atoms: C_17  and  O_18 
ROOT
HETATM    1  N   UNL     1       7.923  26.427  57.426  1.00  0.00    -0.341 N 
HETATM    2  C   UNL     1       7.090  25.612  56.725  1.00  0.00     0.316 C 
HETATM    3  N   UNL     1       7.698  24.490  56.266  1.00  0.00    -0.332 N 
HETATM    4  O   UNL     1       5.908  25.888  56.549  1.00  0.00    -0.247 OA
HETATM    5  H   UNL     1       8.883  26.121  57.537  1.00  0.00     0.164 HD
HETATM    6  H   UNL     1       8.700  24.517  56.131  1.00  0.00     0.165 HD
ENDROOT
BRANCH   1   7
HETATM    7  C   UNL     1       7.596  27.808  57.779  1.00  0.00     0.162 C 
BRANCH   7   8
HETATM    8  C   UNL     1       7.466  28.809  56.581  1.00  0.00     0.241 C 
BRANCH   8   9
HETATM    9  C   UNL     1       6.057  29.387  56.465  1.00  0.00     0.007 A 
HETATM   10  C   UNL     1       5.307  29.227  55.280  1.00  0.00     0.076 A 
HETATM   11  C   UNL     1       4.037  29.802  55.169  1.00  0.00     0.037 A 
HETATM   12  C   UNL     1       3.482  30.508  56.236  1.00  0.00     0.003 A 
HETATM   13  C   UNL     1       4.188  30.636  57.425  1.00  0.00     0.001 A 
HETATM   14  C   UNL     1       5.460  30.077  57.541  1.00  0.00     0.012 A 
BRANCH  10  15
HETATM   15  O   UNL     1       5.905  28.505  54.279  1.00  0.00    -0.355 OA
HETATM   16  C   UNL     1       5.074  27.602  53.549  1.00  0.00     0.210 C 
ENDBRANCH  10  15
ENDBRANCH   8   9
BRANCH   8  17
HETATM   17  N   UNL     1       8.584  29.857  56.616  1.00  0.00    -0.061 N 
HETATM   18  H   UNL     1       8.157  30.704  56.189  1.00  0.00     0.280 HD
HETATM   19  C   UNL     1       9.831  29.632  55.800  1.00  0.00     0.236 C 
HETATM   20  C   UNL     1      10.930  29.480  56.829  1.00  0.00     0.029 C 
HETATM   21  C   UNL     1      10.517  30.473  57.896  1.00  0.00     0.029 C 
HETATM   22  C   UNL     1       9.020  30.257  58.009  1.00  0.00     0.236 C 
ENDBRANCH   8  17
ENDBRANCH   7   8
ENDBRANCH   1   7
BRANCH   3  23
HETATM   23  C   UNL     1       7.013  23.608  55.333  1.00  0.00     0.149 C 
HETATM   24  C   UNL     1       7.020  24.154  53.871  1.00  0.00     0.149 C 
HETATM   25  C   UNL     1       7.113  22.931  52.942  1.00  0.00     0.073 C 
HETATM   26  C   UNL     1       7.776  21.916  53.825  1.00  0.00    -0.047 A 
HETATM   27  C   UNL     1       7.715  22.289  55.173  1.00  0.00    -0.026 A 
HETATM   28  C   UNL     1       8.342  20.713  53.438  1.00  0.00     0.008 A 
HETATM   29  C   UNL     1       8.215  21.453  56.161  1.00  0.00     0.010 A 
HETATM   30  C   UNL     1       8.797  20.242  55.779  1.00  0.00     0.001 A 
HETATM   31  C   UNL     1       8.863  19.877  54.426  1.00  0.00     0.001 A 
BRANCH  24  32
HETATM   32  O   UNL     1       8.157  25.005  53.633  1.00  0.00    -0.393 OA
HETATM   33  H   UNL     1       7.809  25.849  53.301  1.00  0.00     0.210 HD
ENDBRANCH  24  32
ENDBRANCH   3  23
TORSDOF 7
ENDMDL
MODEL 2
REMARK VINA RESULT:      -9.1      1.486      4.032
REMARK  7 active torsions:
REMARK  status: ('A' for Active; 'I' for Inactive)
REMARK    1  A    between atoms: O_2  and  C_3 
REMARK    2  A    between atoms: C_4  and  C_5 
REMARK    3  A    between atoms: C_5  and  N_6 
REMARK    4  A    between atoms: C_5  and  C_12 
REMARK    5  A    between atoms: C_12  and  N_13 
REMARK       I    between atoms: N_13  and  C_14 
REMARK       I    between atoms: C_14  and  N_15 
REMARK    6  A    between atoms: N_15  and  C_16 
REMARK    7  A    between atoms: C_17  and  O_18 
ROOT
HETATM    1  N   UNL     1       6.828  27.004  56.779  1.00  0.00    -0.341 N 
HETATM    2  C   UNL     1       6.321  25.840  56.290  1.00  0.00     0.316 C 
HETATM    3  N   UNL     1       7.240  25.091  55.630  1.00  0.00    -0.332 N 
HETATM    4  O   UNL     1       5.148  25.523  56.453  1.00  0.00    -0.247 OA
HETATM    5  H   UNL     1       7.811  27.186  56.612  1.00  0.00     0.164 HD
HETATM    6  H   UNL     1       8.039  25.566  55.232  1.00  0.00     0.165 HD
ENDROOT
BRANCH   1   7
HETATM    7  C   UNL     1       6.000  28.102  57.274  1.00  0.00     0.162 C 
BRANCH   7   8
HETATM    8  C   UNL     1       6.500  29.546  56.931  1.00  0.00     0.241 C 
BRANCH   8   9
HETATM    9  C   UNL     1       8.024  29.646  56.947  1.00  0.00     0.007 A 
HETATM   10  C   UNL     1       8.709  30.016  58.124  1.00  0.00     0.076 A 
HETATM   11  C   UNL     1      10.102  30.151  58.114  1.00  0.00     0.037 A 
HETATM   12  C   UNL     1      10.831  29.888  56.954  1.00  0.00     0.003 A 
HETATM   13  C   UNL     1      10.176  29.480  55.800  1.00  0.00     0.001 A 
HETATM   14  C   UNL     1       8.787  29.355  55.797  1.00  0.00     0.012 A 
BRANCH  10  15
HETATM   15  O   UNL     1       7.932  30.239  59.232  1.00  0.00    -0.355 OA
HETATM   16  C   UNL     1       8.609  30.629  60.428  1.00  0.00     0.210 C 
ENDBRANCH  10  15
ENDBRANCH   8   9
BRANCH   8  17
HETATM   17  N   UNL     1       5.841  30.066  55.648  1.00  0.00    -0.061 N 
HETATM   18  H   UNL     1       6.640  30.337  55.039  1.00  0.00     0.280 HD
HETATM   19  C   UNL     1       4.995  31.312  55.708  1.00  0.00     0.236 C 
HETATM   20  C   UNL     1       3.600  30.836  55.369  1.00  0.00     0.029 C 
HETATM   21  C   UNL     1       3.863  29.774  54.322  1.00  0.00     0.029 C 
HETATM   22  C   UNL     1       5.056  29.022  54.883  1.00  0.00     0.236 C 
ENDBRANCH   8  17
ENDBRANCH   7   8
ENDBRANCH   1   7
BRANCH   3  23
HETATM   23  C   UNL     1       6.829  23.916  54.876  1.00  0.00     0.149 C 
HETATM   24  C   UNL     1       7.122  24.048  53.348  1.00  0.00     0.149 C 
HETATM   25  C   UNL     1       7.490  22.641  52.845  1.00  0.00     0.073 C 
HETATM   26  C   UNL     1       8.004  21.986  54.092  1.00  0.00    -0.047 A 
HETATM   27  C   UNL     1       7.629  22.696  55.238  1.00  0.00    -0.026 A 
HETATM   28  C   UNL     1       8.714  20.800  54.183  1.00  0.00     0.008 A 
HETATM   29  C   UNL     1       7.951  22.221  56.502  1.00  0.00     0.010 A 
HETATM   30  C   UNL     1       8.674  21.031  56.602  1.00  0.00     0.001 A 
HETATM   31  C   UNL     1       9.056  20.327  55.449  1.00  0.00     0.001 A 
BRANCH  24  32
HETATM   32  O   UNL     1       8.230  24.934  53.099  1.00  0.00    -0.393 OA
HETATM   33  H   UNL     1       8.329  24.993  52.135  1.00  0.00     0.210 HD
ENDBRANCH  24  32
ENDBRANCH   3  23
TORSDOF 7
ENDMDL
MODEL 3
REMARK VINA RESULT:      -9.1      2.357      8.144
REMARK  7 active torsions:
REMARK  status: ('A' for Active; 'I' for Inactive)
REMARK    1  A    between atoms: O_2  and  C_3 
REMARK    2  A    between atoms: C_4  and  C_5 
REMARK    3  A    between atoms: C_5  and  N_6 
REMARK    4  A    between atoms: C_5  and  C_12 
REMARK    5  A    between atoms: C_12  and  N_13 
REMARK       I    between atoms: N_13  and  C_14 
REMARK       I    between atoms: C_14  and  N_15 
REMARK    6  A    between atoms: N_15  and  C_16 
REMARK    7  A    between atoms: C_17  and  O_18 
ROOT
HETATM    1  N   UNL     1       7.570  26.691  57.776  1.00  0.00    -0.341 N 
HETATM    2  C   UNL     1       8.013  27.976  57.809  1.00  0.00     0.316 C 
HETATM    3  N   UNL     1       7.117  28.838  58.352  1.00  0.00    -0.332 N 
HETATM    4  O   UNL     1       9.121  28.292  57.391  1.00  0.00    -0.247 OA
HETATM    5  H   UNL     1       6.647  26.511  58.153  1.00  0.00     0.164 HD
HETATM    6  H   UNL     1       6.139  28.583  58.323  1.00  0.00     0.165 HD
ENDROOT
BRANCH   1   7
HETATM    7  C   UNL     1       8.213  25.633  56.998  1.00  0.00     0.162 C 
BRANCH   7   8
HETATM    8  C   UNL     1       7.749  25.499  55.508  1.00  0.00     0.241 C 
BRANCH   8   9
HETATM    9  C   UNL     1       7.822  24.057  55.010  1.00  0.00     0.007 A 
HETATM   10  C   UNL     1       8.060  23.777  53.647  1.00  0.00     0.076 A 
HETATM   11  C   UNL     1       8.077  22.453  53.195  1.00  0.00     0.037 A 
HETATM   12  C   UNL     1       7.895  21.397  54.087  1.00  0.00     0.003 A 
HETATM   13  C   UNL     1       7.704  21.654  55.438  1.00  0.00     0.001 A 
HETATM   14  C   UNL     1       7.674  22.970  55.896  1.00  0.00     0.012 A 
BRANCH  10  15
HETATM   15  O   UNL     1       8.251  24.862  52.830  1.00  0.00    -0.355 OA
HETATM   16  C   UNL     1       7.431  24.944  51.664  1.00  0.00     0.210 C 
ENDBRANCH  10  15
ENDBRANCH   8   9
BRANCH   8  17
HETATM   17  N   UNL     1       6.393  26.181  55.291  1.00  0.00    -0.061 N 
HETATM   18  H   UNL     1       6.130  26.537  56.232  1.00  0.00     0.280 HD
HETATM   19  C   UNL     1       5.208  25.346  54.877  1.00  0.00     0.236 C 
HETATM   20  C   UNL     1       4.866  25.843  53.489  1.00  0.00     0.029 C 
HETATM   21  C   UNL     1       5.139  27.329  53.599  1.00  0.00     0.029 C 
HETATM   22  C   UNL     1       6.441  27.385  54.376  1.00  0.00     0.236 C 
ENDBRANCH   8  17
ENDBRANCH   7   8
ENDBRANCH   1   7
BRANCH   3  23
HETATM   23  C   UNL     1       7.343  30.274  58.286  1.00  0.00     0.149 C 
HETATM   24  C   UNL     1       6.028  31.081  58.049  1.00  0.00     0.149 C 
HETATM   25  C   UNL     1       6.174  32.404  58.822  1.00  0.00     0.073 C 
HETATM   26  C   UNL     1       7.152  32.032  59.897  1.00  0.00    -0.047 A 
HETATM   27  C   UNL     1       7.818  30.838  59.596  1.00  0.00    -0.026 A 
HETATM   28  C   UNL     1       7.457  32.756  61.039  1.00  0.00     0.008 A 
HETATM   29  C   UNL     1       8.812  30.352  60.434  1.00  0.00     0.010 A 
HETATM   30  C   UNL     1       9.118  31.071  61.592  1.00  0.00     0.001 A 
HETATM   31  C   UNL     1       8.442  32.263  61.893  1.00  0.00     0.001 A 
BRANCH  24  32
HETATM   32  O   UNL     1       4.879  30.375  58.551  1.00  0.00    -0.393 OA
HETATM   33  H   UNL     1       4.409  30.988  59.139  1.00  0.00     0.210 HD
ENDBRANCH  24  32
ENDBRANCH   3  23
TORSDOF 7
ENDMDL
MODEL 4
REMARK VINA RESULT:      -9.0      4.144      9.178
REMARK  7 active torsions:
REMARK  status: ('A' for Active; 'I' for Inactive)
REMARK    1  A    between atoms: O_2  and  C_3 
REMARK    2  A    between atoms: C_4  and  C_5 
REMARK    3  A    between atoms: C_5  and  N_6 
REMARK    4  A    between atoms: C_5  and  C_12 
REMARK    5  A    between atoms: C_12  and  N_13 
REMARK       I    between atoms: N_13  and  C_14 
REMARK       I    between atoms: C_14  and  N_15 
REMARK    6  A    between atoms: N_15  and  C_16 
REMARK    7  A    between atoms: C_17  and  O_18 
ROOT
HETATM    1  N   UNL     1       7.929  29.768  59.118  1.00  0.00    -0.341 N 
HETATM    2  C   UNL     1       7.839  31.091  59.423  1.00  0.00     0.316 C 
HETATM    3  N   UNL     1       6.980  31.349  60.442  1.00  0.00    -0.332 N 
HETATM    4  O   UNL     1       8.488  31.941  58.824  1.00  0.00    -0.247 OA
HETATM    5  H   UNL     1       7.368  29.128  59.668  1.00  0.00     0.164 HD
HETATM    6  H   UNL     1       6.241  30.681  60.617  1.00  0.00     0.165 HD
ENDROOT
BRANCH   1   7
HETATM    7  C   UNL     1       8.554  29.260  57.898  1.00  0.00     0.162 C 
BRANCH   7   8
HETATM    8  C   UNL     1       7.579  28.911  56.722  1.00  0.00     0.241 C 
BRANCH   8   9
HETATM    9  C   UNL     1       7.679  27.444  56.309  1.00  0.00     0.007 A 
HETATM   10  C   UNL     1       7.406  27.049  54.981  1.00  0.00     0.076 A 
HETATM   11  C   UNL     1       7.455  25.697  54.627  1.00  0.00     0.037 A 
HETATM   12  C   UNL     1       7.806  24.729  55.567  1.00  0.00     0.003 A 
HETATM   13  C   UNL     1       8.121  25.105  56.866  1.00  0.00     0.001 A 
HETATM   14  C   UNL     1       8.063  26.449  57.233  1.00  0.00     0.012 A 
BRANCH  10  15
HETATM   15  O   UNL     1       7.088  28.055  54.104  1.00  0.00    -0.355 OA
HETATM   16  C   UNL     1       6.253  27.707  52.999  1.00  0.00     0.210 C 
ENDBRANCH  10  15
ENDBRANCH   8   9
BRANCH   8  17
HETATM   17  N   UNL     1       6.156  29.392  57.027  1.00  0.00    -0.061 N 
HETATM   18  H   UNL     1       6.214  29.776  57.992  1.00  0.00     0.280 HD
HETATM   19  C   UNL     1       5.040  28.382  57.107  1.00  0.00     0.236 C 
HETATM   20  C   UNL     1       4.133  28.731  55.947  1.00  0.00     0.029 C 
HETATM   21  C   UNL     1       4.205  30.245  55.922  1.00  0.00     0.029 C 
HETATM   22  C   UNL     1       5.679  30.525  56.145  1.00  0.00     0.236 C 
ENDBRANCH   8  17
ENDBRANCH   7   8
ENDBRANCH   1   7
BRANCH   3  23
HETATM   23  C   UNL     1       6.613  32.719  60.766  1.00  0.00     0.149 C 
HETATM   24  C   UNL     1       5.096  33.007  60.535  1.00  0.00     0.149 C 
HETATM   25  C   UNL     1       4.664  34.006  61.622  1.00  0.00     0.073 C 
HETATM   26  C   UNL     1       5.660  33.736  62.710  1.00  0.00    -0.047 A 
HETATM   27  C   UNL     1       6.762  33.017  62.232  1.00  0.00    -0.026 A 
HETATM   28  C   UNL     1       5.597  34.160  64.028  1.00  0.00     0.008 A 
HETATM   29  C   UNL     1       7.830  32.721  63.067  1.00  0.00     0.010 A 
HETATM   30  C   UNL     1       7.770  33.137  64.399  1.00  0.00     0.001 A 
HETATM   31  C   UNL     1       6.659  33.849  64.876  1.00  0.00     0.001 A 
BRANCH  24  32
HETATM   32  O   UNL     1       4.307  31.810  60.664  1.00  0.00    -0.393 OA
HETATM   33  H   UNL     1       3.962  31.800  61.572  1.00  0.00     0.210 HD
ENDBRANCH  24  32
ENDBRANCH   3  23
TORSDOF 7
ENDMDL
MODEL 5
REMARK VINA RESULT:      -9.0      3.544      5.830
REMARK  7 active torsions:
REMARK  status: ('A' for Active; 'I' for Inactive)
REMARK    1  A    between atoms: O_2  and  C_3 
REMARK    2  A    between atoms: C_4  and  C_5 
REMARK    3  A    between atoms: C_5  and  N_6 
REMARK    4  A    between atoms: C_5  and  C_12 
REMARK    5  A    between atoms: C_12  and  N_13 
REMARK       I    between atoms: N_13  and  C_14 
REMARK       I    between atoms: C_14  and  N_15 
REMARK    6  A    between atoms: N_15  and  C_16 
REMARK    7  A    between atoms: C_17  and  O_18 
ROOT
HETATM    1  N   UNL     1       5.331  25.324  51.949  1.00  0.00    -0.341 N 
HETATM    2  C   UNL     1       6.531  24.914  52.443  1.00  0.00     0.316 C 
HETATM    3  N   UNL     1       6.466  24.503  53.734  1.00  0.00    -0.332 N 
HETATM    4  O   UNL     1       7.550  24.921  51.762  1.00  0.00    -0.247 OA
HETATM    5  H   UNL     1       4.534  25.277  52.573  1.00  0.00     0.164 HD
HETATM    6  H   UNL     1       5.717  24.866  54.309  1.00  0.00     0.165 HD
ENDROOT
BRANCH   1   7
HETATM    7  C   UNL     1       5.183  26.068  50.699  1.00  0.00     0.162 C 
BRANCH   7   8
HETATM    8  C   UNL     1       5.136  27.628  50.831  1.00  0.00     0.241 C 
BRANCH   8   9
HETATM    9  C   UNL     1       4.651  28.299  49.547  1.00  0.00     0.007 A 
HETATM   10  C   UNL     1       5.090  29.596  49.203  1.00  0.00     0.076 A 
HETATM   11  C   UNL     1       4.602  30.219  48.049  1.00  0.00     0.037 A 
HETATM   12  C   UNL     1       3.707  29.557  47.210  1.00  0.00     0.003 A 
HETATM   13  C   UNL     1       3.300  28.264  47.511  1.00  0.00     0.001 A 
HETATM   14  C   UNL     1       3.772  27.639  48.665  1.00  0.00     0.012 A 
BRANCH  10  15
HETATM   15  O   UNL     1       5.985  30.181  50.062  1.00  0.00    -0.355 OA
HETATM   16  C   UNL     1       5.863  31.589  50.262  1.00  0.00     0.210 C 
ENDBRANCH  10  15
ENDBRANCH   8   9
BRANCH   8  17
HETATM   17  N   UNL     1       4.379  28.050  52.095  1.00  0.00    -0.061 N 
HETATM   18  H   UNL     1       4.065  27.154  52.520  1.00  0.00     0.280 HD
HETATM   19  C   UNL     1       3.109  28.850  51.961  1.00  0.00     0.236 C 
HETATM   20  C   UNL     1       3.439  30.188  52.585  1.00  0.00     0.029 C 
HETATM   21  C   UNL     1       4.336  29.795  53.741  1.00  0.00     0.029 C 
HETATM   22  C   UNL     1       5.238  28.737  53.135  1.00  0.00     0.236 C 
ENDBRANCH   8  17
ENDBRANCH   7   8
ENDBRANCH   1   7
BRANCH   3  23
HETATM   23  C   UNL     1       7.683  24.221  54.480  1.00  0.00     0.149 C 
HETATM   24  C   UNL     1       7.604  24.695  55.965  1.00  0.00     0.149 C 
HETATM   25  C   UNL     1       8.404  23.677  56.798  1.00  0.00     0.073 C 
HETATM   26  C   UNL     1       8.325  22.444  55.947  1.00  0.00    -0.047 A 
HETATM   27  C   UNL     1       7.926  22.747  54.639  1.00  0.00    -0.026 A 
HETATM   28  C   UNL     1       8.646  21.149  56.318  1.00  0.00     0.008 A 
HETATM   29  C   UNL     1       7.854  21.751  53.674  1.00  0.00     0.010 A 
HETATM   30  C   UNL     1       8.166  20.441  54.043  1.00  0.00     0.001 A 
HETATM   31  C   UNL     1       8.557  20.142  55.357  1.00  0.00     0.001 A 
BRANCH  24  32
HETATM   32  O   UNL     1       6.245  24.715  56.439  1.00  0.00    -0.393 OA
HETATM   33  H   UNL     1       5.910  25.613  56.285  1.00  0.00     0.210 HD
ENDBRANCH  24  32
ENDBRANCH   3  23
TORSDOF 7
ENDMDL
MODEL 6
REMARK VINA RESULT:      -8.8      4.493      6.791
REMARK  7 active torsions:
REMARK  status: ('A' for Active; 'I' for Inactive)
REMARK    1  A    between atoms: O_2  and  C_3 
REMARK    2  A    between atoms: C_4  and  C_5 
REMARK    3  A    between atoms: C_5  and  N_6 
REMARK    4  A    between atoms: C_5  and  C_12 
REMARK    5  A    between atoms: C_12  and  N_13 
REMARK       I    between atoms: N_13  and  C_14 
REMARK       I    between atoms: C_14  and  N_15 
REMARK    6  A    between atoms: N_15  and  C_16 
REMARK    7  A    between atoms: C_17  and  O_18 
ROOT
HETATM    1  N   UNL     1       3.702  27.538  52.539  1.00  0.00    -0.341 N 
HETATM    2  C   UNL     1       4.943  27.315  53.050  1.00  0.00     0.316 C 
HETATM    3  N   UNL     1       5.021  26.181  53.791  1.00  0.00    -0.332 N 
HETATM    4  O   UNL     1       5.879  28.077  52.838  1.00  0.00    -0.247 OA
HETATM    5  H   UNL     1       2.985  26.853  52.750  1.00  0.00     0.164 HD
HETATM    6  H   UNL     1       4.170  25.831  54.211  1.00  0.00     0.165 HD
ENDROOT
BRANCH   1   7
HETATM    7  C   UNL     1       3.285  28.811  51.953  1.00  0.00     0.162 C 
BRANCH   7   8
HETATM    8  C   UNL     1       3.256  28.868  50.388  1.00  0.00     0.241 C 
BRANCH   8   9
HETATM    9  C   UNL     1       4.079  30.032  49.839  1.00  0.00     0.007 A 
HETATM   10  C   UNL     1       3.751  30.625  48.600  1.00  0.00     0.076 A 
HETATM   11  C   UNL     1       4.541  31.658  48.085  1.00  0.00     0.037 A 
HETATM   12  C   UNL     1       5.636  32.138  48.803  1.00  0.00     0.003 A 
HETATM   13  C   UNL     1       5.946  31.596  50.043  1.00  0.00     0.001 A 
HETATM   14  C   UNL     1       5.172  30.557  50.559  1.00  0.00     0.012 A 
BRANCH  10  15
HETATM   15  O   UNL     1       2.650  30.118  47.959  1.00  0.00    -0.355 OA
HETATM   16  C   UNL     1       2.702  30.061  46.533  1.00  0.00     0.210 C 
ENDBRANCH  10  15
ENDBRANCH   8   9
BRANCH   8  17
HETATM   17  N   UNL     1       3.600  27.503  49.781  1.00  0.00    -0.061 N 
HETATM   18  H   UNL     1       3.497  26.835  50.572  1.00  0.00     0.280 HD
HETATM   19  C   UNL     1       4.998  27.252  49.277  1.00  0.00     0.236 C 
HETATM   20  C   UNL     1       4.831  27.064  47.785  1.00  0.00     0.029 C 
HETATM   21  C   UNL     1       3.515  26.319  47.696  1.00  0.00     0.029 C 
HETATM   22  C   UNL     1       2.641  27.039  48.706  1.00  0.00     0.236 C 
ENDBRANCH   8  17
ENDBRANCH   7   8
ENDBRANCH   1   7
BRANCH   3  23
HETATM   23  C   UNL     1       6.214  25.892  54.573  1.00  0.00     0.149 C 
HETATM   24  C   UNL     1       5.923  25.801  56.104  1.00  0.00     0.149 C 
HETATM   25  C   UNL     1       6.869  24.728  56.671  1.00  0.00     0.073 C 
HETATM   26  C   UNL     1       7.130  23.872  55.467  1.00  0.00    -0.047 A 
HETATM   27  C   UNL     1       6.769  24.526  54.283  1.00  0.00    -0.026 A 
HETATM   28  C   UNL     1       7.707  22.613  55.445  1.00  0.00     0.008 A 
HETATM   29  C   UNL     1       6.992  23.930  53.050  1.00  0.00     0.010 A 
HETATM   30  C   UNL     1       7.563  22.656  53.019  1.00  0.00     0.001 A 
HETATM   31  C   UNL     1       7.915  22.001  54.209  1.00  0.00     0.001 A 
BRANCH  24  32
HETATM   32  O   UNL     1       4.563  25.403  56.359  1.00  0.00    -0.393 OA
HETATM   33  H   UNL     1       4.414  24.585  55.858  1.00  0.00     0.210 HD
ENDBRANCH  24  32
ENDBRANCH   3  23
TORSDOF 7
ENDMDL
MODEL 7
REMARK VINA RESULT:      -8.7      4.347      6.472
REMARK  7 active torsions:
REMARK  status: ('A' for Active; 'I' for Inactive)
REMARK    1  A    between atoms: O_2  and  C_3 
REMARK    2  A    between atoms: C_4  and  C_5 
REMARK    3  A    between atoms: C_5  and  N_6 
REMARK    4  A    between atoms: C_5  and  C_12 
REMARK    5  A    between atoms: C_12  and  N_13 
REMARK       I    between atoms: N_13  and  C_14 
REMARK       I    between atoms: C_14  and  N_15 
REMARK    6  A    between atoms: N_15  and  C_16 
REMARK    7  A    between atoms: C_17  and  O_18 
ROOT
HETATM    1  N   UNL     1       4.351  27.091  52.252  1.00  0.00    -0.341 N 
HETATM    2  C   UNL     1       5.545  26.859  52.861  1.00  0.00     0.316 C 
HETATM    3  N   UNL     1       5.587  25.675  53.522  1.00  0.00    -0.332 N 
HETATM    4  O   UNL     1       6.474  27.656  52.794  1.00  0.00    -0.247 OA
HETATM    5  H   UNL     1       3.638  26.377  52.345  1.00  0.00     0.164 HD
HETATM    6  H   UNL     1       4.712  25.276  53.834  1.00  0.00     0.165 HD
ENDROOT
BRANCH   1   7
HETATM    7  C   UNL     1       3.953  28.394  51.722  1.00  0.00     0.162 C 
BRANCH   7   8
HETATM    8  C   UNL     1       4.400  28.702  50.253  1.00  0.00     0.241 C 
BRANCH   8   9
HETATM    9  C   UNL     1       3.688  27.813  49.236  1.00  0.00     0.007 A 
HETATM   10  C   UNL     1       2.352  28.073  48.862  1.00  0.00     0.076 A 
HETATM   11  C   UNL     1       1.695  27.223  47.966  1.00  0.00     0.037 A 
HETATM   12  C   UNL     1       2.359  26.133  47.406  1.00  0.00     0.003 A 
HETATM   13  C   UNL     1       3.687  25.888  47.729  1.00  0.00     0.001 A 
HETATM   14  C   UNL     1       4.347  26.723  48.630  1.00  0.00     0.012 A 
BRANCH  10  15
HETATM   15  O   UNL     1       1.766  29.173  49.435  1.00  0.00    -0.355 OA
HETATM   16  C   UNL     1       1.071  30.063  48.562  1.00  0.00     0.210 C 
ENDBRANCH  10  15
ENDBRANCH   8   9
BRANCH   8  17
HETATM   17  N   UNL     1       4.316  30.204  49.955  1.00  0.00    -0.061 N 
HETATM   18  H   UNL     1       3.318  30.362  49.706  1.00  0.00     0.280 HD
HETATM   19  C   UNL     1       5.075  30.765  48.780  1.00  0.00     0.236 C 
HETATM   20  C   UNL     1       6.105  31.683  49.402  1.00  0.00     0.029 C 
HETATM   21  C   UNL     1       5.345  32.282  50.568  1.00  0.00     0.029 C 
HETATM   22  C   UNL     1       4.603  31.092  51.146  1.00  0.00     0.236 C 
ENDBRANCH   8  17
ENDBRANCH   7   8
ENDBRANCH   1   7
BRANCH   3  23
HETATM   23  C   UNL     1       6.710  25.356  54.391  1.00  0.00     0.149 C 
HETATM   24  C   UNL     1       6.344  25.442  55.906  1.00  0.00     0.149 C 
HETATM   25  C   UNL     1       7.156  24.347  56.621  1.00  0.00     0.073 C 
HETATM   26  C   UNL     1       7.387  23.358  55.517  1.00  0.00    -0.047 A 
HETATM   27  C   UNL     1       7.145  23.923  54.260  1.00  0.00    -0.026 A 
HETATM   28  C   UNL     1       7.840  22.054  55.643  1.00  0.00     0.008 A 
HETATM   29  C   UNL     1       7.364  23.191  53.101  1.00  0.00     0.010 A 
HETATM   30  C   UNL     1       7.811  21.874  53.219  1.00  0.00     0.001 A 
HETATM   31  C   UNL     1       8.044  21.309  54.482  1.00  0.00     0.001 A 
BRANCH  24  32
HETATM   32  O   UNL     1       4.942  25.196  56.123  1.00  0.00    -0.393 OA
HETATM   33  H   UNL     1       4.882  24.526  56.823  1.00  0.00     0.210 HD
ENDBRANCH  24  32
ENDBRANCH   3  23
TORSDOF 7
ENDMDL
MODEL 8
REMARK VINA RESULT:      -8.7      3.717      6.270
REMARK  7 active torsions:
REMARK  status: ('A' for Active; 'I' for Inactive)
REMARK    1  A    between atoms: O_2  and  C_3 
REMARK    2  A    between atoms: C_4  and  C_5 
REMARK    3  A    between atoms: C_5  and  N_6 
REMARK    4  A    between atoms: C_5  and  C_12 
REMARK    5  A    between atoms: C_12  and  N_13 
REMARK       I    between atoms: N_13  and  C_14 
REMARK       I    between atoms: C_14  and  N_15 
REMARK    6  A    between atoms: N_15  and  C_16 
REMARK    7  A    between atoms: C_17  and  O_18 
ROOT
HETATM    1  N   UNL     1       5.724  25.687  51.844  1.00  0.00    -0.341 N 
HETATM    2  C   UNL     1       6.889  25.213  52.362  1.00  0.00     0.316 C 
HETATM    3  N   UNL     1       6.726  24.564  53.542  1.00  0.00    -0.332 N 
HETATM    4  O   UNL     1       7.963  25.366  51.790  1.00  0.00    -0.247 OA
HETATM    5  H   UNL     1       4.877  25.508  52.372  1.00  0.00     0.164 HD
HETATM    6  H   UNL     1       5.918  24.799  54.103  1.00  0.00     0.165 HD
ENDROOT
BRANCH   1   7
HETATM    7  C   UNL     1       5.659  26.650  50.746  1.00  0.00     0.162 C 
BRANCH   7   8
HETATM    8  C   UNL     1       4.406  27.590  50.732  1.00  0.00     0.241 C 
BRANCH   8   9
HETATM    9  C   UNL     1       4.794  29.064  50.628  1.00  0.00     0.007 A 
HETATM   10  C   UNL     1       4.312  30.004  51.564  1.00  0.00     0.076 A 
HETATM   11  C   UNL     1       4.635  31.359  51.429  1.00  0.00     0.037 A 
HETATM   12  C   UNL     1       5.464  31.790  50.395  1.00  0.00     0.003 A 
HETATM   13  C   UNL     1       5.983  30.872  49.492  1.00  0.00     0.001 A 
HETATM   14  C   UNL     1       5.656  29.522  49.610  1.00  0.00     0.012 A 
BRANCH  10  15
HETATM   15  O   UNL     1       3.519  29.508  52.567  1.00  0.00    -0.355 OA
HETATM   16  C   UNL     1       3.514  30.226  53.801  1.00  0.00     0.210 C 
ENDBRANCH  10  15
ENDBRANCH   8   9
BRANCH   8  17
HETATM   17  N   UNL     1       3.381  27.126  49.691  1.00  0.00    -0.061 N 
HETATM   18  H   UNL     1       2.790  26.438  50.200  1.00  0.00     0.280 HD
HETATM   19  C   UNL     1       3.856  26.366  48.479  1.00  0.00     0.236 C 
HETATM   20  C   UNL     1       3.545  27.282  47.316  1.00  0.00     0.029 C 
HETATM   21  C   UNL     1       2.231  27.908  47.736  1.00  0.00     0.029 C 
HETATM   22  C   UNL     1       2.449  28.215  49.206  1.00  0.00     0.236 C 
ENDBRANCH   8  17
ENDBRANCH   7   8
ENDBRANCH   1   7
BRANCH   3  23
HETATM   23  C   UNL     1       7.883  24.169  54.331  1.00  0.00     0.149 C 
HETATM   24  C   UNL     1       7.697  24.445  55.856  1.00  0.00     0.149 C 
HETATM   25  C   UNL     1       8.426  23.315  56.604  1.00  0.00     0.073 C 
HETATM   26  C   UNL     1       8.403  22.206  55.595  1.00  0.00    -0.047 A 
HETATM   27  C   UNL     1       8.105  22.682  54.313  1.00  0.00    -0.026 A 
HETATM   28  C   UNL     1       8.688  20.868  55.816  1.00  0.00     0.008 A 
HETATM   29  C   UNL     1       8.099  21.823  53.223  1.00  0.00     0.010 A 
HETATM   30  C   UNL     1       8.375  20.471  53.438  1.00  0.00     0.001 A 
HETATM   31  C   UNL     1       8.665  19.997  54.727  1.00  0.00     0.001 A 
BRANCH  24  32
HETATM   32  O   UNL     1       6.306  24.425  56.228  1.00  0.00    -0.393 OA
HETATM   33  H   UNL     1       5.951  23.571  55.932  1.00  0.00     0.210 HD
ENDBRANCH  24  32
ENDBRANCH   3  23
TORSDOF 7
ENDMDL
MODEL 9
REMARK VINA RESULT:      -8.7      2.035      8.159
REMARK  7 active torsions:
REMARK  status: ('A' for Active; 'I' for Inactive)
REMARK    1  A    between atoms: O_2  and  C_3 
REMARK    2  A    between atoms: C_4  and  C_5 
REMARK    3  A    between atoms: C_5  and  N_6 
REMARK    4  A    between atoms: C_5  and  C_12 
REMARK    5  A    between atoms: C_12  and  N_13 
REMARK       I    between atoms: N_13  and  C_14 
REMARK       I    between atoms: C_14  and  N_15 
REMARK    6  A    between atoms: N_15  and  C_16 
REMARK    7  A    between atoms: C_17  and  O_18 
ROOT
HETATM    1  N   UNL     1       6.159  25.986  56.434  1.00  0.00    -0.341 N 
HETATM    2  C   UNL     1       6.399  27.289  56.128  1.00  0.00     0.316 C 
HETATM    3  N   UNL     1       6.414  28.101  57.216  1.00  0.00    -0.332 N 
HETATM    4  O   UNL     1       6.587  27.662  54.976  1.00  0.00    -0.247 OA
HETATM    5  H   UNL     1       6.026  25.758  57.413  1.00  0.00     0.164 HD
HETATM    6  H   UNL     1       5.903  27.802  58.035  1.00  0.00     0.165 HD
ENDROOT
BRANCH   1   7
HETATM    7  C   UNL     1       5.815  24.971  55.439  1.00  0.00     0.162 C 
BRANCH   7   8
HETATM    8  C   UNL     1       6.999  24.447  54.558  1.00  0.00     0.241 C 
BRANCH   8   9
HETATM    9  C   UNL     1       7.492  23.075  55.014  1.00  0.00     0.007 A 
HETATM   10  C   UNL     1       7.979  22.883  56.326  1.00  0.00     0.076 A 
HETATM   11  C   UNL     1       8.472  21.634  56.717  1.00  0.00     0.037 A 
HETATM   12  C   UNL     1       8.457  20.557  55.831  1.00  0.00     0.003 A 
HETATM   13  C   UNL     1       7.941  20.717  54.552  1.00  0.00     0.001 A 
HETATM   14  C   UNL     1       7.458  21.962  54.149  1.00  0.00     0.012 A 
BRANCH  10  15
HETATM   15  O   UNL     1       7.945  23.980  57.150  1.00  0.00    -0.355 OA
HETATM   16  C   UNL     1       9.202  24.518  57.559  1.00  0.00     0.210 C 
ENDBRANCH  10  15
ENDBRANCH   8   9
BRANCH   8  17
HETATM   17  N   UNL     1       6.657  24.537  53.067  1.00  0.00    -0.061 N 
HETATM   18  H   UNL     1       6.920  23.606  52.684  1.00  0.00     0.280 HD
HETATM   19  C   UNL     1       7.410  25.510  52.196  1.00  0.00     0.236 C 
HETATM   20  C   UNL     1       6.362  26.508  51.756  1.00  0.00     0.029 C 
HETATM   21  C   UNL     1       5.138  25.635  51.570  1.00  0.00     0.029 C 
HETATM   22  C   UNL     1       5.182  24.715  52.775  1.00  0.00     0.236 C 
ENDBRANCH   8  17
ENDBRANCH   7   8
ENDBRANCH   1   7
BRANCH   3  23
HETATM   23  C   UNL     1       6.458  29.546  57.056  1.00  0.00     0.149 C 
HETATM   24  C   UNL     1       5.066  30.219  57.268  1.00  0.00     0.149 C 
HETATM   25  C   UNL     1       5.329  31.585  57.926  1.00  0.00     0.073 C 
HETATM   26  C   UNL     1       6.645  31.356  58.609  1.00  0.00    -0.047 A 
HETATM   27  C   UNL     1       7.287  30.213  58.117  1.00  0.00    -0.026 A 
HETATM   28  C   UNL     1       7.242  32.158  59.567  1.00  0.00     0.008 A 
HETATM   29  C   UNL     1       8.550  29.860  58.573  1.00  0.00     0.010 A 
HETATM   30  C   UNL     1       9.154  30.659  59.547  1.00  0.00     0.001 A 
HETATM   31  C   UNL     1       8.502  31.798  60.042  1.00  0.00     0.001 A 
BRANCH  24  32
HETATM   32  O   UNL     1       4.231  29.437  58.142  1.00  0.00    -0.393 OA
HETATM   33  H   UNL     1       4.177  29.921  58.982  1.00  0.00     0.210 HD
ENDBRANCH  24  32
ENDBRANCH   3  23
TORSDOF 7
ENDMDL
MODEL 10
REMARK VINA RESULT:      -8.7      4.677      8.052
REMARK  7 active torsions:
REMARK  status: ('A' for Active; 'I' for Inactive)
REMARK    1  A    between atoms: O_2  and  C_3 
REMARK    2  A    between atoms: C_4  and  C_5 
REMARK    3  A    between atoms: C_5  and  N_6 
REMARK    4  A    between atoms: C_5  and  C_12 
REMARK    5  A    between atoms: C_12  and  N_13 
REMARK       I    between atoms: N_13  and  C_14 
REMARK       I    between atoms: C_14  and  N_15 
REMARK    6  A    between atoms: N_15  and  C_16 
REMARK    7  A    between atoms: C_17  and  O_18 
ROOT
HETATM    1  N   UNL     1       4.911  26.676  51.953  1.00  0.00    -0.341 N 
HETATM    2  C   UNL     1       4.842  27.037  50.643  1.00  0.00     0.316 C 
HETATM    3  N   UNL     1       3.842  26.416  49.968  1.00  0.00    -0.332 N 
HETATM    4  O   UNL     1       5.616  27.851  50.151  1.00  0.00    -0.247 OA
HETATM    5  H   UNL     1       4.227  26.007  52.284  1.00  0.00     0.164 HD
HETATM    6  H   UNL     1       3.511  25.529  50.324  1.00  0.00     0.165 HD
ENDROOT
BRANCH   1   7
HETATM    7  C   UNL     1       6.053  26.977  52.815  1.00  0.00     0.162 C 
BRANCH   7   8
HETATM    8  C   UNL     1       6.113  26.194  54.170  1.00  0.00     0.241 C 
BRANCH   8   9
HETATM    9  C   UNL     1       6.828  24.851  54.028  1.00  0.00     0.007 A 
HETATM   10  C   UNL     1       7.042  24.026  55.153  1.00  0.00     0.076 A 
HETATM   11  C   UNL     1       7.741  22.821  55.017  1.00  0.00     0.037 A 
HETATM   12  C   UNL     1       8.200  22.405  53.768  1.00  0.00     0.003 A 
HETATM   13  C   UNL     1       7.958  23.183  52.644  1.00  0.00     0.001 A 
HETATM   14  C   UNL     1       7.274  24.392  52.771  1.00  0.00     0.012 A 
BRANCH  10  15
HETATM   15  O   UNL     1       6.546  24.488  56.345  1.00  0.00    -0.355 OA
HETATM   16  C   UNL     1       7.484  24.676  57.405  1.00  0.00     0.210 C 
ENDBRANCH  10  15
ENDBRANCH   8   9
BRANCH   8  17
HETATM   17  N   UNL     1       6.649  27.084  55.297  1.00  0.00    -0.061 N 
HETATM   18  H   UNL     1       7.041  26.415  55.991  1.00  0.00     0.280 HD
HETATM   19  C   UNL     1       5.683  27.914  56.102  1.00  0.00     0.236 C 
HETATM   20  C   UNL     1       6.054  29.345  55.776  1.00  0.00     0.029 C 
HETATM   21  C   UNL     1       7.563  29.272  55.664  1.00  0.00     0.029 C 
HETATM   22  C   UNL     1       7.791  27.989  54.886  1.00  0.00     0.236 C 
ENDBRANCH   8  17
ENDBRANCH   7   8
ENDBRANCH   1   7
BRANCH   3  23
HETATM   23  C   UNL     1       3.747  26.532  48.521  1.00  0.00     0.149 C 
HETATM   24  C   UNL     1       3.419  25.172  47.828  1.00  0.00     0.149 C 
HETATM   25  C   UNL     1       2.533  25.496  46.612  1.00  0.00     0.073 C 
HETATM   26  C   UNL     1       1.902  26.793  47.022  1.00  0.00    -0.047 A 
HETATM   27  C   UNL     1       2.586  27.383  48.091  1.00  0.00    -0.026 A 
HETATM   28  C   UNL     1       0.818  27.420  46.429  1.00  0.00     0.008 A 
HETATM   29  C   UNL     1       2.199  28.624  48.579  1.00  0.00     0.010 A 
HETATM   30  C   UNL     1       1.101  29.258  47.994  1.00  0.00     0.001 A 
HETATM   31  C   UNL     1       0.414  28.658  46.928  1.00  0.00     0.001 A 
BRANCH  24  32
HETATM   32  O   UNL     1       2.695  24.293  48.709  1.00  0.00    -0.393 OA
HETATM   33  H   UNL     1       1.862  24.073  48.260  1.00  0.00     0.210 HD
ENDBRANCH  24  32
ENDBRANCH   3  23
TORSDOF 7
ENDMDL
