MODEL 1
REMARK VINA RESULT:      -9.7      0.000      0.000
REMARK  4 active torsions:
REMARK  status: ('A' for Active; 'I' for Inactive)
REMARK    1  A    between atoms: C_5  and  C_6 
REMARK    2  A    between atoms: C_6  and  N_7 
REMARK    3  A    between atoms: N_10  and  C_12 
REMARK    4  A    between atoms: C_12  and  C_13 
ROOT
HETATM    1  N   UNL     1       7.647  28.484  56.689  1.00  0.00    -0.406 N 
HETATM    2  C   UNL     1       7.854  27.041  56.553  1.00  0.00     0.150 C 
HETATM    3  C   UNL     1       6.680  26.124  56.120  1.00  0.00     0.206 C 
HETATM    4  N   UNL     1       6.440  26.129  54.613  1.00  0.00    -0.061 N 
HETATM    5  H   UNL     1       5.678  25.452  54.485  1.00  0.00     0.280 HD
HETATM    6  C   UNL     1       5.930  27.432  54.064  1.00  0.00     0.242 C 
HETATM    7  C   UNL     1       5.565  28.426  55.162  1.00  0.00     0.029 C 
HETATM    8  C   UNL     1       6.817  29.151  55.693  1.00  0.00     0.123 C 
HETATM    9  C   UNL     1       5.351  26.476  56.796  1.00  0.00     0.035 C 
HETATM   10  C   UNL     1       4.725  27.764  56.258  1.00  0.00     0.010 C 
ENDROOT
BRANCH   4  11
HETATM   11  C   UNL     1       7.562  25.566  53.760  1.00  0.00     0.274 C 
BRANCH  11  12
HETATM   12  C   UNL     1       7.784  24.089  53.932  1.00  0.00    -0.032 A 
HETATM   13  C   UNL     1       8.019  23.553  55.214  1.00  0.00     0.022 A 
HETATM   14  C   UNL     1       8.226  22.169  55.365  1.00  0.00    -0.008 A 
HETATM   15  C   UNL     1       8.187  21.356  54.234  1.00  0.00     0.042 A 
HETATM   16  C   UNL     1       8.477  21.325  56.481  1.00  0.00     0.030 A 
HETATM   17  N   UNL     1       8.399  20.061  54.658  1.00  0.00    -0.365 N 
HETATM   18  C   UNL     1       7.954  21.857  52.951  1.00  0.00     0.031 A 
HETATM   19  H   UNL     1       8.410  19.250  54.053  1.00  0.00     0.165 HD
HETATM   20  C   UNL     1       8.579  20.035  56.015  1.00  0.00     0.089 A 
HETATM   21  C   UNL     1       7.754  23.236  52.821  1.00  0.00     0.011 A 
ENDBRANCH  11  12
ENDBRANCH   4  11
BRANCH   1  22
HETATM   22  C   UNL     1       7.407  28.969  58.061  1.00  0.00     0.157 C 
BRANCH  22  23
HETATM   23  C   UNL     1       8.354  30.049  58.516  1.00  0.00    -0.023 A 
HETATM   24  C   UNL     1       9.475  30.398  57.766  1.00  0.00     0.125 A 
HETATM   25  N   UNL     1      10.355  31.361  58.118  1.00  0.00    -0.273 NA
HETATM   26  C   UNL     1      10.095  32.039  59.256  1.00  0.00     0.116 A 
HETATM   27  C   UNL     1       8.996  31.789  60.062  1.00  0.00     0.020 A 
HETATM   28  C   UNL     1       8.116  30.780  59.684  1.00  0.00     0.011 A 
ENDBRANCH  22  23
ENDBRANCH   1  22
TORSDOF 4
ENDMDL
MODEL 2
REMARK VINA RESULT:      -9.6      1.267      8.551
REMARK  4 active torsions:
REMARK  status: ('A' for Active; 'I' for Inactive)
REMARK    1  A    between atoms: C_5  and  C_6 
REMARK    2  A    between atoms: C_6  and  N_7 
REMARK    3  A    between atoms: N_10  and  C_12 
REMARK    4  A    between atoms: C_12  and  C_13 
ROOT
HETATM    1  N   UNL     1       7.715  24.827  54.663  1.00  0.00    -0.406 N 
HETATM    2  C   UNL     1       7.247  26.173  54.325  1.00  0.00     0.150 C 
HETATM    3  C   UNL     1       6.404  26.982  55.345  1.00  0.00     0.206 C 
HETATM    4  N   UNL     1       7.251  27.657  56.420  1.00  0.00    -0.061 N 
HETATM    5  H   UNL     1       6.565  28.180  56.977  1.00  0.00     0.280 HD
HETATM    6  C   UNL     1       7.922  26.711  57.375  1.00  0.00     0.242 C 
HETATM    7  C   UNL     1       7.457  25.270  57.194  1.00  0.00     0.029 C 
HETATM    8  C   UNL     1       8.191  24.592  56.021  1.00  0.00     0.123 C 
HETATM    9  C   UNL     1       5.342  26.141  56.060  1.00  0.00     0.035 C 
HETATM   10  C   UNL     1       5.931  25.183  57.098  1.00  0.00     0.010 C 
ENDROOT
BRANCH   4  11
HETATM   11  C   UNL     1       8.207  28.731  55.935  1.00  0.00     0.274 C 
BRANCH  11  12
HETATM   12  C   UNL     1       8.649  29.689  57.005  1.00  0.00    -0.032 A 
HETATM   13  C   UNL     1       7.720  30.180  57.944  1.00  0.00     0.022 A 
HETATM   14  C   UNL     1       8.143  31.077  58.943  1.00  0.00    -0.008 A 
HETATM   15  C   UNL     1       9.484  31.457  58.982  1.00  0.00     0.042 A 
HETATM   16  C   UNL     1       7.488  31.740  60.016  1.00  0.00     0.030 A 
HETATM   17  N   UNL     1       9.632  32.315  60.051  1.00  0.00    -0.365 N 
HETATM   18  C   UNL     1      10.429  30.986  58.067  1.00  0.00     0.031 A 
HETATM   19  H   UNL     1      10.505  32.741  60.333  1.00  0.00     0.165 HD
HETATM   20  C   UNL     1       8.429  32.494  60.679  1.00  0.00     0.089 A 
HETATM   21  C   UNL     1       9.988  30.098  57.079  1.00  0.00     0.011 A 
ENDBRANCH  11  12
ENDBRANCH   4  11
BRANCH   1  22
HETATM   22  C   UNL     1       6.905  23.715  54.133  1.00  0.00     0.157 C 
BRANCH  22  23
HETATM   23  C   UNL     1       7.578  22.369  54.191  1.00  0.00    -0.023 A 
HETATM   24  C   UNL     1       7.618  21.625  55.368  1.00  0.00     0.125 A 
HETATM   25  N   UNL     1       8.199  20.410  55.481  1.00  0.00    -0.273 NA
HETATM   26  C   UNL     1       8.740  19.887  54.360  1.00  0.00     0.116 A 
HETATM   27  C   UNL     1       8.733  20.530  53.133  1.00  0.00     0.020 A 
HETATM   28  C   UNL     1       8.143  21.788  53.051  1.00  0.00     0.011 A 
ENDBRANCH  22  23
ENDBRANCH   1  22
TORSDOF 4
ENDMDL
MODEL 3
REMARK VINA RESULT:      -9.4      2.314      3.483
REMARK  4 active torsions:
REMARK  status: ('A' for Active; 'I' for Inactive)
REMARK    1  A    between atoms: C_5  and  C_6 
REMARK    2  A    between atoms: C_6  and  N_7 
REMARK    3  A    between atoms: N_10  and  C_12 
REMARK    4  A    between atoms: C_12  and  C_13 
ROOT
HETATM    1  N   UNL     1       6.137  28.985  57.460  1.00  0.00    -0.406 N 
HETATM    2  C   UNL     1       5.663  27.928  56.565  1.00  0.00     0.150 C 
HETATM    3  C   UNL     1       6.626  27.302  55.523  1.00  0.00     0.206 C 
HETATM    4  N   UNL     1       7.548  26.242  56.119  1.00  0.00    -0.061 N 
HETATM    5  H   UNL     1       8.079  25.898  55.311  1.00  0.00     0.280 HD
HETATM    6  C   UNL     1       8.568  26.772  57.087  1.00  0.00     0.242 C 
HETATM    7  C   UNL     1       8.603  28.297  57.123  1.00  0.00     0.029 C 
HETATM    8  C   UNL     1       7.479  28.857  58.016  1.00  0.00     0.123 C 
HETATM    9  C   UNL     1       7.512  28.332  54.815  1.00  0.00     0.035 C 
HETATM   10  C   UNL     1       8.621  28.888  55.711  1.00  0.00     0.010 C 
ENDROOT
BRANCH   4  11
HETATM   11  C   UNL     1       6.867  24.996  56.655  1.00  0.00     0.274 C 
BRANCH  11  12
HETATM   12  C   UNL     1       7.410  23.710  56.094  1.00  0.00    -0.032 A 
HETATM   13  C   UNL     1       7.264  23.418  54.724  1.00  0.00     0.022 A 
HETATM   14  C   UNL     1       7.775  22.212  54.207  1.00  0.00    -0.008 A 
HETATM   15  C   UNL     1       8.424  21.332  55.072  1.00  0.00     0.042 A 
HETATM   16  C   UNL     1       7.803  21.626  52.913  1.00  0.00     0.030 A 
HETATM   17  N   UNL     1       8.837  20.254  54.319  1.00  0.00    -0.365 N 
HETATM   18  C   UNL     1       8.586  21.595  56.435  1.00  0.00     0.031 A 
HETATM   19  H   UNL     1       9.350  19.460  54.680  1.00  0.00     0.165 HD
HETATM   20  C   UNL     1       8.462  20.422  53.013  1.00  0.00     0.089 A 
HETATM   21  C   UNL     1       8.068  22.797  56.929  1.00  0.00     0.011 A 
ENDBRANCH  11  12
ENDBRANCH   4  11
BRANCH   1  22
HETATM   22  C   UNL     1       5.807  30.364  57.055  1.00  0.00     0.157 C 
BRANCH  22  23
HETATM   23  C   UNL     1       5.137  31.187  58.123  1.00  0.00    -0.023 A 
HETATM   24  C   UNL     1       3.780  31.047  58.406  1.00  0.00     0.125 A 
HETATM   25  N   UNL     1       3.125  31.751  59.356  1.00  0.00    -0.273 NA
HETATM   26  C   UNL     1       3.858  32.615  60.089  1.00  0.00     0.116 A 
HETATM   27  C   UNL     1       5.217  32.813  59.907  1.00  0.00     0.020 A 
HETATM   28  C   UNL     1       5.862  32.087  58.910  1.00  0.00     0.011 A 
ENDBRANCH  22  23
ENDBRANCH   1  22
TORSDOF 4
ENDMDL
MODEL 4
REMARK VINA RESULT:      -9.3      2.258      3.137
REMARK  4 active torsions:
REMARK  status: ('A' for Active; 'I' for Inactive)
REMARK    1  A    between atoms: C_5  and  C_6 
REMARK    2  A    between atoms: C_6  and  N_7 
REMARK    3  A    between atoms: N_10  and  C_12 
REMARK    4  A    between atoms: C_12  and  C_13 
ROOT
HETATM    1  N   UNL     1       5.936  29.178  56.835  1.00  0.00    -0.406 N 
HETATM    2  C   UNL     1       5.808  28.471  55.559  1.00  0.00     0.150 C 
HETATM    3  C   UNL     1       7.059  27.845  54.889  1.00  0.00     0.206 C 
HETATM    4  N   UNL     1       7.444  26.493  55.482  1.00  0.00    -0.061 N 
HETATM    5  H   UNL     1       8.244  26.196  54.912  1.00  0.00     0.280 HD
HETATM    6  C   UNL     1       7.946  26.551  56.898  1.00  0.00     0.242 C 
HETATM    7  C   UNL     1       8.156  27.981  57.386  1.00  0.00     0.029 C 
HETATM    8  C   UNL     1       6.827  28.613  57.841  1.00  0.00     0.123 C 
HETATM    9  C   UNL     1       8.299  28.743  54.953  1.00  0.00     0.035 C 
HETATM   10  C   UNL     1       8.915  28.817  56.352  1.00  0.00     0.010 C 
ENDROOT
BRANCH   4  11
HETATM   11  C   UNL     1       6.437  25.374  55.293  1.00  0.00     0.274 C 
BRANCH  11  12
HETATM   12  C   UNL     1       7.025  24.104  54.742  1.00  0.00    -0.032 A 
HETATM   13  C   UNL     1       7.375  23.052  55.611  1.00  0.00     0.022 A 
HETATM   14  C   UNL     1       7.925  21.867  55.086  1.00  0.00    -0.008 A 
HETATM   15  C   UNL     1       8.106  21.762  53.708  1.00  0.00     0.042 A 
HETATM   16  C   UNL     1       8.371  20.646  55.663  1.00  0.00     0.030 A 
HETATM   17  N   UNL     1       8.636  20.513  53.462  1.00  0.00    -0.365 N 
HETATM   18  C   UNL     1       7.767  22.787  52.822  1.00  0.00     0.031 A 
HETATM   19  H   UNL     1       8.859  20.150  52.544  1.00  0.00     0.165 HD
HETATM   20  C   UNL     1       8.803  19.834  54.639  1.00  0.00     0.089 A 
HETATM   21  C   UNL     1       7.224  23.958  53.363  1.00  0.00     0.011 A 
ENDBRANCH  11  12
ENDBRANCH   4  11
BRANCH   1  22
HETATM   22  C   UNL     1       6.018  30.647  56.747  1.00  0.00     0.157 C 
BRANCH  22  23
HETATM   23  C   UNL     1       5.323  31.380  57.864  1.00  0.00    -0.023 A 
HETATM   24  C   UNL     1       3.948  31.273  58.060  1.00  0.00     0.125 A 
HETATM   25  N   UNL     1       3.269  31.899  59.047  1.00  0.00    -0.273 NA
HETATM   26  C   UNL     1       3.994  32.646  59.907  1.00  0.00     0.116 A 
HETATM   27  C   UNL     1       5.368  32.800  59.817  1.00  0.00     0.020 A 
HETATM   28  C   UNL     1       6.038  32.157  58.781  1.00  0.00     0.011 A 
ENDBRANCH  22  23
ENDBRANCH   1  22
TORSDOF 4
ENDMDL
MODEL 5
REMARK VINA RESULT:      -9.1      1.471      8.295
REMARK  4 active torsions:
REMARK  status: ('A' for Active; 'I' for Inactive)
REMARK    1  A    between atoms: C_5  and  C_6 
REMARK    2  A    between atoms: C_6  and  N_7 
REMARK    3  A    between atoms: N_10  and  C_12 
REMARK    4  A    between atoms: C_12  and  C_13 
ROOT
HETATM    1  N   UNL     1       6.940  24.724  54.614  1.00  0.00    -0.406 N 
HETATM    2  C   UNL     1       7.532  25.755  55.468  1.00  0.00     0.150 C 
HETATM    3  C   UNL     1       7.401  27.252  55.083  1.00  0.00     0.206 C 
HETATM    4  N   UNL     1       6.053  27.854  55.467  1.00  0.00    -0.061 N 
HETATM    5  H   UNL     1       6.139  28.840  55.194  1.00  0.00     0.280 HD
HETATM    6  C   UNL     1       4.883  27.314  54.692  1.00  0.00     0.242 C 
HETATM    7  C   UNL     1       5.312  26.414  53.538  1.00  0.00     0.029 C 
HETATM    8  C   UNL     1       5.629  24.990  54.032  1.00  0.00     0.123 C 
HETATM    9  C   UNL     1       7.613  27.518  53.589  1.00  0.00     0.035 C 
HETATM   10  C   UNL     1       6.441  27.051  52.723  1.00  0.00     0.010 C 
ENDROOT
BRANCH   4  11
HETATM   11  C   UNL     1       5.754  27.921  56.953  1.00  0.00     0.274 C 
BRANCH  11  12
HETATM   12  C   UNL     1       6.319  29.133  57.640  1.00  0.00    -0.032 A 
HETATM   13  C   UNL     1       7.615  29.093  58.192  1.00  0.00     0.022 A 
HETATM   14  C   UNL     1       8.137  30.232  58.833  1.00  0.00    -0.008 A 
HETATM   15  C   UNL     1       7.354  31.383  58.902  1.00  0.00     0.042 A 
HETATM   16  C   UNL     1       9.372  30.526  59.474  1.00  0.00     0.030 A 
HETATM   17  N   UNL     1       8.098  32.342  59.556  1.00  0.00    -0.365 N 
HETATM   18  C   UNL     1       6.067  31.454  58.363  1.00  0.00     0.031 A 
HETATM   19  H   UNL     1       7.789  33.288  59.739  1.00  0.00     0.165 HD
HETATM   20  C   UNL     1       9.318  31.830  59.909  1.00  0.00     0.089 A 
HETATM   21  C   UNL     1       5.565  30.310  57.732  1.00  0.00     0.011 A 
ENDBRANCH  11  12
ENDBRANCH   4  11
BRANCH   1  22
HETATM   22  C   UNL     1       7.864  24.058  53.679  1.00  0.00     0.157 C 
BRANCH  22  23
HETATM   23  C   UNL     1       8.178  22.625  54.023  1.00  0.00    -0.023 A 
HETATM   24  C   UNL     1       7.896  21.586  53.140  1.00  0.00     0.125 A 
HETATM   25  N   UNL     1       8.160  20.284  53.388  1.00  0.00    -0.273 NA
HETATM   26  C   UNL     1       8.767  19.998  54.560  1.00  0.00     0.116 A 
HETATM   27  C   UNL     1       9.113  20.956  55.498  1.00  0.00     0.020 A 
HETATM   28  C   UNL     1       8.813  22.287  55.223  1.00  0.00     0.011 A 
ENDBRANCH  22  23
ENDBRANCH   1  22
TORSDOF 4
ENDMDL
MODEL 6
REMARK VINA RESULT:      -9.0      2.649      3.996
REMARK  4 active torsions:
REMARK  status: ('A' for Active; 'I' for Inactive)
REMARK    1  A    between atoms: C_5  and  C_6 
REMARK    2  A    between atoms: C_6  and  N_7 
REMARK    3  A    between atoms: N_10  and  C_12 
REMARK    4  A    between atoms: C_12  and  C_13 
ROOT
HETATM    1  N   UNL     1       5.412  29.265  56.147  1.00  0.00    -0.406 N 
HETATM    2  C   UNL     1       5.758  28.604  54.887  1.00  0.00     0.150 C 
HETATM    3  C   UNL     1       7.132  27.901  54.729  1.00  0.00     0.206 C 
HETATM    4  N   UNL     1       7.168  26.508  55.350  1.00  0.00    -0.061 N 
HETATM    5  H   UNL     1       8.109  26.165  55.126  1.00  0.00     0.280 HD
HETATM    6  C   UNL     1       7.070  26.489  56.850  1.00  0.00     0.242 C 
HETATM    7  C   UNL     1       7.156  27.885  57.459  1.00  0.00     0.029 C 
HETATM    8  C   UNL     1       5.796  28.606  57.390  1.00  0.00     0.123 C 
HETATM    9  C   UNL     1       8.297  28.698  55.325  1.00  0.00     0.035 C 
HETATM   10  C   UNL     1       8.312  28.687  56.855  1.00  0.00     0.010 C 
ENDROOT
BRANCH   4  11
HETATM   11  C   UNL     1       6.252  25.475  54.720  1.00  0.00     0.274 C 
BRANCH  11  12
HETATM   12  C   UNL     1       6.907  24.146  54.467  1.00  0.00    -0.032 A 
HETATM   13  C   UNL     1       7.153  23.264  55.538  1.00  0.00     0.022 A 
HETATM   14  C   UNL     1       7.767  22.021  55.293  1.00  0.00    -0.008 A 
HETATM   15  C   UNL     1       8.114  21.689  53.984  1.00  0.00     0.042 A 
HETATM   16  C   UNL     1       8.144  20.926  56.117  1.00  0.00     0.030 A 
HETATM   17  N   UNL     1       8.673  20.430  54.019  1.00  0.00    -0.365 N 
HETATM   18  C   UNL     1       7.880  22.541  52.902  1.00  0.00     0.031 A 
HETATM   19  H   UNL     1       9.007  19.923  53.210  1.00  0.00     0.165 HD
HETATM   20  C   UNL     1       8.699  19.963  55.306  1.00  0.00     0.089 A 
HETATM   21  C   UNL     1       7.272  23.773  53.167  1.00  0.00     0.011 A 
ENDBRANCH  11  12
ENDBRANCH   4  11
BRANCH   1  22
HETATM   22  C   UNL     1       5.612  30.725  56.180  1.00  0.00     0.157 C 
BRANCH  22  23
HETATM   23  C   UNL     1       4.394  31.531  55.808  1.00  0.00    -0.023 A 
HETATM   24  C   UNL     1       3.107  31.051  56.036  1.00  0.00     0.125 A 
HETATM   25  N   UNL     1       1.977  31.729  55.732  1.00  0.00    -0.273 NA
HETATM   26  C   UNL     1       2.131  32.963  55.205  1.00  0.00     0.116 A 
HETATM   27  C   UNL     1       3.364  33.544  54.961  1.00  0.00     0.020 A 
HETATM   28  C   UNL     1       4.509  32.816  55.268  1.00  0.00     0.011 A 
ENDBRANCH  22  23
ENDBRANCH   1  22
TORSDOF 4
ENDMDL
MODEL 7
REMARK VINA RESULT:      -8.8      1.761      8.559
REMARK  4 active torsions:
REMARK  status: ('A' for Active; 'I' for Inactive)
REMARK    1  A    between atoms: C_5  and  C_6 
REMARK    2  A    between atoms: C_6  and  N_7 
REMARK    3  A    between atoms: N_10  and  C_12 
REMARK    4  A    between atoms: C_12  and  C_13 
ROOT
HETATM    1  N   UNL     1       6.435  26.059  55.722  1.00  0.00    -0.406 N 
HETATM    2  C   UNL     1       7.405  27.113  55.420  1.00  0.00     0.150 C 
HETATM    3  C   UNL     1       6.927  28.576  55.225  1.00  0.00     0.206 C 
HETATM    4  N   UNL     1       6.693  29.311  56.542  1.00  0.00    -0.061 N 
HETATM    5  H   UNL     1       6.432  30.259  56.249  1.00  0.00     0.280 HD
HETATM    6  C   UNL     1       5.535  28.795  57.350  1.00  0.00     0.242 C 
HETATM    7  C   UNL     1       4.704  27.767  56.589  1.00  0.00     0.029 C 
HETATM    8  C   UNL     1       5.355  26.372  56.650  1.00  0.00     0.123 C 
HETATM    9  C   UNL     1       5.640  28.693  54.402  1.00  0.00     0.035 C 
HETATM   10  C   UNL     1       4.394  28.242  55.167  1.00  0.00     0.010 C 
ENDROOT
BRANCH   4  11
HETATM   11  C   UNL     1       7.921  29.531  57.406  1.00  0.00     0.274 C 
BRANCH  11  12
HETATM   12  C   UNL     1       7.693  30.449  58.575  1.00  0.00    -0.032 A 
HETATM   13  C   UNL     1       8.428  30.277  59.764  1.00  0.00     0.022 A 
HETATM   14  C   UNL     1       8.208  31.141  60.853  1.00  0.00    -0.008 A 
HETATM   15  C   UNL     1       7.264  32.159  60.724  1.00  0.00     0.042 A 
HETATM   16  C   UNL     1       8.763  31.247  62.158  1.00  0.00     0.030 A 
HETATM   17  N   UNL     1       7.258  32.860  61.911  1.00  0.00    -0.365 N 
HETATM   18  C   UNL     1       6.522  32.357  59.557  1.00  0.00     0.031 A 
HETATM   19  H   UNL     1       6.679  33.668  62.102  1.00  0.00     0.165 HD
HETATM   20  C   UNL     1       8.159  32.313  62.784  1.00  0.00     0.089 A 
HETATM   21  C   UNL     1       6.753  31.485  58.487  1.00  0.00     0.011 A 
ENDBRANCH  11  12
ENDBRANCH   4  11
BRANCH   1  22
HETATM   22  C   UNL     1       5.995  25.244  54.575  1.00  0.00     0.157 C 
BRANCH  22  23
HETATM   23  C   UNL     1       6.796  23.988  54.356  1.00  0.00    -0.023 A 
HETATM   24  C   UNL     1       7.158  23.568  53.078  1.00  0.00     0.125 A 
HETATM   25  N   UNL     1       7.881  22.456  52.818  1.00  0.00    -0.273 NA
HETATM   26  C   UNL     1       8.297  21.737  53.883  1.00  0.00     0.116 A 
HETATM   27  C   UNL     1       8.015  22.079  55.196  1.00  0.00     0.020 A 
HETATM   28  C   UNL     1       7.254  23.220  55.432  1.00  0.00     0.011 A 
ENDBRANCH  22  23
ENDBRANCH   1  22
TORSDOF 4
ENDMDL
MODEL 8
REMARK VINA RESULT:      -8.7      4.058      6.348
REMARK  4 active torsions:
REMARK  status: ('A' for Active; 'I' for Inactive)
REMARK    1  A    between atoms: C_5  and  C_6 
REMARK    2  A    between atoms: C_6  and  N_7 
REMARK    3  A    between atoms: N_10  and  C_12 
REMARK    4  A    between atoms: C_12  and  C_13 
ROOT
HETATM    1  N   UNL     1       6.817  27.551  55.343  1.00  0.00    -0.406 N 
HETATM    2  C   UNL     1       7.302  27.885  54.002  1.00  0.00     0.150 C 
HETATM    3  C   UNL     1       7.298  26.811  52.884  1.00  0.00     0.206 C 
HETATM    4  N   UNL     1       5.931  26.628  52.232  1.00  0.00    -0.061 N 
HETATM    5  H   UNL     1       6.102  25.932  51.497  1.00  0.00     0.280 HD
HETATM    6  C   UNL     1       4.884  26.030  53.130  1.00  0.00     0.242 C 
HETATM    7  C   UNL     1       5.460  25.541  54.455  1.00  0.00     0.029 C 
HETATM    8  C   UNL     1       5.633  26.706  55.448  1.00  0.00     0.123 C 
HETATM    9  C   UNL     1       7.765  25.432  53.362  1.00  0.00     0.035 C 
HETATM   10  C   UNL     1       6.733  24.719  54.240  1.00  0.00     0.010 C 
ENDROOT
BRANCH   4  11
HETATM   11  C   UNL     1       5.393  27.826  51.470  1.00  0.00     0.274 C 
BRANCH  11  12
HETATM   12  C   UNL     1       4.466  27.471  50.342  1.00  0.00    -0.032 A 
HETATM   13  C   UNL     1       3.393  28.322  50.012  1.00  0.00     0.022 A 
HETATM   14  C   UNL     1       2.529  27.981  48.954  1.00  0.00    -0.008 A 
HETATM   15  C   UNL     1       2.763  26.802  48.248  1.00  0.00     0.042 A 
HETATM   16  C   UNL     1       1.387  28.598  48.373  1.00  0.00     0.030 A 
HETATM   17  N   UNL     1       1.798  26.717  47.268  1.00  0.00    -0.365 N 
HETATM   18  C   UNL     1       3.820  25.939  48.549  1.00  0.00     0.031 A 
HETATM   19  H   UNL     1       1.727  25.970  46.590  1.00  0.00     0.165 HD
HETATM   20  C   UNL     1       0.960  27.797  47.340  1.00  0.00     0.089 A 
HETATM   21  C   UNL     1       4.665  26.294  49.607  1.00  0.00     0.011 A 
ENDBRANCH  11  12
ENDBRANCH   4  11
BRANCH   1  22
HETATM   22  C   UNL     1       7.855  27.219  56.335  1.00  0.00     0.157 C 
BRANCH  22  23
HETATM   23  C   UNL     1       8.388  28.401  57.102  1.00  0.00    -0.023 A 
HETATM   24  C   UNL     1       7.667  28.976  58.146  1.00  0.00     0.125 A 
HETATM   25  N   UNL     1       8.094  30.032  58.874  1.00  0.00    -0.273 NA
HETATM   26  C   UNL     1       9.316  30.524  58.576  1.00  0.00     0.116 A 
HETATM   27  C   UNL     1      10.125  30.011  57.575  1.00  0.00     0.020 A 
HETATM   28  C   UNL     1       9.652  28.935  56.830  1.00  0.00     0.011 A 
ENDBRANCH  22  23
ENDBRANCH   1  22
TORSDOF 4
ENDMDL
MODEL 9
REMARK VINA RESULT:      -8.7      2.433      5.061
REMARK  4 active torsions:
REMARK  status: ('A' for Active; 'I' for Inactive)
REMARK    1  A    between atoms: C_5  and  C_6 
REMARK    2  A    between atoms: C_6  and  N_7 
REMARK    3  A    between atoms: N_10  and  C_12 
REMARK    4  A    between atoms: C_12  and  C_13 
ROOT
HETATM    1  N   UNL     1       5.144  28.493  55.622  1.00  0.00    -0.406 N 
HETATM    2  C   UNL     1       5.464  27.208  54.997  1.00  0.00     0.150 C 
HETATM    3  C   UNL     1       6.937  26.726  54.923  1.00  0.00     0.206 C 
HETATM    4  N   UNL     1       7.429  26.099  56.224  1.00  0.00    -0.061 N 
HETATM    5  H   UNL     1       8.384  25.795  56.002  1.00  0.00     0.280 HD
HETATM    6  C   UNL     1       7.559  27.061  57.372  1.00  0.00     0.242 C 
HETATM    7  C   UNL     1       7.362  28.511  56.944  1.00  0.00     0.029 C 
HETATM    8  C   UNL     1       5.865  28.859  56.836  1.00  0.00     0.123 C 
HETATM    9  C   UNL     1       7.924  27.836  54.547  1.00  0.00     0.035 C 
HETATM   10  C   UNL     1       8.164  28.835  55.681  1.00  0.00     0.010 C 
ENDROOT
BRANCH   4  11
HETATM   11  C   UNL     1       6.736  24.817  56.647  1.00  0.00     0.274 C 
BRANCH  11  12
HETATM   12  C   UNL     1       7.346  23.570  56.070  1.00  0.00    -0.032 A 
HETATM   13  C   UNL     1       7.173  23.263  54.706  1.00  0.00     0.022 A 
HETATM   14  C   UNL     1       7.748  22.093  54.174  1.00  0.00    -0.008 A 
HETATM   15  C   UNL     1       8.484  21.262  55.017  1.00  0.00     0.042 A 
HETATM   16  C   UNL     1       7.771  21.504  52.880  1.00  0.00     0.030 A 
HETATM   17  N   UNL     1       8.944  20.212  54.252  1.00  0.00    -0.365 N 
HETATM   18  C   UNL     1       8.675  21.541  56.373  1.00  0.00     0.031 A 
HETATM   19  H   UNL     1       9.523  19.456  54.596  1.00  0.00     0.165 HD
HETATM   20  C   UNL     1       8.513  20.349  52.960  1.00  0.00     0.089 A 
HETATM   21  C   UNL     1       8.094  22.707  56.884  1.00  0.00     0.011 A 
ENDBRANCH  11  12
ENDBRANCH   4  11
BRANCH   1  22
HETATM   22  C   UNL     1       4.953  29.625  54.697  1.00  0.00     0.157 C 
BRANCH  22  23
HETATM   23  C   UNL     1       4.555  29.230  53.299  1.00  0.00    -0.023 A 
HETATM   24  C   UNL     1       3.217  29.100  52.933  1.00  0.00     0.125 A 
HETATM   25  N   UNL     1       2.798  28.756  51.695  1.00  0.00    -0.273 NA
HETATM   26  C   UNL     1       3.753  28.564  50.760  1.00  0.00     0.116 A 
HETATM   27  C   UNL     1       5.108  28.691  51.011  1.00  0.00     0.020 A 
HETATM   28  C   UNL     1       5.512  29.029  52.299  1.00  0.00     0.011 A 
ENDBRANCH  22  23
ENDBRANCH   1  22
TORSDOF 4
ENDMDL
MODEL 10
REMARK VINA RESULT:      -8.7      3.063      7.596
REMARK  4 active torsions:
REMARK  status: ('A' for Active; 'I' for Inactive)
REMARK    1  A    between atoms: C_5  and  C_6 
REMARK    2  A    between atoms: C_6  and  N_7 
REMARK    3  A    between atoms: N_10  and  C_12 
REMARK    4  A    between atoms: C_12  and  C_13 
ROOT
HETATM    1  N   UNL     1       6.758  25.038  54.485  1.00  0.00    -0.406 N 
HETATM    2  C   UNL     1       5.446  25.535  54.905  1.00  0.00     0.150 C 
HETATM    3  C   UNL     1       5.302  26.977  55.457  1.00  0.00     0.206 C 
HETATM    4  N   UNL     1       5.239  28.036  54.361  1.00  0.00    -0.061 N 
HETATM    5  H   UNL     1       5.099  28.913  54.876  1.00  0.00     0.280 HD
HETATM    6  C   UNL     1       6.515  28.213  53.586  1.00  0.00     0.242 C 
HETATM    7  C   UNL     1       7.678  27.433  54.190  1.00  0.00     0.029 C 
HETATM    8  C   UNL     1       7.635  25.953  53.764  1.00  0.00     0.123 C 
HETATM    9  C   UNL     1       6.428  27.378  56.416  1.00  0.00     0.035 C 
HETATM   10  C   UNL     1       7.759  27.636  55.705  1.00  0.00     0.010 C 
ENDROOT
BRANCH   4  11
HETATM   11  C   UNL     1       4.033  27.968  53.441  1.00  0.00     0.274 C 
BRANCH  11  12
HETATM   12  C   UNL     1       4.370  27.663  52.008  1.00  0.00    -0.032 A 
HETATM   13  C   UNL     1       4.370  28.692  51.046  1.00  0.00     0.022 A 
HETATM   14  C   UNL     1       4.686  28.397  49.706  1.00  0.00    -0.008 A 
HETATM   15  C   UNL     1       5.000  27.083  49.363  1.00  0.00     0.042 A 
HETATM   16  C   UNL     1       4.781  29.174  48.520  1.00  0.00     0.030 A 
HETATM   17  N   UNL     1       5.284  27.072  48.015  1.00  0.00    -0.365 N 
HETATM   18  C   UNL     1       5.012  26.042  50.295  1.00  0.00     0.031 A 
HETATM   19  H   UNL     1       5.560  26.253  47.489  1.00  0.00     0.165 HD
HETATM   20  C   UNL     1       5.150  28.332  47.496  1.00  0.00     0.089 A 
HETATM   21  C   UNL     1       4.691  26.355  51.621  1.00  0.00     0.011 A 
ENDBRANCH  11  12
ENDBRANCH   4  11
BRANCH   1  22
HETATM   22  C   UNL     1       7.473  24.206  55.470  1.00  0.00     0.157 C 
BRANCH  22  23
HETATM   23  C   UNL     1       7.872  22.844  54.967  1.00  0.00    -0.023 A 
HETATM   24  C   UNL     1       8.468  21.904  55.804  1.00  0.00     0.125 A 
HETATM   25  N   UNL     1       8.841  20.665  55.413  1.00  0.00    -0.273 NA
HETATM   26  C   UNL     1       8.579  20.325  54.133  1.00  0.00     0.116 A 
HETATM   27  C   UNL     1       7.969  21.174  53.224  1.00  0.00     0.020 A 
HETATM   28  C   UNL     1       7.611  22.450  53.650  1.00  0.00     0.011 A 
ENDBRANCH  22  23
ENDBRANCH   1  22
TORSDOF 4
ENDMDL
