MODEL 1
REMARK VINA RESULT:      -9.8      0.000      0.000
REMARK  9 active torsions:
REMARK  status: ('A' for Active; 'I' for Inactive)
REMARK    1  A    between atoms: C_4  and  S_5 
REMARK    2  A    between atoms: S_5  and  C_6 
REMARK    3  A    between atoms: C_6  and  C_7 
REMARK       I    between atoms: C_7  and  N_8 
REMARK    4  A    between atoms: N_8  and  C_9 
REMARK    5  A    between atoms: C_10  and  O_11 
REMARK    6  A    between atoms: C_16  and  O_17 
REMARK    7  A    between atoms: C_24  and  C_25 
REMARK    8  A    between atoms: C_31  and  C_32 
REMARK       I    between atoms: C_32  and  N_33 
REMARK    9  A    between atoms: N_33  and  C_34 
ROOT
HETATM    1  C   UNL     1       4.230  30.974  53.394  1.00  0.00     0.069 C 
HETATM    2  C   UNL     1       4.805  29.790  54.136  1.00  0.00     0.019 A 
HETATM    3  N   UNL     1       5.588  30.109  55.231  1.00  0.00    -0.353 N 
HETATM    4  C   UNL     1       6.189  29.200  56.079  1.00  0.00     0.087 A 
HETATM    5  C   UNL     1       5.974  27.878  55.890  1.00  0.00     0.055 A 
HETATM    6  C   UNL     1       6.536  26.837  56.842  1.00  0.00     0.019 C 
HETATM    7  N   UNL     1       7.003  25.972  57.632  1.00  0.00    -0.096 N 
HETATM    8  C   UNL     1       5.176  27.371  54.684  1.00  0.00     0.104 A 
HETATM    9  C   UNL     1       4.598  28.490  53.803  1.00  0.00     0.046 A 
HETATM   10  H   UNL     1       5.557  31.066  55.572  1.00  0.00     0.166 HD
ENDROOT
BRANCH   4  11
HETATM   11  S   UNL     1       7.203  29.756  57.395  1.00  0.00    -0.102 SA
BRANCH  11  12
HETATM   12  C   UNL     1       6.230  31.141  58.043  1.00  0.00     0.184 C 
BRANCH  12  13
HETATM   13  C   UNL     1       6.915  31.888  59.186  1.00  0.00     0.231 C 
HETATM   14  N   UNL     1       6.163  31.873  60.356  1.00  0.00    -0.324 N 
HETATM   15  H   UNL     1       5.332  31.297  60.340  1.00  0.00     0.169 HD
HETATM   16  O   UNL     1       8.054  32.324  59.048  1.00  0.00    -0.272 OA
BRANCH  14  17
HETATM   17  C   UNL     1       6.533  32.346  61.640  1.00  0.00     0.071 A 
HETATM   18  C   UNL     1       7.432  31.721  62.527  1.00  0.00     0.096 A 
HETATM   19  C   UNL     1       7.681  32.299  63.781  1.00  0.00     0.065 A 
HETATM   20  C   UNL     1       7.053  33.487  64.156  1.00  0.00     0.070 A 
HETATM   21 CL   UNL     1       7.399  34.150  65.714  1.00  0.00    -0.081 Cl
HETATM   22  C   UNL     1       6.173  34.118  63.281  1.00  0.00     0.092 A 
HETATM   23  C   UNL     1       5.946  33.568  62.017  1.00  0.00     0.071 A 
BRANCH  18  24
HETATM   24  O   UNL     1       8.156  30.659  62.061  1.00  0.00    -0.354 OA
HETATM   25  C   UNL     1       9.538  30.878  61.807  1.00  0.00     0.210 C 
ENDBRANCH  18  24
BRANCH  22  26
HETATM   26  O   UNL     1       5.601  35.313  63.635  1.00  0.00    -0.354 OA
HETATM   27  C   UNL     1       4.244  35.158  64.048  1.00  0.00     0.210 C 
ENDBRANCH  22  26
ENDBRANCH  14  17
ENDBRANCH  12  13
ENDBRANCH  11  12
ENDBRANCH   4  11
BRANCH   8  28
HETATM   28  C   UNL     1       5.989  26.347  53.887  1.00  0.00    -0.044 A 
HETATM   29  C   UNL     1       5.487  25.048  53.692  1.00  0.00     0.008 A 
HETATM   30  C   UNL     1       6.222  24.100  52.978  1.00  0.00     0.001 A 
HETATM   31  C   UNL     1       7.465  24.435  52.448  1.00  0.00     0.000 A 
HETATM   32  C   UNL     1       7.979  25.714  52.638  1.00  0.00     0.001 A 
HETATM   33  C   UNL     1       7.253  26.661  53.363  1.00  0.00     0.008 A 
ENDBRANCH   8  28
BRANCH   9  34
HETATM   34  C   UNL     1       3.895  28.150  52.511  1.00  0.00     0.255 C 
HETATM   35  N   UNL     1       4.716  28.012  51.410  1.00  0.00    -0.323 N 
HETATM   36  H   UNL     1       5.706  28.155  51.531  1.00  0.00     0.169 HD
HETATM   37  O   UNL     1       2.670  28.065  52.494  1.00  0.00    -0.268 OA
BRANCH  35  38
HETATM   38  C   UNL     1       4.317  27.809  50.069  1.00  0.00     0.035 A 
HETATM   39  C   UNL     1       3.796  28.806  49.243  1.00  0.00     0.029 A 
HETATM   40  C   UNL     1       3.440  28.520  47.920  1.00  0.00     0.002 A 
HETATM   41  C   UNL     1       3.603  27.234  47.410  1.00  0.00     0.000 A 
HETATM   42  C   UNL     1       4.119  26.232  48.225  1.00  0.00     0.002 A 
HETATM   43  C   UNL     1       4.470  26.517  49.548  1.00  0.00     0.029 A 
ENDBRANCH  35  38
ENDBRANCH   9  34
TORSDOF 9
ENDMDL
MODEL 2
REMARK VINA RESULT:      -9.8      4.239     11.862
REMARK  9 active torsions:
REMARK  status: ('A' for Active; 'I' for Inactive)
REMARK    1  A    between atoms: C_4  and  S_5 
REMARK    2  A    between atoms: S_5  and  C_6 
REMARK    3  A    between atoms: C_6  and  C_7 
REMARK       I    between atoms: C_7  and  N_8 
REMARK    4  A    between atoms: N_8  and  C_9 
REMARK    5  A    between atoms: C_10  and  O_11 
REMARK    6  A    between atoms: C_16  and  O_17 
REMARK    7  A    between atoms: C_24  and  C_25 
REMARK    8  A    between atoms: C_31  and  C_32 
REMARK       I    between atoms: C_32  and  N_33 
REMARK    9  A    between atoms: N_33  and  C_34 
ROOT
HETATM    1  C   UNL     1       9.065  30.949  60.484  1.00  0.00     0.069 C 
HETATM    2  C   UNL     1       7.744  30.979  59.751  1.00  0.00     0.019 A 
HETATM    3  N   UNL     1       7.704  30.238  58.584  1.00  0.00    -0.353 N 
HETATM    4  C   UNL     1       6.601  30.086  57.767  1.00  0.00     0.087 A 
HETATM    5  C   UNL     1       5.427  30.650  58.132  1.00  0.00     0.055 A 
HETATM    6  C   UNL     1       4.160  30.444  57.320  1.00  0.00     0.019 C 
HETATM    7  N   UNL     1       3.108  30.274  56.645  1.00  0.00    -0.096 N 
HETATM    8  C   UNL     1       5.332  31.548  59.370  1.00  0.00     0.104 A 
HETATM    9  C   UNL     1       6.643  31.658  60.164  1.00  0.00     0.046 A 
HETATM   10  H   UNL     1       8.464  29.586  58.412  1.00  0.00     0.166 HD
ENDROOT
BRANCH   4  11
HETATM   11  S   UNL     1       6.719  29.161  56.284  1.00  0.00    -0.102 SA
BRANCH  11  12
HETATM   12  C   UNL     1       6.714  27.462  56.916  1.00  0.00     0.184 C 
BRANCH  12  13
HETATM   13  C   UNL     1       6.517  26.406  55.829  1.00  0.00     0.231 C 
HETATM   14  N   UNL     1       7.606  25.548  55.719  1.00  0.00    -0.324 N 
HETATM   15  H   UNL     1       8.327  25.655  56.420  1.00  0.00     0.169 HD
HETATM   16  O   UNL     1       5.443  26.313  55.242  1.00  0.00    -0.272 OA
BRANCH  14  17
HETATM   17  C   UNL     1       7.725  24.384  54.918  1.00  0.00     0.071 A 
HETATM   18  C   UNL     1       7.808  24.350  53.513  1.00  0.00     0.096 A 
HETATM   19  C   UNL     1       7.898  23.113  52.854  1.00  0.00     0.065 A 
HETATM   20  C   UNL     1       7.909  21.920  53.578  1.00  0.00     0.070 A 
HETATM   21 CL   UNL     1       8.020  20.429  52.711  1.00  0.00    -0.081 Cl
HETATM   22  C   UNL     1       7.839  21.946  54.968  1.00  0.00     0.092 A 
HETATM   23  C   UNL     1       7.785  23.174  55.632  1.00  0.00     0.071 A 
BRANCH  18  24
HETATM   24  O   UNL     1       7.968  25.536  52.851  1.00  0.00    -0.354 OA
HETATM   25  C   UNL     1       6.859  26.012  52.098  1.00  0.00     0.210 C 
ENDBRANCH  18  24
BRANCH  22  26
HETATM   26  O   UNL     1       7.905  20.772  55.674  1.00  0.00    -0.354 OA
HETATM   27  C   UNL     1       8.431  20.962  56.986  1.00  0.00     0.210 C 
ENDBRANCH  22  26
ENDBRANCH  14  17
ENDBRANCH  12  13
ENDBRANCH  11  12
ENDBRANCH   4  11
BRANCH   8  28
HETATM   28  C   UNL     1       4.740  32.912  59.005  1.00  0.00    -0.044 A 
HETATM   29  C   UNL     1       3.735  33.481  59.807  1.00  0.00     0.008 A 
HETATM   30  C   UNL     1       3.178  34.719  59.482  1.00  0.00     0.001 A 
HETATM   31  C   UNL     1       3.617  35.407  58.354  1.00  0.00     0.000 A 
HETATM   32  C   UNL     1       4.606  34.855  57.546  1.00  0.00     0.001 A 
HETATM   33  C   UNL     1       5.156  33.610  57.861  1.00  0.00     0.008 A 
ENDBRANCH   8  28
BRANCH   9  34
HETATM   34  C   UNL     1       6.741  32.605  61.336  1.00  0.00     0.255 C 
HETATM   35  N   UNL     1       6.309  32.097  62.544  1.00  0.00    -0.323 N 
HETATM   36  H   UNL     1       5.952  31.155  62.567  1.00  0.00     0.169 HD
HETATM   37  O   UNL     1       7.139  33.752  61.153  1.00  0.00    -0.268 OA
BRANCH  35  38
HETATM   38  C   UNL     1       6.186  32.795  63.767  1.00  0.00     0.035 A 
HETATM   39  C   UNL     1       7.261  33.134  64.592  1.00  0.00     0.029 A 
HETATM   40  C   UNL     1       7.049  33.840  65.782  1.00  0.00     0.002 A 
HETATM   41  C   UNL     1       5.762  34.216  66.157  1.00  0.00     0.000 A 
HETATM   42  C   UNL     1       4.684  33.882  65.344  1.00  0.00     0.002 A 
HETATM   43  C   UNL     1       4.894  33.172  64.159  1.00  0.00     0.029 A 
ENDBRANCH  35  38
ENDBRANCH   9  34
TORSDOF 9
ENDMDL
MODEL 3
REMARK VINA RESULT:      -9.6      6.362     10.870
REMARK  9 active torsions:
REMARK  status: ('A' for Active; 'I' for Inactive)
REMARK    1  A    between atoms: C_4  and  S_5 
REMARK    2  A    between atoms: S_5  and  C_6 
REMARK    3  A    between atoms: C_6  and  C_7 
REMARK       I    between atoms: C_7  and  N_8 
REMARK    4  A    between atoms: N_8  and  C_9 
REMARK    5  A    between atoms: C_10  and  O_11 
REMARK    6  A    between atoms: C_16  and  O_17 
REMARK    7  A    between atoms: C_24  and  C_25 
REMARK    8  A    between atoms: C_31  and  C_32 
REMARK       I    between atoms: C_32  and  N_33 
REMARK    9  A    between atoms: N_33  and  C_34 
ROOT
HETATM    1  C   UNL     1       5.627  25.936  50.873  1.00  0.00     0.069 C 
HETATM    2  C   UNL     1       5.397  26.688  52.164  1.00  0.00     0.019 A 
HETATM    3  N   UNL     1       4.580  27.800  52.056  1.00  0.00    -0.353 N 
HETATM    4  C   UNL     1       4.200  28.619  53.100  1.00  0.00     0.087 A 
HETATM    5  C   UNL     1       4.593  28.312  54.357  1.00  0.00     0.055 A 
HETATM    6  C   UNL     1       4.134  29.126  55.555  1.00  0.00     0.019 C 
HETATM    7  N   UNL     1       3.753  29.801  56.550  1.00  0.00    -0.096 N 
HETATM    8  C   UNL     1       5.548  27.143  54.625  1.00  0.00     0.104 A 
HETATM    9  C   UNL     1       5.919  26.341  53.368  1.00  0.00     0.046 A 
HETATM   10  H   UNL     1       4.047  27.913  51.199  1.00  0.00     0.166 HD
ENDROOT
BRANCH   4  11
HETATM   11  S   UNL     1       3.206  30.030  52.800  1.00  0.00    -0.102 SA
BRANCH  11  12
HETATM   12  C   UNL     1       4.172  30.891  51.530  1.00  0.00     0.184 C 
BRANCH  12  13
HETATM   13  C   UNL     1       3.774  30.521  50.103  1.00  0.00     0.231 C 
HETATM   14  N   UNL     1       2.667  29.680  50.062  1.00  0.00    -0.324 N 
HETATM   15  H   UNL     1       2.208  29.508  50.947  1.00  0.00     0.169 HD
HETATM   16  O   UNL     1       4.341  31.040  49.146  1.00  0.00    -0.272 OA
BRANCH  14  17
HETATM   17  C   UNL     1       1.945  29.239  48.924  1.00  0.00     0.071 A 
HETATM   18  C   UNL     1       0.954  29.968  48.238  1.00  0.00     0.096 A 
HETATM   19  C   UNL     1       0.305  29.386  47.137  1.00  0.00     0.065 A 
HETATM   20  C   UNL     1       0.635  28.098  46.714  1.00  0.00     0.070 A 
HETATM   21 CL   UNL     1      -0.199  27.435  45.353  1.00  0.00    -0.081 Cl
HETATM   22  C   UNL     1       1.622  27.376  47.379  1.00  0.00     0.092 A 
HETATM   23  C   UNL     1       2.297  27.961  48.454  1.00  0.00     0.071 A 
BRANCH  18  24
HETATM   24  O   UNL     1       0.780  31.282  48.570  1.00  0.00    -0.354 OA
HETATM   25  C   UNL     1       1.299  32.253  47.670  1.00  0.00     0.210 C 
ENDBRANCH  18  24
BRANCH  22  26
HETATM   26  O   UNL     1       1.978  26.132  46.924  1.00  0.00    -0.354 OA
HETATM   27  C   UNL     1       2.913  25.490  47.790  1.00  0.00     0.210 C 
ENDBRANCH  22  26
ENDBRANCH  14  17
ENDBRANCH  12  13
ENDBRANCH  11  12
ENDBRANCH   4  11
BRANCH   8  28
HETATM   28  C   UNL     1       6.772  27.614  55.414  1.00  0.00    -0.044 A 
HETATM   29  C   UNL     1       7.028  27.089  56.694  1.00  0.00     0.008 A 
HETATM   30  C   UNL     1       8.135  27.516  57.431  1.00  0.00     0.001 A 
HETATM   31  C   UNL     1       9.001  28.468  56.901  1.00  0.00     0.000 A 
HETATM   32  C   UNL     1       8.758  29.002  55.639  1.00  0.00     0.001 A 
HETATM   33  C   UNL     1       7.645  28.587  54.904  1.00  0.00     0.008 A 
ENDBRANCH   8  28
BRANCH   9  34
HETATM   34  C   UNL     1       6.947  25.239  53.450  1.00  0.00     0.255 C 
HETATM   35  N   UNL     1       6.486  24.036  53.944  1.00  0.00    -0.323 N 
HETATM   36  H   UNL     1       5.520  23.972  54.225  1.00  0.00     0.169 HD
HETATM   37  O   UNL     1       8.110  25.473  53.130  1.00  0.00    -0.268 OA
BRANCH  35  38
HETATM   38  C   UNL     1       7.252  22.882  54.230  1.00  0.00     0.035 A 
HETATM   39  C   UNL     1       7.620  22.479  55.516  1.00  0.00     0.029 A 
HETATM   40  C   UNL     1       8.368  21.312  55.709  1.00  0.00     0.002 A 
HETATM   41  C   UNL     1       8.754  20.536  54.619  1.00  0.00     0.000 A 
HETATM   42  C   UNL     1       8.395  20.929  53.333  1.00  0.00     0.002 A 
HETATM   43  C   UNL     1       7.652  22.097  53.140  1.00  0.00     0.029 A 
ENDBRANCH  35  38
ENDBRANCH   9  34
TORSDOF 9
ENDMDL
MODEL 4
REMARK VINA RESULT:      -9.6      6.070     10.914
REMARK  9 active torsions:
REMARK  status: ('A' for Active; 'I' for Inactive)
REMARK    1  A    between atoms: C_4  and  S_5 
REMARK    2  A    between atoms: S_5  and  C_6 
REMARK    3  A    between atoms: C_6  and  C_7 
REMARK       I    between atoms: C_7  and  N_8 
REMARK    4  A    between atoms: N_8  and  C_9 
REMARK    5  A    between atoms: C_10  and  O_11 
REMARK    6  A    between atoms: C_16  and  O_17 
REMARK    7  A    between atoms: C_24  and  C_25 
REMARK    8  A    between atoms: C_31  and  C_32 
REMARK       I    between atoms: C_32  and  N_33 
REMARK    9  A    between atoms: N_33  and  C_34 
ROOT
HETATM    1  C   UNL     1       4.865  25.129  51.969  1.00  0.00     0.069 C 
HETATM    2  C   UNL     1       4.820  26.308  52.913  1.00  0.00     0.019 A 
HETATM    3  N   UNL     1       4.282  27.466  52.379  1.00  0.00    -0.353 N 
HETATM    4  C   UNL     1       4.105  28.655  53.058  1.00  0.00     0.087 A 
HETATM    5  C   UNL     1       4.422  28.719  54.372  1.00  0.00     0.055 A 
HETATM    6  C   UNL     1       4.168  29.972  55.191  1.00  0.00     0.019 C 
HETATM    7  N   UNL     1       3.958  31.013  55.871  1.00  0.00    -0.096 N 
HETATM    8  C   UNL     1       5.082  27.533  55.085  1.00  0.00     0.104 A 
HETATM    9  C   UNL     1       5.253  26.289  54.200  1.00  0.00     0.046 A 
HETATM   10  H   UNL     1       3.786  27.393  51.496  1.00  0.00     0.166 HD
ENDROOT
BRANCH   4  11
HETATM   11  S   UNL     1       3.463  30.059  52.231  1.00  0.00    -0.102 SA
BRANCH  11  12
HETATM   12  C   UNL     1       4.679  30.286  50.905  1.00  0.00     0.184 C 
BRANCH  12  13
HETATM   13  C   UNL     1       4.197  29.793  49.542  1.00  0.00     0.231 C 
HETATM   14  N   UNL     1       2.996  29.097  49.623  1.00  0.00    -0.324 N 
HETATM   15  H   UNL     1       2.545  29.096  50.529  1.00  0.00     0.169 HD
HETATM   16  O   UNL     1       4.795  30.114  48.519  1.00  0.00    -0.272 OA
BRANCH  14  17
HETATM   17  C   UNL     1       2.193  28.610  48.561  1.00  0.00     0.071 A 
HETATM   18  C   UNL     1       2.281  27.332  47.975  1.00  0.00     0.096 A 
HETATM   19  C   UNL     1       1.431  27.000  46.908  1.00  0.00     0.065 A 
HETATM   20  C   UNL     1       0.499  27.920  46.426  1.00  0.00     0.070 A 
HETATM   21 CL   UNL     1      -0.518  27.454  45.109  1.00  0.00    -0.081 Cl
HETATM   22  C   UNL     1       0.398  29.181  47.008  1.00  0.00     0.092 A 
HETATM   23  C   UNL     1       1.216  29.507  48.092  1.00  0.00     0.071 A 
BRANCH  18  24
HETATM   24  O   UNL     1       3.080  26.403  48.581  1.00  0.00    -0.354 OA
HETATM   25  C   UNL     1       3.084  25.092  48.029  1.00  0.00     0.210 C 
ENDBRANCH  18  24
BRANCH  22  26
HETATM   26  O   UNL     1      -0.556  30.060  46.563  1.00  0.00    -0.354 OA
HETATM   27  C   UNL     1      -0.489  31.314  47.239  1.00  0.00     0.210 C 
ENDBRANCH  22  26
ENDBRANCH  14  17
ENDBRANCH  12  13
ENDBRANCH  11  12
ENDBRANCH   4  11
BRANCH   8  28
HETATM   28  C   UNL     1       6.386  27.966  55.761  1.00  0.00    -0.044 A 
HETATM   29  C   UNL     1       6.516  27.879  57.159  1.00  0.00     0.008 A 
HETATM   30  C   UNL     1       7.694  28.280  57.792  1.00  0.00     0.001 A 
HETATM   31  C   UNL     1       8.758  28.770  57.040  1.00  0.00     0.000 A 
HETATM   32  C   UNL     1       8.643  28.870  55.657  1.00  0.00     0.001 A 
HETATM   33  C   UNL     1       7.461  28.482  55.022  1.00  0.00     0.008 A 
ENDBRANCH   8  28
BRANCH   9  34
HETATM   34  C   UNL     1       6.000  25.085  54.722  1.00  0.00     0.255 C 
HETATM   35  N   UNL     1       6.950  24.563  53.868  1.00  0.00    -0.323 N 
HETATM   36  H   UNL     1       7.075  24.998  52.967  1.00  0.00     0.169 HD
HETATM   37  O   UNL     1       5.701  24.618  55.817  1.00  0.00    -0.268 OA
BRANCH  35  38
HETATM   38  C   UNL     1       7.708  23.384  54.054  1.00  0.00     0.035 A 
HETATM   39  C   UNL     1       8.604  23.182  55.105  1.00  0.00     0.029 A 
HETATM   40  C   UNL     1       9.303  21.975  55.222  1.00  0.00     0.002 A 
HETATM   41  C   UNL     1       9.112  20.959  54.289  1.00  0.00     0.000 A 
HETATM   42  C   UNL     1       8.223  21.150  53.236  1.00  0.00     0.002 A 
HETATM   43  C   UNL     1       7.528  22.357  53.117  1.00  0.00     0.029 A 
ENDBRANCH  35  38
ENDBRANCH   9  34
TORSDOF 9
ENDMDL
MODEL 5
REMARK VINA RESULT:      -9.4      1.652      2.076
REMARK  9 active torsions:
REMARK  status: ('A' for Active; 'I' for Inactive)
REMARK    1  A    between atoms: C_4  and  S_5 
REMARK    2  A    between atoms: S_5  and  C_6 
REMARK    3  A    between atoms: C_6  and  C_7 
REMARK       I    between atoms: C_7  and  N_8 
REMARK    4  A    between atoms: N_8  and  C_9 
REMARK    5  A    between atoms: C_10  and  O_11 
REMARK    6  A    between atoms: C_16  and  O_17 
REMARK    7  A    between atoms: C_24  and  C_25 
REMARK    8  A    between atoms: C_31  and  C_32 
REMARK       I    between atoms: C_32  and  N_33 
REMARK    9  A    between atoms: N_33  and  C_34 
ROOT
HETATM    1  C   UNL     1       4.551  31.037  51.647  1.00  0.00     0.069 C 
HETATM    2  C   UNL     1       4.680  29.897  52.631  1.00  0.00     0.019 A 
HETATM    3  N   UNL     1       4.910  30.277  53.941  1.00  0.00    -0.353 N 
HETATM    4  C   UNL     1       5.027  29.418  55.016  1.00  0.00     0.087 A 
HETATM    5  C   UNL     1       4.854  28.091  54.822  1.00  0.00     0.055 A 
HETATM    6  C   UNL     1       4.884  27.108  55.980  1.00  0.00     0.019 C 
HETATM    7  N   UNL     1       4.909  26.292  56.941  1.00  0.00    -0.096 N 
HETATM    8  C   UNL     1       4.649  27.516  53.416  1.00  0.00     0.104 A 
HETATM    9  C   UNL     1       4.577  28.582  52.312  1.00  0.00     0.046 A 
HETATM   10  H   UNL     1       4.778  31.256  54.180  1.00  0.00     0.166 HD
ENDROOT
BRANCH   4  11
HETATM   11  S   UNL     1       5.379  30.044  56.613  1.00  0.00    -0.102 SA
BRANCH  11  12
HETATM   12  C   UNL     1       5.157  31.826  56.362  1.00  0.00     0.184 C 
BRANCH  12  13
HETATM   13  C   UNL     1       5.433  32.659  57.612  1.00  0.00     0.231 C 
HETATM   14  N   UNL     1       5.827  31.879  58.694  1.00  0.00    -0.324 N 
HETATM   15  H   UNL     1       5.983  30.899  58.499  1.00  0.00     0.169 HD
HETATM   16  O   UNL     1       5.405  33.885  57.559  1.00  0.00    -0.272 OA
BRANCH  14  17
HETATM   17  C   UNL     1       6.285  32.312  59.964  1.00  0.00     0.071 A 
HETATM   18  C   UNL     1       7.629  32.496  60.342  1.00  0.00     0.096 A 
HETATM   19  C   UNL     1       7.930  32.907  61.650  1.00  0.00     0.065 A 
HETATM   20  C   UNL     1       6.912  33.139  62.576  1.00  0.00     0.070 A 
HETATM   21 CL   UNL     1       7.345  33.642  64.172  1.00  0.00    -0.081 Cl
HETATM   22  C   UNL     1       5.580  32.972  62.206  1.00  0.00     0.092 A 
HETATM   23  C   UNL     1       5.271  32.597  60.897  1.00  0.00     0.071 A 
BRANCH  18  24
HETATM   24  O   UNL     1       8.584  32.426  59.367  1.00  0.00    -0.354 OA
HETATM   25  C   UNL     1       9.245  31.179  59.194  1.00  0.00     0.210 C 
ENDBRANCH  18  24
BRANCH  22  26
HETATM   26  O   UNL     1       4.584  33.254  63.106  1.00  0.00    -0.354 OA
HETATM   27  C   UNL     1       3.290  33.206  62.508  1.00  0.00     0.210 C 
ENDBRANCH  22  26
ENDBRANCH  14  17
ENDBRANCH  12  13
ENDBRANCH  11  12
ENDBRANCH   4  11
BRANCH   8  28
HETATM   28  C   UNL     1       5.680  26.423  53.123  1.00  0.00    -0.044 A 
HETATM   29  C   UNL     1       7.049  26.740  53.082  1.00  0.00     0.008 A 
HETATM   30  C   UNL     1       8.001  25.756  52.806  1.00  0.00     0.001 A 
HETATM   31  C   UNL     1       7.600  24.445  52.568  1.00  0.00     0.000 A 
HETATM   32  C   UNL     1       6.249  24.116  52.598  1.00  0.00     0.001 A 
HETATM   33  C   UNL     1       5.293  25.100  52.861  1.00  0.00     0.008 A 
ENDBRANCH   8  28
BRANCH   9  34
HETATM   34  C   UNL     1       4.504  28.165  50.862  1.00  0.00     0.255 C 
HETATM   35  N   UNL     1       3.269  27.720  50.436  1.00  0.00    -0.323 N 
HETATM   36  H   UNL     1       2.515  27.689  51.104  1.00  0.00     0.169 HD
HETATM   37  O   UNL     1       5.520  28.196  50.173  1.00  0.00    -0.268 OA
BRANCH  35  38
HETATM   38  C   UNL     1       2.950  27.169  49.173  1.00  0.00     0.035 A 
HETATM   39  C   UNL     1       1.999  27.701  48.300  1.00  0.00     0.029 A 
HETATM   40  C   UNL     1       1.757  27.099  47.060  1.00  0.00     0.002 A 
HETATM   41  C   UNL     1       2.464  25.960  46.681  1.00  0.00     0.000 A 
HETATM   42  C   UNL     1       3.412  25.421  47.544  1.00  0.00     0.002 A 
HETATM   43  C   UNL     1       3.651  26.019  48.785  1.00  0.00     0.029 A 
ENDBRANCH  35  38
ENDBRANCH   9  34
TORSDOF 9
ENDMDL
MODEL 6
REMARK VINA RESULT:      -9.4      1.687      2.864
REMARK  9 active torsions:
REMARK  status: ('A' for Active; 'I' for Inactive)
REMARK    1  A    between atoms: C_4  and  S_5 
REMARK    2  A    between atoms: S_5  and  C_6 
REMARK    3  A    between atoms: C_6  and  C_7 
REMARK       I    between atoms: C_7  and  N_8 
REMARK    4  A    between atoms: N_8  and  C_9 
REMARK    5  A    between atoms: C_10  and  O_11 
REMARK    6  A    between atoms: C_16  and  O_17 
REMARK    7  A    between atoms: C_24  and  C_25 
REMARK    8  A    between atoms: C_31  and  C_32 
REMARK       I    between atoms: C_32  and  N_33 
REMARK    9  A    between atoms: N_33  and  C_34 
ROOT
HETATM    1  C   UNL     1       4.386  31.145  51.888  1.00  0.00     0.069 C 
HETATM    2  C   UNL     1       4.554  29.983  52.839  1.00  0.00     0.019 A 
HETATM    3  N   UNL     1       4.807  30.332  54.153  1.00  0.00    -0.353 N 
HETATM    4  C   UNL     1       4.962  29.448  55.203  1.00  0.00     0.087 A 
HETATM    5  C   UNL     1       4.805  28.124  54.978  1.00  0.00     0.055 A 
HETATM    6  C   UNL     1       4.876  27.112  56.109  1.00  0.00     0.019 C 
HETATM    7  N   UNL     1       4.935  26.272  57.048  1.00  0.00    -0.096 N 
HETATM    8  C   UNL     1       4.578  27.582  53.563  1.00  0.00     0.104 A 
HETATM    9  C   UNL     1       4.465  28.674  52.488  1.00  0.00     0.046 A 
HETATM   10  H   UNL     1       4.665  31.302  54.420  1.00  0.00     0.166 HD
ENDROOT
BRANCH   4  11
HETATM   11  S   UNL     1       5.339  30.039  56.808  1.00  0.00    -0.102 SA
BRANCH  11  12
HETATM   12  C   UNL     1       4.886  31.789  56.666  1.00  0.00     0.184 C 
BRANCH  12  13
HETATM   13  C   UNL     1       5.239  32.614  57.902  1.00  0.00     0.231 C 
HETATM   14  N   UNL     1       5.412  31.826  59.035  1.00  0.00    -0.324 N 
HETATM   15  H   UNL     1       5.390  30.825  58.886  1.00  0.00     0.169 HD
HETATM   16  O   UNL     1       5.447  33.820  57.805  1.00  0.00    -0.272 OA
BRANCH  14  17
HETATM   17  C   UNL     1       5.865  32.225  60.318  1.00  0.00     0.071 A 
HETATM   18  C   UNL     1       5.139  32.989  61.252  1.00  0.00     0.096 A 
HETATM   19  C   UNL     1       5.732  33.329  62.478  1.00  0.00     0.065 A 
HETATM   20  C   UNL     1       7.029  32.915  62.782  1.00  0.00     0.070 A 
HETATM   21 CL   UNL     1       7.706  33.366  64.307  1.00  0.00    -0.081 Cl
HETATM   22  C   UNL     1       7.749  32.149  61.869  1.00  0.00     0.092 A 
HETATM   23  C   UNL     1       7.154  31.777  60.661  1.00  0.00     0.071 A 
BRANCH  18  24
HETATM   24  O   UNL     1       3.818  33.229  60.995  1.00  0.00    -0.354 OA
HETATM   25  C   UNL     1       3.445  34.574  60.722  1.00  0.00     0.210 C 
ENDBRANCH  18  24
BRANCH  22  26
HETATM   26  O   UNL     1       9.003  31.700  62.197  1.00  0.00    -0.354 OA
HETATM   27  C   UNL     1       9.343  30.500  61.505  1.00  0.00     0.210 C 
ENDBRANCH  22  26
ENDBRANCH  14  17
ENDBRANCH  12  13
ENDBRANCH  11  12
ENDBRANCH   4  11
BRANCH   8  28
HETATM   28  C   UNL     1       5.620  26.513  53.219  1.00  0.00    -0.044 A 
HETATM   29  C   UNL     1       6.984  26.850  53.173  1.00  0.00     0.008 A 
HETATM   30  C   UNL     1       7.945  25.889  52.851  1.00  0.00     0.001 A 
HETATM   31  C   UNL     1       7.558  24.582  52.572  1.00  0.00     0.000 A 
HETATM   32  C   UNL     1       6.211  24.235  52.605  1.00  0.00     0.001 A 
HETATM   33  C   UNL     1       5.246  25.195  52.915  1.00  0.00     0.008 A 
ENDBRANCH   8  28
BRANCH   9  34
HETATM   34  C   UNL     1       4.367  28.294  51.030  1.00  0.00     0.255 C 
HETATM   35  N   UNL     1       3.097  27.992  50.582  1.00  0.00    -0.323 N 
HETATM   36  H   UNL     1       2.335  28.030  51.241  1.00  0.00     0.169 HD
HETATM   37  O   UNL     1       5.389  28.227  50.353  1.00  0.00    -0.268 OA
BRANCH  35  38
HETATM   38  C   UNL     1       2.737  27.502  49.305  1.00  0.00     0.035 A 
HETATM   39  C   UNL     1       3.453  26.530  48.604  1.00  0.00     0.029 A 
HETATM   40  C   UNL     1       3.016  26.091  47.349  1.00  0.00     0.002 A 
HETATM   41  C   UNL     1       1.858  26.619  46.784  1.00  0.00     0.000 A 
HETATM   42  C   UNL     1       1.137  27.589  47.473  1.00  0.00     0.002 A 
HETATM   43  C   UNL     1       1.576  28.031  48.724  1.00  0.00     0.029 A 
ENDBRANCH  35  38
ENDBRANCH   9  34
TORSDOF 9
ENDMDL
MODEL 7
REMARK VINA RESULT:      -9.3      6.177     10.067
REMARK  9 active torsions:
REMARK  status: ('A' for Active; 'I' for Inactive)
REMARK    1  A    between atoms: C_4  and  S_5 
REMARK    2  A    between atoms: S_5  and  C_6 
REMARK    3  A    between atoms: C_6  and  C_7 
REMARK       I    between atoms: C_7  and  N_8 
REMARK    4  A    between atoms: N_8  and  C_9 
REMARK    5  A    between atoms: C_10  and  O_11 
REMARK    6  A    between atoms: C_16  and  O_17 
REMARK    7  A    between atoms: C_24  and  C_25 
REMARK    8  A    between atoms: C_31  and  C_32 
REMARK       I    between atoms: C_32  and  N_33 
REMARK    9  A    between atoms: N_33  and  C_34 
ROOT
HETATM    1  C   UNL     1       5.677  25.954  50.791  1.00  0.00     0.069 C 
HETATM    2  C   UNL     1       5.414  26.697  52.080  1.00  0.00     0.019 A 
HETATM    3  N   UNL     1       4.594  27.805  51.961  1.00  0.00    -0.353 N 
HETATM    4  C   UNL     1       4.186  28.617  53.001  1.00  0.00     0.087 A 
HETATM    5  C   UNL     1       4.552  28.303  54.265  1.00  0.00     0.055 A 
HETATM    6  C   UNL     1       4.061  29.107  55.456  1.00  0.00     0.019 C 
HETATM    7  N   UNL     1       3.654  29.774  56.447  1.00  0.00    -0.096 N 
HETATM    8  C   UNL     1       5.506  27.137  54.547  1.00  0.00     0.104 A 
HETATM    9  C   UNL     1       5.910  26.345  53.294  1.00  0.00     0.046 A 
HETATM   10  H   UNL     1       4.080  27.922  51.092  1.00  0.00     0.166 HD
ENDROOT
BRANCH   4  11
HETATM   11  S   UNL     1       3.192  30.024  52.687  1.00  0.00    -0.102 SA
BRANCH  11  12
HETATM   12  C   UNL     1       4.449  31.285  52.341  1.00  0.00     0.184 C 
BRANCH  12  13
HETATM   13  C   UNL     1       5.057  31.175  50.944  1.00  0.00     0.231 C 
HETATM   14  N   UNL     1       4.769  32.280  50.151  1.00  0.00    -0.324 N 
HETATM   15  H   UNL     1       4.298  33.046  50.613  1.00  0.00     0.169 HD
HETATM   16  O   UNL     1       5.804  30.242  50.665  1.00  0.00    -0.272 OA
BRANCH  14  17
HETATM   17  C   UNL     1       5.266  32.583  48.857  1.00  0.00     0.071 A 
HETATM   18  C   UNL     1       4.761  32.088  47.639  1.00  0.00     0.096 A 
HETATM   19  C   UNL     1       5.376  32.459  46.434  1.00  0.00     0.065 A 
HETATM   20  C   UNL     1       6.479  33.315  46.430  1.00  0.00     0.070 A 
HETATM   21 CL   UNL     1       7.195  33.734  44.914  1.00  0.00    -0.081 Cl
HETATM   22  C   UNL     1       6.977  33.817  47.629  1.00  0.00     0.092 A 
HETATM   23  C   UNL     1       6.348  33.481  48.831  1.00  0.00     0.071 A 
BRANCH  18  24
HETATM   24  O   UNL     1       3.582  31.396  47.668  1.00  0.00    -0.354 OA
HETATM   25  C   UNL     1       3.530  30.174  46.942  1.00  0.00     0.210 C 
ENDBRANCH  18  24
BRANCH  22  26
HETATM   26  O   UNL     1       8.026  34.699  47.613  1.00  0.00    -0.354 OA
HETATM   27  C   UNL     1       7.997  35.590  48.727  1.00  0.00     0.210 C 
ENDBRANCH  22  26
ENDBRANCH  14  17
ENDBRANCH  12  13
ENDBRANCH  11  12
ENDBRANCH   4  11
BRANCH   8  28
HETATM   28  C   UNL     1       6.710  27.609  55.367  1.00  0.00    -0.044 A 
HETATM   29  C   UNL     1       6.931  27.087  56.654  1.00  0.00     0.008 A 
HETATM   30  C   UNL     1       8.019  27.515  57.419  1.00  0.00     0.001 A 
HETATM   31  C   UNL     1       8.899  28.465  56.910  1.00  0.00     0.000 A 
HETATM   32  C   UNL     1       8.689  28.996  55.641  1.00  0.00     0.001 A 
HETATM   33  C   UNL     1       7.596  28.581  54.878  1.00  0.00     0.008 A 
ENDBRANCH   8  28
BRANCH   9  34
HETATM   34  C   UNL     1       6.941  25.247  53.392  1.00  0.00     0.255 C 
HETATM   35  N   UNL     1       6.474  24.037  53.862  1.00  0.00    -0.323 N 
HETATM   36  H   UNL     1       5.501  23.965  54.117  1.00  0.00     0.169 HD
HETATM   37  O   UNL     1       8.111  25.490  53.107  1.00  0.00    -0.268 OA
BRANCH  35  38
HETATM   38  C   UNL     1       7.237  22.884  54.157  1.00  0.00     0.035 A 
HETATM   39  C   UNL     1       7.766  22.021  53.195  1.00  0.00     0.029 A 
HETATM   40  C   UNL     1       8.524  20.909  53.576  1.00  0.00     0.002 A 
HETATM   41  C   UNL     1       8.762  20.648  54.923  1.00  0.00     0.000 A 
HETATM   42  C   UNL     1       8.239  21.499  55.891  1.00  0.00     0.002 A 
HETATM   43  C   UNL     1       7.478  22.608  55.511  1.00  0.00     0.029 A 
ENDBRANCH  35  38
ENDBRANCH   9  34
TORSDOF 9
ENDMDL
MODEL 8
REMARK VINA RESULT:      -8.9      6.365     10.699
REMARK  9 active torsions:
REMARK  status: ('A' for Active; 'I' for Inactive)
REMARK    1  A    between atoms: C_4  and  S_5 
REMARK    2  A    between atoms: S_5  and  C_6 
REMARK    3  A    between atoms: C_6  and  C_7 
REMARK       I    between atoms: C_7  and  N_8 
REMARK    4  A    between atoms: N_8  and  C_9 
REMARK    5  A    between atoms: C_10  and  O_11 
REMARK    6  A    between atoms: C_16  and  O_17 
REMARK    7  A    between atoms: C_24  and  C_25 
REMARK    8  A    between atoms: C_31  and  C_32 
REMARK       I    between atoms: C_32  and  N_33 
REMARK    9  A    between atoms: N_33  and  C_34 
ROOT
HETATM    1  C   UNL     1       5.060  26.500  50.324  1.00  0.00     0.069 C 
HETATM    2  C   UNL     1       4.679  27.428  51.454  1.00  0.00     0.019 A 
HETATM    3  N   UNL     1       4.342  28.713  51.068  1.00  0.00    -0.353 N 
HETATM    4  C   UNL     1       3.928  29.722  51.914  1.00  0.00     0.087 A 
HETATM    5  C   UNL     1       3.774  29.457  53.232  1.00  0.00     0.055 A 
HETATM    6  C   UNL     1       3.239  30.502  54.196  1.00  0.00     0.019 C 
HETATM    7  N   UNL     1       2.795  31.369  54.997  1.00  0.00    -0.096 N 
HETATM    8  C   UNL     1       4.163  28.094  53.815  1.00  0.00     0.104 A 
HETATM    9  C   UNL     1       4.643  27.080  52.766  1.00  0.00     0.046 A 
HETATM   10  H   UNL     1       4.181  28.883  50.079  1.00  0.00     0.166 HD
ENDROOT
BRANCH   4  11
HETATM   11  S   UNL     1       3.592  31.322  51.286  1.00  0.00    -0.102 SA
BRANCH  11  12
HETATM   12  C   UNL     1       5.263  32.005  51.119  1.00  0.00     0.184 C 
BRANCH  12  13
HETATM   13  C   UNL     1       5.844  31.865  49.714  1.00  0.00     0.231 C 
HETATM   14  N   UNL     1       5.301  32.783  48.821  1.00  0.00    -0.324 N 
HETATM   15  H   UNL     1       4.687  33.480  49.221  1.00  0.00     0.169 HD
HETATM   16  O   UNL     1       6.769  31.087  49.499  1.00  0.00    -0.272 OA
BRANCH  14  17
HETATM   17  C   UNL     1       5.686  33.032  47.479  1.00  0.00     0.071 A 
HETATM   18  C   UNL     1       4.963  32.664  46.328  1.00  0.00     0.096 A 
HETATM   19  C   UNL     1       5.486  32.957  45.059  1.00  0.00     0.065 A 
HETATM   20  C   UNL     1       6.711  33.613  44.927  1.00  0.00     0.070 A 
HETATM   21 CL   UNL     1       7.304  33.946  43.338  1.00  0.00    -0.081 Cl
HETATM   22  C   UNL     1       7.426  33.991  46.060  1.00  0.00     0.092 A 
HETATM   23  C   UNL     1       6.896  33.734  47.327  1.00  0.00     0.071 A 
BRANCH  18  24
HETATM   24  O   UNL     1       3.695  32.181  46.495  1.00  0.00    -0.354 OA
HETATM   25  C   UNL     1       3.535  30.768  46.501  1.00  0.00     0.210 C 
ENDBRANCH  18  24
BRANCH  22  26
HETATM   26  O   UNL     1       8.602  34.683  45.922  1.00  0.00    -0.354 OA
HETATM   27  C   UNL     1       8.771  35.666  46.942  1.00  0.00     0.210 C 
ENDBRANCH  22  26
ENDBRANCH  14  17
ENDBRANCH  12  13
ENDBRANCH  11  12
ENDBRANCH   4  11
BRANCH   8  28
HETATM   28  C   UNL     1       5.150  28.263  54.974  1.00  0.00    -0.044 A 
HETATM   29  C   UNL     1       6.416  28.830  54.743  1.00  0.00     0.008 A 
HETATM   30  C   UNL     1       7.330  28.981  55.788  1.00  0.00     0.001 A 
HETATM   31  C   UNL     1       6.994  28.571  57.074  1.00  0.00     0.000 A 
HETATM   32  C   UNL     1       5.748  28.002  57.318  1.00  0.00     0.001 A 
HETATM   33  C   UNL     1       4.835  27.838  56.274  1.00  0.00     0.008 A 
ENDBRANCH   8  28
BRANCH   9  34
HETATM   34  C   UNL     1       5.179  25.737  53.200  1.00  0.00     0.255 C 
HETATM   35  N   UNL     1       6.541  25.687  53.417  1.00  0.00    -0.323 N 
HETATM   36  H   UNL     1       7.082  26.524  53.264  1.00  0.00     0.169 HD
HETATM   37  O   UNL     1       4.414  24.781  53.287  1.00  0.00    -0.268 OA
BRANCH  35  38
HETATM   38  C   UNL     1       7.315  24.542  53.718  1.00  0.00     0.035 A 
HETATM   39  C   UNL     1       7.638  23.545  52.795  1.00  0.00     0.029 A 
HETATM   40  C   UNL     1       8.424  22.451  53.175  1.00  0.00     0.002 A 
HETATM   41  C   UNL     1       8.894  22.344  54.481  1.00  0.00     0.000 A 
HETATM   42  C   UNL     1       8.577  23.330  55.410  1.00  0.00     0.002 A 
HETATM   43  C   UNL     1       7.789  24.420  55.031  1.00  0.00     0.029 A 
ENDBRANCH  35  38
ENDBRANCH   9  34
TORSDOF 9
ENDMDL
MODEL 9
REMARK VINA RESULT:      -8.8      4.552     11.994
REMARK  9 active torsions:
REMARK  status: ('A' for Active; 'I' for Inactive)
REMARK    1  A    between atoms: C_4  and  S_5 
REMARK    2  A    between atoms: S_5  and  C_6 
REMARK    3  A    between atoms: C_6  and  C_7 
REMARK       I    between atoms: C_7  and  N_8 
REMARK    4  A    between atoms: N_8  and  C_9 
REMARK    5  A    between atoms: C_10  and  O_11 
REMARK    6  A    between atoms: C_16  and  O_17 
REMARK    7  A    between atoms: C_24  and  C_25 
REMARK    8  A    between atoms: C_31  and  C_32 
REMARK       I    between atoms: C_32  and  N_33 
REMARK    9  A    between atoms: N_33  and  C_34 
ROOT
HETATM    1  C   UNL     1       3.097  36.912  59.716  1.00  0.00     0.069 C 
HETATM    2  C   UNL     1       3.674  35.801  60.562  1.00  0.00     0.019 A 
HETATM    3  N   UNL     1       3.346  34.521  60.151  1.00  0.00    -0.353 N 
HETATM    4  C   UNL     1       3.781  33.352  60.743  1.00  0.00     0.087 A 
HETATM    5  C   UNL     1       4.647  33.421  61.780  1.00  0.00     0.055 A 
HETATM    6  C   UNL     1       5.229  32.169  62.414  1.00  0.00     0.019 C 
HETATM    7  N   UNL     1       5.712  31.130  62.940  1.00  0.00    -0.096 N 
HETATM    8  C   UNL     1       5.056  34.770  62.382  1.00  0.00     0.104 A 
HETATM    9  C   UNL     1       4.467  35.984  61.649  1.00  0.00     0.046 A 
HETATM   10  H   UNL     1       2.929  34.413  59.231  1.00  0.00     0.166 HD
ENDROOT
BRANCH   4  11
HETATM   11  S   UNL     1       3.232  31.800  60.145  1.00  0.00    -0.102 SA
BRANCH  11  12
HETATM   12  C   UNL     1       3.586  31.949  58.373  1.00  0.00     0.184 C 
BRANCH  12  13
HETATM   13  C   UNL     1       5.077  32.022  58.051  1.00  0.00     0.231 C 
HETATM   14  N   UNL     1       5.746  30.843  58.364  1.00  0.00    -0.324 N 
HETATM   15  H   UNL     1       5.165  30.068  58.656  1.00  0.00     0.169 HD
HETATM   16  O   UNL     1       5.540  33.000  57.472  1.00  0.00    -0.272 OA
BRANCH  14  17
HETATM   17  C   UNL     1       7.095  30.503  58.087  1.00  0.00     0.071 A 
HETATM   18  C   UNL     1       8.196  30.724  58.937  1.00  0.00     0.096 A 
HETATM   19  C   UNL     1       9.482  30.354  58.514  1.00  0.00     0.065 A 
HETATM   20  C   UNL     1       9.679  29.765  57.264  1.00  0.00     0.070 A 
HETATM   21 CL   UNL     1      11.286  29.332  56.798  1.00  0.00    -0.081 Cl
HETATM   22  C   UNL     1       8.594  29.532  56.423  1.00  0.00     0.092 A 
HETATM   23  C   UNL     1       7.307  29.865  56.851  1.00  0.00     0.071 A 
BRANCH  18  24
HETATM   24  O   UNL     1       7.946  31.141  60.215  1.00  0.00    -0.354 OA
HETATM   25  C   UNL     1       8.319  32.473  60.547  1.00  0.00     0.210 C 
ENDBRANCH  18  24
BRANCH  22  26
HETATM   26  O   UNL     1       8.789  28.904  55.220  1.00  0.00    -0.354 OA
HETATM   27  C   UNL     1       7.707  28.039  54.882  1.00  0.00     0.210 C 
ENDBRANCH  22  26
ENDBRANCH  14  17
ENDBRANCH  12  13
ENDBRANCH  11  12
ENDBRANCH   4  11
BRANCH   8  28
HETATM   28  C   UNL     1       4.784  34.794  63.889  1.00  0.00    -0.044 A 
HETATM   29  C   UNL     1       3.464  34.890  64.364  1.00  0.00     0.008 A 
HETATM   30  C   UNL     1       3.201  34.925  65.735  1.00  0.00     0.001 A 
HETATM   31  C   UNL     1       4.249  34.862  66.649  1.00  0.00     0.000 A 
HETATM   32  C   UNL     1       5.561  34.774  66.194  1.00  0.00     0.001 A 
HETATM   33  C   UNL     1       5.830  34.752  64.824  1.00  0.00     0.008 A 
ENDBRANCH   8  28
BRANCH   9  34
HETATM   34  C   UNL     1       4.676  37.375  62.198  1.00  0.00     0.255 C 
HETATM   35  N   UNL     1       5.985  37.810  62.223  1.00  0.00    -0.323 N 
HETATM   36  H   UNL     1       6.704  37.184  61.894  1.00  0.00     0.169 HD
HETATM   37  O   UNL     1       3.713  38.007  62.624  1.00  0.00    -0.268 OA
BRANCH  35  38
HETATM   38  C   UNL     1       6.474  39.012  62.784  1.00  0.00     0.035 A 
HETATM   39  C   UNL     1       6.417  39.328  64.143  1.00  0.00     0.029 A 
HETATM   40  C   UNL     1       6.940  40.538  64.614  1.00  0.00     0.002 A 
HETATM   41  C   UNL     1       7.525  41.443  63.732  1.00  0.00     0.000 A 
HETATM   42  C   UNL     1       7.585  41.140  62.375  1.00  0.00     0.002 A 
HETATM   43  C   UNL     1       7.059  39.934  61.904  1.00  0.00     0.029 A 
ENDBRANCH  35  38
ENDBRANCH   9  34
TORSDOF 9
ENDMDL
MODEL 10
REMARK VINA RESULT:      -8.8      6.259     10.406
REMARK  9 active torsions:
REMARK  status: ('A' for Active; 'I' for Inactive)
REMARK    1  A    between atoms: C_4  and  S_5 
REMARK    2  A    between atoms: S_5  and  C_6 
REMARK    3  A    between atoms: C_6  and  C_7 
REMARK       I    between atoms: C_7  and  N_8 
REMARK    4  A    between atoms: N_8  and  C_9 
REMARK    5  A    between atoms: C_10  and  O_11 
REMARK    6  A    between atoms: C_16  and  O_17 
REMARK    7  A    between atoms: C_24  and  C_25 
REMARK    8  A    between atoms: C_31  and  C_32 
REMARK       I    between atoms: C_32  and  N_33 
REMARK    9  A    between atoms: N_33  and  C_34 
ROOT
HETATM    1  C   UNL     1       5.561  26.132  51.011  1.00  0.00     0.069 C 
HETATM    2  C   UNL     1       5.363  26.841  52.330  1.00  0.00     0.019 A 
HETATM    3  N   UNL     1       4.558  27.965  52.277  1.00  0.00    -0.353 N 
HETATM    4  C   UNL     1       4.207  28.752  53.355  1.00  0.00     0.087 A 
HETATM    5  C   UNL     1       4.620  28.397  54.594  1.00  0.00     0.055 A 
HETATM    6  C   UNL     1       4.193  29.174  55.827  1.00  0.00     0.019 C 
HETATM    7  N   UNL     1       3.838  29.819  56.852  1.00  0.00    -0.096 N 
HETATM    8  C   UNL     1       5.565  27.209  54.803  1.00  0.00     0.104 A 
HETATM    9  C   UNL     1       5.903  26.447  53.512  1.00  0.00     0.046 A 
HETATM   10  H   UNL     1       4.010  28.114  51.434  1.00  0.00     0.166 HD
ENDROOT
BRANCH   4  11
HETATM   11  S   UNL     1       3.224  30.183  53.123  1.00  0.00    -0.102 SA
BRANCH  11  12
HETATM   12  C   UNL     1       4.431  31.342  52.424  1.00  0.00     0.184 C 
BRANCH  12  13
HETATM   13  C   UNL     1       4.710  31.113  50.940  1.00  0.00     0.231 C 
HETATM   14  N   UNL     1       3.768  31.728  50.122  1.00  0.00    -0.324 N 
HETATM   15  H   UNL     1       3.097  32.323  50.589  1.00  0.00     0.169 HD
HETATM   16  O   UNL     1       5.735  30.541  50.582  1.00  0.00    -0.272 OA
BRANCH  14  17
HETATM   17  C   UNL     1       3.776  31.839  48.708  1.00  0.00     0.071 A 
HETATM   18  C   UNL     1       4.531  32.758  47.954  1.00  0.00     0.096 A 
HETATM   19  C   UNL     1       4.415  32.765  46.555  1.00  0.00     0.065 A 
HETATM   20  C   UNL     1       3.565  31.868  45.906  1.00  0.00     0.070 A 
HETATM   21 CL   UNL     1       3.464  31.926  44.181  1.00  0.00    -0.081 Cl
HETATM   22  C   UNL     1       2.826  30.948  46.644  1.00  0.00     0.092 A 
HETATM   23  C   UNL     1       2.961  30.912  48.034  1.00  0.00     0.071 A 
BRANCH  18  24
HETATM   24  O   UNL     1       5.476  33.500  48.606  1.00  0.00    -0.354 OA
HETATM   25  C   UNL     1       6.837  33.254  48.272  1.00  0.00     0.210 C 
ENDBRANCH  18  24
BRANCH  22  26
HETATM   26  O   UNL     1       2.034  30.036  45.995  1.00  0.00    -0.354 OA
HETATM   27  C   UNL     1       0.656  30.404  46.021  1.00  0.00     0.210 C 
ENDBRANCH  22  26
ENDBRANCH  14  17
ENDBRANCH  12  13
ENDBRANCH  11  12
ENDBRANCH   4  11
BRANCH   8  28
HETATM   28  C   UNL     1       6.810  27.638  55.584  1.00  0.00    -0.044 A 
HETATM   29  C   UNL     1       7.662  28.627  55.062  1.00  0.00     0.008 A 
HETATM   30  C   UNL     1       8.806  29.022  55.758  1.00  0.00     0.001 A 
HETATM   31  C   UNL     1       9.114  28.438  56.983  1.00  0.00     0.000 A 
HETATM   32  C   UNL     1       8.285  27.453  57.510  1.00  0.00     0.001 A 
HETATM   33  C   UNL     1       7.147  27.046  56.811  1.00  0.00     0.008 A 
ENDBRANCH   8  28
BRANCH   9  34
HETATM   34  C   UNL     1       6.920  25.331  53.536  1.00  0.00     0.255 C 
HETATM   35  N   UNL     1       6.457  24.119  54.007  1.00  0.00    -0.323 N 
HETATM   36  H   UNL     1       5.497  24.058  54.310  1.00  0.00     0.169 HD
HETATM   37  O   UNL     1       8.077  25.561  53.195  1.00  0.00    -0.268 OA
BRANCH  35  38
HETATM   38  C   UNL     1       7.215  22.949  54.241  1.00  0.00     0.035 A 
HETATM   39  C   UNL     1       7.586  22.490  55.506  1.00  0.00     0.029 A 
HETATM   40  C   UNL     1       8.326  21.310  55.646  1.00  0.00     0.002 A 
HETATM   41  C   UNL     1       8.701  20.578  54.523  1.00  0.00     0.000 A 
HETATM   42  C   UNL     1       8.339  21.027  53.257  1.00  0.00     0.002 A 
HETATM   43  C   UNL     1       7.604  22.207  53.117  1.00  0.00     0.029 A 
ENDBRANCH  35  38
ENDBRANCH   9  34
TORSDOF 9
ENDMDL
