MODEL 1
REMARK VINA RESULT:      -8.3      0.000      0.000
REMARK  11 active torsions:
REMARK  status: ('A' for Active; 'I' for Inactive)
REMARK    1  A    between atoms: C_2  and  N_3 
REMARK    2  A    between atoms: N_3  and  C_5 
REMARK    3  A    between atoms: N_3  and  C_32 
REMARK    4  A    between atoms: C_5  and  C_6 
REMARK    5  A    between atoms: N_9  and  C_10 
REMARK    6  A    between atoms: C_14  and  N_15 
REMARK    7  A    between atoms: C_16  and  C_17 
REMARK       I    between atoms: C_17  and  N_18 
REMARK    8  A    between atoms: N_18  and  N_19 
REMARK    9  A    between atoms: C_20  and  C_21 
REMARK   10  A    between atoms: C_25  and  O_26 
REMARK   11  A    between atoms: C_27  and  O_28 
ROOT
HETATM    1  C   UNL     1       7.626  24.308  56.265  1.00  0.00     0.112 A 
HETATM    2  N   UNL     1       8.428  24.304  57.363  1.00  0.00    -0.160 NA
HETATM    3  N   UNL     1       8.544  25.547  57.795  1.00  0.00     0.012 NA
HETATM    4  N   UNL     1       7.824  26.381  56.985  1.00  0.00    -0.207 N 
HETATM    5  C   UNL     1       7.198  25.601  56.024  1.00  0.00     0.153 A 
ENDROOT
BRANCH   5   6
HETATM    6  C   UNL     1       6.388  26.022  54.922  1.00  0.00     0.292 C 
HETATM    7  N   UNL     1       7.082  26.219  53.735  1.00  0.00    -0.242 N 
HETATM    8  H   UNL     1       8.097  26.210  53.749  1.00  0.00     0.192 HD
HETATM    9  O   UNL     1       5.221  26.351  55.115  1.00  0.00    -0.264 OA
BRANCH   7  10
HETATM   10  N   UNL     1       6.565  26.952  52.694  1.00  0.00    -0.184 NA
HETATM   11  C   UNL     1       5.968  26.269  51.765  1.00  0.00     0.150 C 
BRANCH  11  12
HETATM   12  C   UNL     1       5.318  26.912  50.605  1.00  0.00    -0.013 A 
HETATM   13  C   UNL     1       4.592  26.103  49.727  1.00  0.00     0.035 A 
HETATM   14  C   UNL     1       3.977  26.681  48.619  1.00  0.00     0.047 A 
HETATM   15 BR   UNL     1       3.010  25.567  47.428  1.00  0.00    -0.048 Br
HETATM   16  C   UNL     1       4.075  28.057  48.396  1.00  0.00     0.116 A 
HETATM   17  C   UNL     1       4.794  28.875  49.282  1.00  0.00     0.103 A 
HETATM   18  C   UNL     1       5.420  28.293  50.388  1.00  0.00     0.052 A 
BRANCH  16  19
HETATM   19  O   UNL     1       3.475  28.638  47.308  1.00  0.00    -0.357 OA
HETATM   20  H   UNL     1       2.540  28.365  47.293  1.00  0.00     0.218 HD
ENDBRANCH  16  19
BRANCH  17  21
HETATM   21  O   UNL     1       4.820  30.210  48.976  1.00  0.00    -0.353 OA
HETATM   22  C   UNL     1       5.799  31.020  49.610  1.00  0.00     0.210 C 
ENDBRANCH  17  21
ENDBRANCH  11  12
ENDBRANCH   7  10
ENDBRANCH   5   6
BRANCH   1  23
HETATM   23  C   UNL     1       7.277  23.073  55.505  1.00  0.00     0.297 C 
BRANCH  23  24
HETATM   24  N   UNL     1       8.349  22.404  54.654  1.00  0.00    -0.066 N 
HETATM   25  H   UNL     1       9.102  23.098  54.572  1.00  0.00     0.280 HD
BRANCH  24  26
HETATM   26  C   UNL     1       7.938  22.079  53.229  1.00  0.00     0.231 C 
HETATM   27  C   UNL     1       8.321  20.665  52.833  1.00  0.00     0.034 C 
ENDBRANCH  24  26
BRANCH  24  28
HETATM   28  C   UNL     1       8.970  21.187  55.320  1.00  0.00     0.231 C 
HETATM   29  C   UNL     1       8.066  20.636  56.409  1.00  0.00     0.034 C 
ENDBRANCH  24  28
ENDBRANCH  23  24
ENDBRANCH   1  23
BRANCH   4  30
HETATM   30  C   UNL     1       7.802  27.782  57.156  1.00  0.00     0.225 A 
HETATM   31  N   UNL     1       8.932  28.485  57.068  1.00  0.00    -0.081 NA
HETATM   32  O   UNL     1       8.522  29.803  57.281  1.00  0.00    -0.103 OA
HETATM   33  N   UNL     1       7.152  29.874  57.503  1.00  0.00    -0.083 NA
HETATM   34  C   UNL     1       6.707  28.621  57.426  1.00  0.00     0.201 A 
BRANCH  34  35
HETATM   35  N   UNL     1       5.423  28.262  57.591  1.00  0.00    -0.379 N 
HETATM   36  H   UNL     1       4.857  28.043  56.775  1.00  0.00     0.158 HD
HETATM   37  H   UNL     1       4.892  28.448  58.439  1.00  0.00     0.158 HD
ENDBRANCH  34  35
ENDBRANCH   4  30
TORSDOF 11
ENDMDL
MODEL 2
REMARK VINA RESULT:      -8.3      1.774      2.595
REMARK  11 active torsions:
REMARK  status: ('A' for Active; 'I' for Inactive)
REMARK    1  A    between atoms: C_2  and  N_3 
REMARK    2  A    between atoms: N_3  and  C_5 
REMARK    3  A    between atoms: N_3  and  C_32 
REMARK    4  A    between atoms: C_5  and  C_6 
REMARK    5  A    between atoms: N_9  and  C_10 
REMARK    6  A    between atoms: C_14  and  N_15 
REMARK    7  A    between atoms: C_16  and  C_17 
REMARK       I    between atoms: C_17  and  N_18 
REMARK    8  A    between atoms: N_18  and  N_19 
REMARK    9  A    between atoms: C_20  and  C_21 
REMARK   10  A    between atoms: C_25  and  O_26 
REMARK   11  A    between atoms: C_27  and  O_28 
ROOT
HETATM    1  C   UNL     1       8.346  24.317  55.799  1.00  0.00     0.112 A 
HETATM    2  N   UNL     1       8.776  24.840  56.977  1.00  0.00    -0.160 NA
HETATM    3  N   UNL     1       8.157  25.991  57.168  1.00  0.00     0.012 NA
HETATM    4  N   UNL     1       7.318  26.239  56.118  1.00  0.00    -0.207 N 
HETATM    5  C   UNL     1       7.396  25.159  55.251  1.00  0.00     0.153 A 
ENDROOT
BRANCH   5   6
HETATM    6  C   UNL     1       6.752  24.982  53.985  1.00  0.00     0.292 C 
HETATM    7  N   UNL     1       7.333  25.684  52.937  1.00  0.00    -0.242 N 
HETATM    8  H   UNL     1       8.050  26.374  53.141  1.00  0.00     0.192 HD
HETATM    9  O   UNL     1       5.670  24.404  53.928  1.00  0.00    -0.264 OA
BRANCH   7  10
HETATM   10  N   UNL     1       6.669  25.930  51.759  1.00  0.00    -0.184 NA
HETATM   11  C   UNL     1       5.796  26.891  51.793  1.00  0.00     0.150 C 
BRANCH  11  12
HETATM   12  C   UNL     1       5.034  27.309  50.599  1.00  0.00    -0.013 A 
HETATM   13  C   UNL     1       4.497  28.599  50.582  1.00  0.00     0.035 A 
HETATM   14  C   UNL     1       3.766  29.018  49.473  1.00  0.00     0.047 A 
HETATM   15 BR   UNL     1       3.030  30.765  49.471  1.00  0.00    -0.048 Br
HETATM   16  C   UNL     1       3.582  28.160  48.385  1.00  0.00     0.116 A 
HETATM   17  C   UNL     1       4.130  26.867  48.393  1.00  0.00     0.103 A 
HETATM   18  C   UNL     1       4.854  26.444  49.511  1.00  0.00     0.052 A 
BRANCH  16  19
HETATM   19  O   UNL     1       2.863  28.560  47.287  1.00  0.00    -0.357 OA
HETATM   20  H   UNL     1       2.075  27.992  47.215  1.00  0.00     0.218 HD
ENDBRANCH  16  19
BRANCH  17  21
HETATM   21  O   UNL     1       3.899  26.112  47.274  1.00  0.00    -0.353 OA
HETATM   22  C   UNL     1       2.924  25.083  47.354  1.00  0.00     0.210 C 
ENDBRANCH  17  21
ENDBRANCH  11  12
ENDBRANCH   7  10
ENDBRANCH   5   6
BRANCH   1  23
HETATM   23  C   UNL     1       8.840  23.018  55.254  1.00  0.00     0.297 C 
BRANCH  23  24
HETATM   24  N   UNL     1       7.832  22.024  54.692  1.00  0.00    -0.066 N 
HETATM   25  H   UNL     1       6.912  22.456  54.845  1.00  0.00     0.280 HD
BRANCH  24  26
HETATM   26  C   UNL     1       7.776  20.684  55.404  1.00  0.00     0.231 C 
HETATM   27  C   UNL     1       8.717  20.629  56.593  1.00  0.00     0.034 C 
ENDBRANCH  24  26
BRANCH  24  28
HETATM   28  C   UNL     1       7.959  21.824  53.191  1.00  0.00     0.231 C 
HETATM   29  C   UNL     1       8.379  20.403  52.860  1.00  0.00     0.034 C 
ENDBRANCH  24  28
ENDBRANCH  23  24
ENDBRANCH   1  23
BRANCH   4  30
HETATM   30  C   UNL     1       6.562  27.425  56.006  1.00  0.00     0.225 A 
HETATM   31  N   UNL     1       7.127  28.537  55.535  1.00  0.00    -0.081 NA
HETATM   32  O   UNL     1       6.094  29.475  55.564  1.00  0.00    -0.103 OA
HETATM   33  N   UNL     1       4.922  28.917  56.060  1.00  0.00    -0.083 NA
HETATM   34  C   UNL     1       5.213  27.647  56.335  1.00  0.00     0.201 A 
BRANCH  34  35
HETATM   35  N   UNL     1       4.340  26.762  56.844  1.00  0.00    -0.379 N 
HETATM   36  H   UNL     1       3.596  26.399  56.254  1.00  0.00     0.158 HD
HETATM   37  H   UNL     1       4.195  26.627  57.842  1.00  0.00     0.158 HD
ENDBRANCH  34  35
ENDBRANCH   4  30
TORSDOF 11
ENDMDL
MODEL 3
REMARK VINA RESULT:      -8.1      3.865      8.796
REMARK  11 active torsions:
REMARK  status: ('A' for Active; 'I' for Inactive)
REMARK    1  A    between atoms: C_2  and  N_3 
REMARK    2  A    between atoms: N_3  and  C_5 
REMARK    3  A    between atoms: N_3  and  C_32 
REMARK    4  A    between atoms: C_5  and  C_6 
REMARK    5  A    between atoms: N_9  and  C_10 
REMARK    6  A    between atoms: C_14  and  N_15 
REMARK    7  A    between atoms: C_16  and  C_17 
REMARK       I    between atoms: C_17  and  N_18 
REMARK    8  A    between atoms: N_18  and  N_19 
REMARK    9  A    between atoms: C_20  and  C_21 
REMARK   10  A    between atoms: C_25  and  O_26 
REMARK   11  A    between atoms: C_27  and  O_28 
ROOT
HETATM    1  C   UNL     1       3.301  29.641  51.786  1.00  0.00     0.112 A 
HETATM    2  N   UNL     1       2.555  30.253  50.828  1.00  0.00    -0.160 NA
HETATM    3  N   UNL     1       2.845  29.701  49.663  1.00  0.00     0.012 NA
HETATM    4  N   UNL     1       3.785  28.724  49.842  1.00  0.00    -0.207 N 
HETATM    5  C   UNL     1       4.061  28.645  51.199  1.00  0.00     0.153 A 
ENDROOT
BRANCH   5   6
HETATM    6  C   UNL     1       5.018  27.819  51.869  1.00  0.00     0.292 C 
HETATM    7  N   UNL     1       4.546  26.565  52.233  1.00  0.00    -0.242 N 
HETATM    8  H   UNL     1       3.553  26.367  52.151  1.00  0.00     0.192 HD
HETATM    9  O   UNL     1       6.086  28.300  52.237  1.00  0.00    -0.264 OA
BRANCH   7  10
HETATM   10  N   UNL     1       5.173  25.789  53.179  1.00  0.00    -0.184 NA
HETATM   11  C   UNL     1       5.954  24.859  52.719  1.00  0.00     0.150 C 
BRANCH  11  12
HETATM   12  C   UNL     1       6.736  23.974  53.605  1.00  0.00    -0.013 A 
HETATM   13  C   UNL     1       7.269  22.803  53.059  1.00  0.00     0.035 A 
HETATM   14  C   UNL     1       8.003  21.944  53.874  1.00  0.00     0.047 A 
HETATM   15 BR   UNL     1       8.704  20.351  53.122  1.00  0.00    -0.048 Br
HETATM   16  C   UNL     1       8.214  22.258  55.219  1.00  0.00     0.116 A 
HETATM   17  C   UNL     1       7.691  23.439  55.769  1.00  0.00     0.103 A 
HETATM   18  C   UNL     1       6.945  24.295  54.953  1.00  0.00     0.052 A 
BRANCH  16  19
HETATM   19  O   UNL     1       8.934  21.419  56.032  1.00  0.00    -0.357 OA
HETATM   20  H   UNL     1       9.236  21.929  56.805  1.00  0.00     0.218 HD
ENDBRANCH  16  19
BRANCH  17  21
HETATM   21  O   UNL     1       7.964  23.655  57.093  1.00  0.00    -0.353 OA
HETATM   22  C   UNL     1       8.651  24.846  57.446  1.00  0.00     0.210 C 
ENDBRANCH  17  21
ENDBRANCH  11  12
ENDBRANCH   7  10
ENDBRANCH   5   6
BRANCH   1  23
HETATM   23  C   UNL     1       3.241  30.013  53.230  1.00  0.00     0.297 C 
BRANCH  23  24
HETATM   24  N   UNL     1       4.464  30.647  53.879  1.00  0.00    -0.066 N 
HETATM   25  H   UNL     1       5.221  30.541  53.192  1.00  0.00     0.280 HD
BRANCH  24  26
HETATM   26  C   UNL     1       4.959  29.959  55.139  1.00  0.00     0.231 C 
HETATM   27  C   UNL     1       4.213  28.667  55.415  1.00  0.00     0.034 C 
ENDBRANCH  24  26
BRANCH  24  28
HETATM   28  C   UNL     1       4.313  32.141  54.112  1.00  0.00     0.231 C 
HETATM   29  C   UNL     1       3.893  32.434  55.542  1.00  0.00     0.034 C 
ENDBRANCH  24  28
ENDBRANCH  23  24
ENDBRANCH   1  23
BRANCH   4  30
HETATM   30  C   UNL     1       4.341  27.994  48.770  1.00  0.00     0.225 A 
HETATM   31  N   UNL     1       5.319  28.524  48.035  1.00  0.00    -0.081 NA
HETATM   32  O   UNL     1       5.610  27.530  47.099  1.00  0.00    -0.103 OA
HETATM   33  N   UNL     1       4.797  26.417  47.279  1.00  0.00    -0.083 NA
HETATM   34  C   UNL     1       4.011  26.706  48.314  1.00  0.00     0.201 A 
BRANCH  34  35
HETATM   35  N   UNL     1       3.070  25.882  48.804  1.00  0.00    -0.379 N 
HETATM   36  H   UNL     1       2.988  24.939  48.429  1.00  0.00     0.158 HD
HETATM   37  H   UNL     1       2.259  26.203  49.328  1.00  0.00     0.158 HD
ENDBRANCH  34  35
ENDBRANCH   4  30
TORSDOF 11
ENDMDL
MODEL 4
REMARK VINA RESULT:      -8.1      1.842      2.559
REMARK  11 active torsions:
REMARK  status: ('A' for Active; 'I' for Inactive)
REMARK    1  A    between atoms: C_2  and  N_3 
REMARK    2  A    between atoms: N_3  and  C_5 
REMARK    3  A    between atoms: N_3  and  C_32 
REMARK    4  A    between atoms: C_5  and  C_6 
REMARK    5  A    between atoms: N_9  and  C_10 
REMARK    6  A    between atoms: C_14  and  N_15 
REMARK    7  A    between atoms: C_16  and  C_17 
REMARK       I    between atoms: C_17  and  N_18 
REMARK    8  A    between atoms: N_18  and  N_19 
REMARK    9  A    between atoms: C_20  and  C_21 
REMARK   10  A    between atoms: C_25  and  O_26 
REMARK   11  A    between atoms: C_27  and  O_28 
ROOT
HETATM    1  C   UNL     1       7.311  25.676  55.888  1.00  0.00     0.112 A 
HETATM    2  N   UNL     1       7.652  25.282  57.144  1.00  0.00    -0.160 NA
HETATM    3  N   UNL     1       7.995  26.354  57.834  1.00  0.00     0.012 NA
HETATM    4  N   UNL     1       7.887  27.462  57.041  1.00  0.00    -0.207 N 
HETATM    5  C   UNL     1       7.413  27.053  55.803  1.00  0.00     0.153 A 
ENDROOT
BRANCH   5   6
HETATM    6  C   UNL     1       7.196  27.836  54.626  1.00  0.00     0.292 C 
HETATM    7  N   UNL     1       5.863  27.978  54.263  1.00  0.00    -0.242 N 
HETATM    8  H   UNL     1       5.159  27.418  54.734  1.00  0.00     0.192 HD
HETATM    9  O   UNL     1       8.152  28.165  53.928  1.00  0.00    -0.264 OA
BRANCH   7  10
HETATM   10  N   UNL     1       5.482  28.370  53.001  1.00  0.00    -0.184 NA
HETATM   11  C   UNL     1       5.110  27.416  52.203  1.00  0.00     0.150 C 
BRANCH  11  12
HETATM   12  C   UNL     1       4.627  27.677  50.831  1.00  0.00    -0.013 A 
HETATM   13  C   UNL     1       4.177  28.965  50.528  1.00  0.00     0.035 A 
HETATM   14  C   UNL     1       3.707  29.237  49.245  1.00  0.00     0.047 A 
HETATM   15 BR   UNL     1       3.083  30.984  48.854  1.00  0.00    -0.048 Br
HETATM   16  C   UNL     1       3.698  28.236  48.270  1.00  0.00     0.116 A 
HETATM   17  C   UNL     1       4.161  26.945  48.567  1.00  0.00     0.103 A 
HETATM   18  C   UNL     1       4.622  26.669  49.858  1.00  0.00     0.052 A 
BRANCH  16  19
HETATM   19  O   UNL     1       3.237  28.492  47.003  1.00  0.00    -0.357 OA
HETATM   20  H   UNL     1       4.001  28.525  46.401  1.00  0.00     0.218 HD
ENDBRANCH  16  19
BRANCH  17  21
HETATM   21  O   UNL     1       4.118  26.042  47.538  1.00  0.00    -0.353 OA
HETATM   22  C   UNL     1       3.075  25.077  47.541  1.00  0.00     0.210 C 
ENDBRANCH  17  21
ENDBRANCH  11  12
ENDBRANCH   7  10
ENDBRANCH   5   6
BRANCH   1  23
HETATM   23  C   UNL     1       6.875  24.724  54.824  1.00  0.00     0.297 C 
BRANCH  23  24
HETATM   24  N   UNL     1       7.879  23.719  54.278  1.00  0.00    -0.066 N 
HETATM   25  H   UNL     1       8.796  24.048  54.603  1.00  0.00     0.280 HD
BRANCH  24  26
HETATM   26  C   UNL     1       7.982  23.661  52.763  1.00  0.00     0.231 C 
HETATM   27  C   UNL     1       7.864  25.036  52.130  1.00  0.00     0.034 C 
ENDBRANCH  24  26
BRANCH  24  28
HETATM   28  C   UNL     1       7.704  22.323  54.852  1.00  0.00     0.231 C 
HETATM   29  C   UNL     1       8.078  21.259  53.835  1.00  0.00     0.034 C 
ENDBRANCH  24  28
ENDBRANCH  23  24
ENDBRANCH   1  23
BRANCH   4  30
HETATM   30  C   UNL     1       8.244  28.755  57.480  1.00  0.00     0.225 A 
HETATM   31  N   UNL     1       9.525  29.125  57.499  1.00  0.00    -0.081 NA
HETATM   32  O   UNL     1       9.486  30.438  57.975  1.00  0.00    -0.103 OA
HETATM   33  N   UNL     1       8.182  30.837  58.242  1.00  0.00    -0.083 NA
HETATM   34  C   UNL     1       7.414  29.793  57.937  1.00  0.00     0.201 A 
BRANCH  34  35
HETATM   35  N   UNL     1       6.076  29.774  58.064  1.00  0.00    -0.379 N 
HETATM   36  H   UNL     1       5.592  28.881  58.121  1.00  0.00     0.158 HD
HETATM   37  H   UNL     1       5.480  30.566  57.840  1.00  0.00     0.158 HD
ENDBRANCH  34  35
ENDBRANCH   4  30
TORSDOF 11
ENDMDL
MODEL 5
REMARK VINA RESULT:      -8.0      2.055      5.338
REMARK  11 active torsions:
REMARK  status: ('A' for Active; 'I' for Inactive)
REMARK    1  A    between atoms: C_2  and  N_3 
REMARK    2  A    between atoms: N_3  and  C_5 
REMARK    3  A    between atoms: N_3  and  C_32 
REMARK    4  A    between atoms: C_5  and  C_6 
REMARK    5  A    between atoms: N_9  and  C_10 
REMARK    6  A    between atoms: C_14  and  N_15 
REMARK    7  A    between atoms: C_16  and  C_17 
REMARK       I    between atoms: C_17  and  N_18 
REMARK    8  A    between atoms: N_18  and  N_19 
REMARK    9  A    between atoms: C_20  and  C_21 
REMARK   10  A    between atoms: C_25  and  O_26 
REMARK   11  A    between atoms: C_27  and  O_28 
ROOT
HETATM    1  C   UNL     1       7.907  25.497  56.678  1.00  0.00     0.112 A 
HETATM    2  N   UNL     1       8.828  24.725  57.315  1.00  0.00    -0.160 NA
HETATM    3  N   UNL     1       8.977  23.607  56.627  1.00  0.00     0.012 NA
HETATM    4  N   UNL     1       8.155  23.630  55.534  1.00  0.00    -0.207 N 
HETATM    5  C   UNL     1       7.492  24.848  55.528  1.00  0.00     0.153 A 
ENDROOT
BRANCH   5   6
HETATM    6  C   UNL     1       6.487  25.314  54.623  1.00  0.00     0.292 C 
HETATM    7  N   UNL     1       6.977  25.848  53.438  1.00  0.00    -0.242 N 
HETATM    8  H   UNL     1       7.974  26.016  53.346  1.00  0.00     0.192 HD
HETATM    9  O   UNL     1       5.319  25.390  54.996  1.00  0.00    -0.264 OA
BRANCH   7  10
HETATM   10  N   UNL     1       6.218  26.656  52.626  1.00  0.00    -0.184 NA
HETATM   11  C   UNL     1       5.804  26.117  51.520  1.00  0.00     0.150 C 
BRANCH  11  12
HETATM   12  C   UNL     1       4.940  26.838  50.564  1.00  0.00    -0.013 A 
HETATM   13  C   UNL     1       4.364  28.042  50.978  1.00  0.00     0.035 A 
HETATM   14  C   UNL     1       3.536  28.738  50.100  1.00  0.00     0.047 A 
HETATM   15 BR   UNL     1       2.749  30.361  50.683  1.00  0.00    -0.048 Br
HETATM   16  C   UNL     1       3.296  28.243  48.816  1.00  0.00     0.116 A 
HETATM   17  C   UNL     1       3.882  27.041  48.391  1.00  0.00     0.103 A 
HETATM   18  C   UNL     1       4.704  26.336  49.276  1.00  0.00     0.052 A 
BRANCH  16  19
HETATM   19  O   UNL     1       2.482  28.920  47.942  1.00  0.00    -0.357 OA
HETATM   20  H   UNL     1       2.407  28.394  47.126  1.00  0.00     0.218 HD
ENDBRANCH  16  19
BRANCH  17  21
HETATM   21  O   UNL     1       3.588  26.650  47.112  1.00  0.00    -0.353 OA
HETATM   22  C   UNL     1       2.764  25.507  46.936  1.00  0.00     0.210 C 
ENDBRANCH  17  21
ENDBRANCH  11  12
ENDBRANCH   7  10
ENDBRANCH   5   6
BRANCH   1  23
HETATM   23  C   UNL     1       7.480  26.837  57.177  1.00  0.00     0.297 C 
BRANCH  23  24
HETATM   24  N   UNL     1       8.027  28.085  56.497  1.00  0.00    -0.066 N 
HETATM   25  H   UNL     1       8.708  27.742  55.809  1.00  0.00     0.280 HD
BRANCH  24  26
HETATM   26  C   UNL     1       8.802  29.028  57.400  1.00  0.00     0.231 C 
HETATM   27  C   UNL     1      10.233  29.220  56.931  1.00  0.00     0.034 C 
ENDBRANCH  24  26
BRANCH  24  28
HETATM   28  C   UNL     1       6.977  28.848  55.707  1.00  0.00     0.231 C 
HETATM   29  C   UNL     1       6.418  30.007  56.514  1.00  0.00     0.034 C 
ENDBRANCH  24  28
ENDBRANCH  23  24
ENDBRANCH   1  23
BRANCH   4  30
HETATM   30  C   UNL     1       8.046  22.547  54.636  1.00  0.00     0.225 A 
HETATM   31  N   UNL     1       8.110  22.758  53.321  1.00  0.00    -0.081 NA
HETATM   32  O   UNL     1       7.975  21.482  52.771  1.00  0.00    -0.103 OA
HETATM   33  N   UNL     1       7.824  20.520  53.762  1.00  0.00    -0.083 NA
HETATM   34  C   UNL     1       7.868  21.182  54.918  1.00  0.00     0.201 A 
BRANCH  34  35
HETATM   35  N   UNL     1       7.751  20.604  56.126  1.00  0.00    -0.379 N 
HETATM   36  H   UNL     1       8.553  20.588  56.751  1.00  0.00     0.158 HD
HETATM   37  H   UNL     1       7.012  19.948  56.365  1.00  0.00     0.158 HD
ENDBRANCH  34  35
ENDBRANCH   4  30
TORSDOF 11
ENDMDL
MODEL 6
REMARK VINA RESULT:      -8.0      1.571      4.963
REMARK  11 active torsions:
REMARK  status: ('A' for Active; 'I' for Inactive)
REMARK    1  A    between atoms: C_2  and  N_3 
REMARK    2  A    between atoms: N_3  and  C_5 
REMARK    3  A    between atoms: N_3  and  C_32 
REMARK    4  A    between atoms: C_5  and  C_6 
REMARK    5  A    between atoms: N_9  and  C_10 
REMARK    6  A    between atoms: C_14  and  N_15 
REMARK    7  A    between atoms: C_16  and  C_17 
REMARK       I    between atoms: C_17  and  N_18 
REMARK    8  A    between atoms: N_18  and  N_19 
REMARK    9  A    between atoms: C_20  and  C_21 
REMARK   10  A    between atoms: C_25  and  O_26 
REMARK   11  A    between atoms: C_27  and  O_28 
ROOT
HETATM    1  C   UNL     1       7.916  25.513  56.847  1.00  0.00     0.112 A 
HETATM    2  N   UNL     1       8.735  24.700  57.566  1.00  0.00    -0.160 NA
HETATM    3  N   UNL     1       8.833  23.545  56.932  1.00  0.00     0.012 NA
HETATM    4  N   UNL     1       8.077  23.584  55.794  1.00  0.00    -0.207 N 
HETATM    5  C   UNL     1       7.514  24.848  55.701  1.00  0.00     0.153 A 
ENDROOT
BRANCH   5   6
HETATM    6  C   UNL     1       6.600  25.350  54.721  1.00  0.00     0.292 C 
HETATM    7  N   UNL     1       7.199  25.835  53.566  1.00  0.00    -0.242 N 
HETATM    8  H   UNL     1       8.208  25.948  53.541  1.00  0.00     0.192 HD
HETATM    9  O   UNL     1       5.416  25.495  55.012  1.00  0.00    -0.264 OA
BRANCH   7  10
HETATM   10  N   UNL     1       6.543  26.668  52.691  1.00  0.00    -0.184 NA
HETATM   11  C   UNL     1       6.085  26.106  51.614  1.00  0.00     0.150 C 
BRANCH  11  12
HETATM   12  C   UNL     1       5.316  26.854  50.599  1.00  0.00    -0.013 A 
HETATM   13  C   UNL     1       4.579  26.124  49.663  1.00  0.00     0.035 A 
HETATM   14  C   UNL     1       3.852  26.803  48.688  1.00  0.00     0.047 A 
HETATM   15 BR   UNL     1       2.872  25.797  47.414  1.00  0.00    -0.048 Br
HETATM   16  C   UNL     1       3.850  28.200  48.656  1.00  0.00     0.116 A 
HETATM   17  C   UNL     1       4.578  28.938  49.601  1.00  0.00     0.103 A 
HETATM   18  C   UNL     1       5.317  28.256  50.573  1.00  0.00     0.052 A 
BRANCH  16  19
HETATM   19  O   UNL     1       3.138  28.880  47.700  1.00  0.00    -0.357 OA
HETATM   20  H   UNL     1       2.680  29.623  48.131  1.00  0.00     0.218 HD
ENDBRANCH  16  19
BRANCH  17  21
HETATM   21  O   UNL     1       4.501  30.301  49.486  1.00  0.00    -0.353 OA
HETATM   22  C   UNL     1       5.637  31.067  49.860  1.00  0.00     0.210 C 
ENDBRANCH  17  21
ENDBRANCH  11  12
ENDBRANCH   7  10
ENDBRANCH   5   6
BRANCH   1  23
HETATM   23  C   UNL     1       7.570  26.902  57.267  1.00  0.00     0.297 C 
BRANCH  23  24
HETATM   24  N   UNL     1       8.261  28.073  56.581  1.00  0.00    -0.066 N 
HETATM   25  H   UNL     1       8.964  27.648  55.963  1.00  0.00     0.280 HD
BRANCH  24  26
HETATM   26  C   UNL     1       9.037  28.998  57.502  1.00  0.00     0.231 C 
HETATM   27  C   UNL     1      10.363  29.424  56.899  1.00  0.00     0.034 C 
ENDBRANCH  24  26
BRANCH  24  28
HETATM   28  C   UNL     1       7.335  28.872  55.680  1.00  0.00     0.231 C 
HETATM   29  C   UNL     1       6.485  29.839  56.485  1.00  0.00     0.034 C 
ENDBRANCH  24  28
ENDBRANCH  23  24
ENDBRANCH   1  23
BRANCH   4  30
HETATM   30  C   UNL     1       7.931  22.474  54.935  1.00  0.00     0.225 A 
HETATM   31  N   UNL     1       7.798  22.658  53.621  1.00  0.00    -0.081 NA
HETATM   32  O   UNL     1       7.689  21.362  53.112  1.00  0.00    -0.103 OA
HETATM   33  N   UNL     1       7.751  20.416  54.128  1.00  0.00    -0.083 NA
HETATM   34  C   UNL     1       7.900  21.106  55.257  1.00  0.00     0.201 A 
BRANCH  34  35
HETATM   35  N   UNL     1       7.995  20.552  56.477  1.00  0.00    -0.379 N 
HETATM   36  H   UNL     1       7.487  20.966  57.255  1.00  0.00     0.158 HD
HETATM   37  H   UNL     1       8.739  19.914  56.748  1.00  0.00     0.158 HD
ENDBRANCH  34  35
ENDBRANCH   4  30
TORSDOF 11
ENDMDL
MODEL 7
REMARK VINA RESULT:      -8.0      1.573      2.150
REMARK  11 active torsions:
REMARK  status: ('A' for Active; 'I' for Inactive)
REMARK    1  A    between atoms: C_2  and  N_3 
REMARK    2  A    between atoms: N_3  and  C_5 
REMARK    3  A    between atoms: N_3  and  C_32 
REMARK    4  A    between atoms: C_5  and  C_6 
REMARK    5  A    between atoms: N_9  and  C_10 
REMARK    6  A    between atoms: C_14  and  N_15 
REMARK    7  A    between atoms: C_16  and  C_17 
REMARK       I    between atoms: C_17  and  N_18 
REMARK    8  A    between atoms: N_18  and  N_19 
REMARK    9  A    between atoms: C_20  and  C_21 
REMARK   10  A    between atoms: C_25  and  O_26 
REMARK   11  A    between atoms: C_27  and  O_28 
ROOT
HETATM    1  C   UNL     1       7.428  25.923  56.052  1.00  0.00     0.112 A 
HETATM    2  N   UNL     1       7.718  25.490  57.308  1.00  0.00    -0.160 NA
HETATM    3  N   UNL     1       8.112  26.529  58.022  1.00  0.00     0.012 NA
HETATM    4  N   UNL     1       8.089  27.653  57.245  1.00  0.00    -0.207 N 
HETATM    5  C   UNL     1       7.616  27.292  55.992  1.00  0.00     0.153 A 
ENDROOT
BRANCH   5   6
HETATM    6  C   UNL     1       7.470  28.105  54.823  1.00  0.00     0.292 C 
HETATM    7  N   UNL     1       6.159  28.285  54.403  1.00  0.00    -0.242 N 
HETATM    8  H   UNL     1       5.422  27.732  54.829  1.00  0.00     0.192 HD
HETATM    9  O   UNL     1       8.465  28.426  54.178  1.00  0.00    -0.264 OA
BRANCH   7  10
HETATM   10  N   UNL     1       5.846  28.712  53.134  1.00  0.00    -0.184 NA
HETATM   11  C   UNL     1       5.544  27.779  52.283  1.00  0.00     0.150 C 
BRANCH  11  12
HETATM   12  C   UNL     1       5.138  28.078  50.895  1.00  0.00    -0.013 A 
HETATM   13  C   UNL     1       4.605  27.038  50.128  1.00  0.00     0.035 A 
HETATM   14  C   UNL     1       4.223  27.288  48.813  1.00  0.00     0.047 A 
HETATM   15 BR   UNL     1       3.518  25.862  47.781  1.00  0.00    -0.048 Br
HETATM   16  C   UNL     1       4.360  28.569  48.270  1.00  0.00     0.116 A 
HETATM   17  C   UNL     1       4.884  29.619  49.040  1.00  0.00     0.103 A 
HETATM   18  C   UNL     1       5.277  29.365  50.357  1.00  0.00     0.052 A 
BRANCH  16  19
HETATM   19  O   UNL     1       3.988  28.827  46.975  1.00  0.00    -0.357 OA
HETATM   20  H   UNL     1       3.016  28.792  46.923  1.00  0.00     0.218 HD
ENDBRANCH  16  19
BRANCH  17  21
HETATM   21  O   UNL     1       4.967  30.835  48.416  1.00  0.00    -0.353 OA
HETATM   22  C   UNL     1       5.757  31.845  49.026  1.00  0.00     0.210 C 
ENDBRANCH  17  21
ENDBRANCH  11  12
ENDBRANCH   7  10
ENDBRANCH   5   6
BRANCH   1  23
HETATM   23  C   UNL     1       6.956  25.016  54.964  1.00  0.00     0.297 C 
BRANCH  23  24
HETATM   24  N   UNL     1       7.889  23.924  54.459  1.00  0.00    -0.066 N 
HETATM   25  H   UNL     1       8.829  24.212  54.757  1.00  0.00     0.280 HD
BRANCH  24  26
HETATM   26  C   UNL     1       7.966  23.785  52.948  1.00  0.00     0.231 C 
HETATM   27  C   UNL     1       7.987  25.133  52.251  1.00  0.00     0.034 C 
ENDBRANCH  24  26
BRANCH  24  28
HETATM   28  C   UNL     1       7.636  22.572  55.106  1.00  0.00     0.231 C 
HETATM   29  C   UNL     1       7.884  21.440  54.125  1.00  0.00     0.034 C 
ENDBRANCH  24  28
ENDBRANCH  23  24
ENDBRANCH   1  23
BRANCH   4  30
HETATM   30  C   UNL     1       8.515  28.914  57.712  1.00  0.00     0.225 A 
HETATM   31  N   UNL     1       7.803  29.561  58.636  1.00  0.00    -0.081 NA
HETATM   32  O   UNL     1       8.522  30.739  58.847  1.00  0.00    -0.103 OA
HETATM   33  N   UNL     1       9.653  30.790  58.042  1.00  0.00    -0.083 NA
HETATM   34  C   UNL     1       9.647  29.659  57.337  1.00  0.00     0.201 A 
BRANCH  34  35
HETATM   35  N   UNL     1      10.580  29.327  56.430  1.00  0.00    -0.379 N 
HETATM   36  H   UNL     1      10.302  29.167  55.464  1.00  0.00     0.158 HD
HETATM   37  H   UNL     1      11.496  28.960  56.675  1.00  0.00     0.158 HD
ENDBRANCH  34  35
ENDBRANCH   4  30
TORSDOF 11
ENDMDL
MODEL 8
REMARK VINA RESULT:      -7.7      3.849      7.598
REMARK  11 active torsions:
REMARK  status: ('A' for Active; 'I' for Inactive)
REMARK    1  A    between atoms: C_2  and  N_3 
REMARK    2  A    between atoms: N_3  and  C_5 
REMARK    3  A    between atoms: N_3  and  C_32 
REMARK    4  A    between atoms: C_5  and  C_6 
REMARK    5  A    between atoms: N_9  and  C_10 
REMARK    6  A    between atoms: C_14  and  N_15 
REMARK    7  A    between atoms: C_16  and  C_17 
REMARK       I    between atoms: C_17  and  N_18 
REMARK    8  A    between atoms: N_18  and  N_19 
REMARK    9  A    between atoms: C_20  and  C_21 
REMARK   10  A    between atoms: C_25  and  O_26 
REMARK   11  A    between atoms: C_27  and  O_28 
ROOT
HETATM    1  C   UNL     1       7.751  24.733  53.822  1.00  0.00     0.112 A 
HETATM    2  N   UNL     1       7.934  24.350  52.530  1.00  0.00    -0.160 NA
HETATM    3  N   UNL     1       7.298  25.205  51.751  1.00  0.00     0.012 NA
HETATM    4  N   UNL     1       6.687  26.157  52.520  1.00  0.00    -0.207 N 
HETATM    5  C   UNL     1       6.998  25.894  53.845  1.00  0.00     0.153 A 
ENDROOT
BRANCH   5   6
HETATM    6  C   UNL     1       6.545  26.572  55.021  1.00  0.00     0.292 C 
HETATM    7  N   UNL     1       7.223  27.750  55.307  1.00  0.00    -0.242 N 
HETATM    8  H   UNL     1       8.064  27.976  54.785  1.00  0.00     0.192 HD
HETATM    9  O   UNL     1       5.756  26.015  55.779  1.00  0.00    -0.264 OA
BRANCH   7  10
HETATM   10  N   UNL     1       7.187  28.335  56.550  1.00  0.00    -0.184 NA
HETATM   11  C   UNL     1       7.169  29.634  56.562  1.00  0.00     0.150 C 
BRANCH  11  12
HETATM   12  C   UNL     1       7.082  30.411  57.814  1.00  0.00    -0.013 A 
HETATM   13  C   UNL     1       8.056  30.193  58.793  1.00  0.00     0.035 A 
HETATM   14  C   UNL     1       7.993  30.905  59.988  1.00  0.00     0.047 A 
HETATM   15 BR   UNL     1       9.311  30.583  61.312  1.00  0.00    -0.048 Br
HETATM   16  C   UNL     1       6.974  31.838  60.200  1.00  0.00     0.116 A 
HETATM   17  C   UNL     1       6.001  32.070  59.215  1.00  0.00     0.103 A 
HETATM   18  C   UNL     1       6.058  31.346  58.020  1.00  0.00     0.052 A 
BRANCH  16  19
HETATM   19  O   UNL     1       6.901  32.545  61.373  1.00  0.00    -0.357 OA
HETATM   20  H   UNL     1       5.972  32.796  61.521  1.00  0.00     0.218 HD
ENDBRANCH  16  19
BRANCH  17  21
HETATM   21  O   UNL     1       5.053  33.011  59.519  1.00  0.00    -0.353 OA
HETATM   22  C   UNL     1       3.691  32.610  59.514  1.00  0.00     0.210 C 
ENDBRANCH  17  21
ENDBRANCH  11  12
ENDBRANCH   7  10
ENDBRANCH   5   6
BRANCH   1  23
HETATM   23  C   UNL     1       8.325  23.992  54.983  1.00  0.00     0.297 C 
BRANCH  23  24
HETATM   24  N   UNL     1       8.166  22.478  55.041  1.00  0.00    -0.066 N 
HETATM   25  H   UNL     1       7.200  22.295  54.742  1.00  0.00     0.280 HD
BRANCH  24  26
HETATM   26  C   UNL     1       8.285  21.866  56.426  1.00  0.00     0.231 C 
HETATM   27  C   UNL     1       7.957  20.384  56.426  1.00  0.00     0.034 C 
ENDBRANCH  24  26
BRANCH  24  28
HETATM   28  C   UNL     1       9.059  21.743  54.056  1.00  0.00     0.231 C 
HETATM   29  C   UNL     1       8.237  20.923  53.077  1.00  0.00     0.034 C 
ENDBRANCH  24  28
ENDBRANCH  23  24
ENDBRANCH   1  23
BRANCH   4  30
HETATM   30  C   UNL     1       5.877  27.176  51.974  1.00  0.00     0.225 A 
HETATM   31  N   UNL     1       5.994  28.430  52.414  1.00  0.00    -0.081 NA
HETATM   32  O   UNL     1       5.061  29.138  51.654  1.00  0.00    -0.103 OA
HETATM   33  N   UNL     1       4.389  28.299  50.773  1.00  0.00    -0.083 NA
HETATM   34  C   UNL     1       4.895  27.083  50.973  1.00  0.00     0.201 A 
BRANCH  34  35
HETATM   35  N   UNL     1       4.502  25.981  50.313  1.00  0.00    -0.379 N 
HETATM   36  H   UNL     1       4.148  25.184  50.838  1.00  0.00     0.158 HD
HETATM   37  H   UNL     1       4.777  25.771  49.357  1.00  0.00     0.158 HD
ENDBRANCH  34  35
ENDBRANCH   4  30
TORSDOF 11
ENDMDL
MODEL 9
REMARK VINA RESULT:      -7.4      6.208      9.403
REMARK  11 active torsions:
REMARK  status: ('A' for Active; 'I' for Inactive)
REMARK    1  A    between atoms: C_2  and  N_3 
REMARK    2  A    between atoms: N_3  and  C_5 
REMARK    3  A    between atoms: N_3  and  C_32 
REMARK    4  A    between atoms: C_5  and  C_6 
REMARK    5  A    between atoms: N_9  and  C_10 
REMARK    6  A    between atoms: C_14  and  N_15 
REMARK    7  A    between atoms: C_16  and  C_17 
REMARK       I    between atoms: C_17  and  N_18 
REMARK    8  A    between atoms: N_18  and  N_19 
REMARK    9  A    between atoms: C_20  and  C_21 
REMARK   10  A    between atoms: C_25  and  O_26 
REMARK   11  A    between atoms: C_27  and  O_28 
ROOT
HETATM    1  C   UNL     1       4.399  32.600  62.420  1.00  0.00     0.112 A 
HETATM    2  N   UNL     1       3.664  33.212  63.386  1.00  0.00    -0.160 NA
HETATM    3  N   UNL     1       2.667  33.854  62.802  1.00  0.00     0.012 NA
HETATM    4  N   UNL     1       2.739  33.674  61.448  1.00  0.00    -0.207 N 
HETATM    5  C   UNL     1       3.818  32.842  61.188  1.00  0.00     0.153 A 
ENDROOT
BRANCH   5   6
HETATM    6  C   UNL     1       4.333  32.416  59.923  1.00  0.00     0.292 C 
HETATM    7  N   UNL     1       3.621  31.382  59.327  1.00  0.00    -0.242 N 
HETATM    8  H   UNL     1       2.905  30.901  59.863  1.00  0.00     0.192 HD
HETATM    9  O   UNL     1       5.423  32.830  59.539  1.00  0.00    -0.264 OA
BRANCH   7  10
HETATM   10  N   UNL     1       4.151  30.610  58.321  1.00  0.00    -0.184 NA
HETATM   11  C   UNL     1       3.431  30.516  57.244  1.00  0.00     0.150 C 
BRANCH  11  12
HETATM   12  C   UNL     1       3.882  29.763  56.056  1.00  0.00    -0.013 A 
HETATM   13  C   UNL     1       4.479  28.516  56.256  1.00  0.00     0.035 A 
HETATM   14  C   UNL     1       4.922  27.788  55.155  1.00  0.00     0.047 A 
HETATM   15 BR   UNL     1       5.746  26.106  55.444  1.00  0.00    -0.048 Br
HETATM   16  C   UNL     1       4.759  28.295  53.863  1.00  0.00     0.116 A 
HETATM   17  C   UNL     1       4.150  29.543  53.656  1.00  0.00     0.103 A 
HETATM   18  C   UNL     1       3.715  30.278  54.763  1.00  0.00     0.052 A 
BRANCH  16  19
HETATM   19  O   UNL     1       5.193  27.588  52.769  1.00  0.00    -0.357 OA
HETATM   20  H   UNL     1       4.882  28.045  51.968  1.00  0.00     0.218 HD
ENDBRANCH  16  19
BRANCH  17  21
HETATM   21  O   UNL     1       4.031  29.942  52.351  1.00  0.00    -0.353 OA
HETATM   22  C   UNL     1       3.481  31.226  52.095  1.00  0.00     0.210 C 
ENDBRANCH  17  21
ENDBRANCH  11  12
ENDBRANCH   7  10
ENDBRANCH   5   6
BRANCH   1  23
HETATM   23  C   UNL     1       5.614  31.785  62.713  1.00  0.00     0.297 C 
BRANCH  23  24
HETATM   24  N   UNL     1       6.986  32.372  62.408  1.00  0.00    -0.066 N 
HETATM   25  H   UNL     1       6.801  33.303  62.015  1.00  0.00     0.280 HD
BRANCH  24  26
HETATM   26  C   UNL     1       7.786  31.635  61.348  1.00  0.00     0.231 C 
HETATM   27  C   UNL     1       9.277  31.892  61.477  1.00  0.00     0.034 C 
ENDBRANCH  24  26
BRANCH  24  28
HETATM   28  C   UNL     1       7.831  32.598  63.651  1.00  0.00     0.231 C 
HETATM   29  C   UNL     1       7.173  33.595  64.588  1.00  0.00     0.034 C 
ENDBRANCH  24  28
ENDBRANCH  23  24
ENDBRANCH   1  23
BRANCH   4  30
HETATM   30  C   UNL     1       1.844  34.288  60.547  1.00  0.00     0.225 A 
HETATM   31  N   UNL     1       2.225  34.545  59.295  1.00  0.00    -0.081 NA
HETATM   32  O   UNL     1       1.099  35.134  58.717  1.00  0.00    -0.103 OA
HETATM   33  N   UNL     1       0.057  35.231  59.632  1.00  0.00    -0.083 NA
HETATM   34  C   UNL     1       0.520  34.708  60.766  1.00  0.00     0.201 A 
BRANCH  34  35
HETATM   35  N   UNL     1      -0.188  34.621  61.905  1.00  0.00    -0.379 N 
HETATM   36  H   UNL     1      -1.187  34.809  61.887  1.00  0.00     0.158 HD
HETATM   37  H   UNL     1       0.233  34.645  62.830  1.00  0.00     0.158 HD
ENDBRANCH  34  35
ENDBRANCH   4  30
TORSDOF 11
ENDMDL
MODEL 10
REMARK VINA RESULT:      -7.4      4.579      8.360
REMARK  11 active torsions:
REMARK  status: ('A' for Active; 'I' for Inactive)
REMARK    1  A    between atoms: C_2  and  N_3 
REMARK    2  A    between atoms: N_3  and  C_5 
REMARK    3  A    between atoms: N_3  and  C_32 
REMARK    4  A    between atoms: C_5  and  C_6 
REMARK    5  A    between atoms: N_9  and  C_10 
REMARK    6  A    between atoms: C_14  and  N_15 
REMARK    7  A    between atoms: C_16  and  C_17 
REMARK       I    between atoms: C_17  and  N_18 
REMARK    8  A    between atoms: N_18  and  N_19 
REMARK    9  A    between atoms: C_20  and  C_21 
REMARK   10  A    between atoms: C_25  and  O_26 
REMARK   11  A    between atoms: C_27  and  O_28 
ROOT
HETATM    1  C   UNL     1       5.828  32.401  60.950  1.00  0.00     0.112 A 
HETATM    2  N   UNL     1       6.780  32.475  61.919  1.00  0.00    -0.160 NA
HETATM    3  N   UNL     1       7.949  32.193  61.371  1.00  0.00     0.012 NA
HETATM    4  N   UNL     1       7.778  31.927  60.041  1.00  0.00    -0.207 N 
HETATM    5  C   UNL     1       6.434  32.094  59.745  1.00  0.00     0.153 A 
ENDROOT
BRANCH   5   6
HETATM    6  C   UNL     1       5.758  31.871  58.503  1.00  0.00     0.292 C 
HETATM    7  N   UNL     1       5.310  30.570  58.313  1.00  0.00    -0.242 N 
HETATM    8  H   UNL     1       5.606  29.846  58.960  1.00  0.00     0.192 HD
HETATM    9  O   UNL     1       5.776  32.741  57.636  1.00  0.00    -0.264 OA
BRANCH   7  10
HETATM   10  N   UNL     1       4.975  30.082  57.073  1.00  0.00    -0.184 NA
HETATM   11  C   UNL     1       5.422  28.895  56.795  1.00  0.00     0.150 C 
BRANCH  11  12
HETATM   12  C   UNL     1       5.111  28.211  55.524  1.00  0.00    -0.013 A 
HETATM   13  C   UNL     1       5.747  26.995  55.259  1.00  0.00     0.035 A 
HETATM   14  C   UNL     1       5.479  26.333  54.063  1.00  0.00     0.047 A 
HETATM   15 BR   UNL     1       6.364  24.694  53.711  1.00  0.00    -0.048 Br
HETATM   16  C   UNL     1       4.574  26.873  53.145  1.00  0.00     0.116 A 
HETATM   17  C   UNL     1       3.923  28.087  53.413  1.00  0.00     0.103 A 
HETATM   18  C   UNL     1       4.201  28.758  54.608  1.00  0.00     0.052 A 
BRANCH  16  19
HETATM   19  O   UNL     1       4.303  26.230  51.963  1.00  0.00    -0.357 OA
HETATM   20  H   UNL     1       4.849  26.633  51.265  1.00  0.00     0.218 HD
ENDBRANCH  16  19
BRANCH  17  21
HETATM   21  O   UNL     1       3.050  28.523  52.452  1.00  0.00    -0.353 OA
HETATM   22  C   UNL     1       3.303  29.779  51.841  1.00  0.00     0.210 C 
ENDBRANCH  17  21
ENDBRANCH  11  12
ENDBRANCH   7  10
ENDBRANCH   5   6
BRANCH   1  23
HETATM   23  C   UNL     1       4.380  32.652  61.208  1.00  0.00     0.297 C 
BRANCH  23  24
HETATM   24  N   UNL     1       3.908  34.085  61.418  1.00  0.00    -0.066 N 
HETATM   25  H   UNL     1       2.883  34.028  61.469  1.00  0.00     0.280 HD
BRANCH  24  26
HETATM   26  C   UNL     1       4.206  35.041  60.276  1.00  0.00     0.231 C 
HETATM   27  C   UNL     1       3.293  34.809  59.085  1.00  0.00     0.034 C 
ENDBRANCH  24  26
BRANCH  24  28
HETATM   28  C   UNL     1       4.363  34.679  62.741  1.00  0.00     0.231 C 
HETATM   29  C   UNL     1       3.290  34.532  63.806  1.00  0.00     0.034 C 
ENDBRANCH  24  28
ENDBRANCH  23  24
ENDBRANCH   1  23
BRANCH   4  30
HETATM   30  C   UNL     1       8.839  31.533  59.198  1.00  0.00     0.225 A 
HETATM   31  N   UNL     1       9.814  32.394  58.903  1.00  0.00    -0.081 NA
HETATM   32  O   UNL     1      10.666  31.663  58.073  1.00  0.00    -0.103 OA
HETATM   33  N   UNL     1      10.188  30.373  57.873  1.00  0.00    -0.083 NA
HETATM   34  C   UNL     1       9.055  30.295  58.570  1.00  0.00     0.201 A 
BRANCH  34  35
HETATM   35  N   UNL     1       8.277  29.201  58.630  1.00  0.00    -0.379 N 
HETATM   36  H   UNL     1       8.695  28.283  58.496  1.00  0.00     0.158 HD
HETATM   37  H   UNL     1       7.265  29.225  58.533  1.00  0.00     0.158 HD
ENDBRANCH  34  35
ENDBRANCH   4  30
TORSDOF 11
ENDMDL
