MODEL 1
REMARK VINA RESULT:      -9.1      0.000      0.000
REMARK  6 active torsions:
REMARK  status: ('A' for Active; 'I' for Inactive)
REMARK    1  A    between atoms: C_2  and  C_3 
REMARK    2  A    between atoms: C_2  and  C_18 
REMARK       I    between atoms: C_3  and  N_4 
REMARK    3  A    between atoms: N_4  and  C_5 
REMARK    4  A    between atoms: C_9  and  C_10 
REMARK    5  A    between atoms: C_18  and  C_19 
REMARK    6  A    between atoms: C_22  and  O_23 
ROOT
HETATM    1  C   UNL     1       6.362  26.431  54.413  1.00  0.00     0.227 C 
HETATM    2  N   UNL     1       7.444  27.274  54.622  1.00  0.00    -0.312 N 
HETATM    3  O   UNL     1       5.519  26.165  55.269  1.00  0.00    -0.273 OA
HETATM    4  H   UNL     1       8.096  27.455  53.868  1.00  0.00     0.170 HD
ENDROOT
BRANCH   2   5
HETATM    5  C   UNL     1       7.720  27.812  55.861  1.00  0.00     0.126 A 
HETATM    6  N   UNL     1       7.676  27.119  57.039  1.00  0.00    -0.262 N 
HETATM    7  H   UNL     1       7.424  26.140  57.156  1.00  0.00     0.191 HD
HETATM    8  N   UNL     1       8.033  27.850  58.107  1.00  0.00    -0.172 NA
HETATM    9  C   UNL     1       8.309  29.068  57.611  1.00  0.00     0.092 A 
HETATM   10  C   UNL     1       8.106  29.086  56.200  1.00  0.00     0.084 A 
BRANCH   9  11
HETATM   11  C   UNL     1       8.771  30.157  58.472  1.00  0.00     0.012 A 
HETATM   12  C   UNL     1       9.770  31.041  58.074  1.00  0.00     0.130 A 
HETATM   13  N   UNL     1      10.255  32.056  58.836  1.00  0.00    -0.272 NA
HETATM   14  C   UNL     1       9.713  32.200  60.063  1.00  0.00     0.116 A 
HETATM   15  C   UNL     1       8.712  31.383  60.560  1.00  0.00     0.020 A 
HETATM   16  C   UNL     1       8.237  30.351  59.751  1.00  0.00     0.017 A 
ENDBRANCH   9  11
ENDBRANCH   2   5
BRANCH   1  17
HETATM   17  C   UNL     1       6.318  25.867  52.997  1.00  0.00     0.078 C 
HETATM   18  C   UNL     1       5.152  24.883  52.875  1.00  0.00     0.020 C 
BRANCH  17  19
HETATM   19  C   UNL     1       7.665  25.214  52.637  1.00  0.00     0.052 C 
BRANCH  19  20
HETATM   20  C   UNL     1       7.850  23.874  53.312  1.00  0.00    -0.057 A 
HETATM   21  C   UNL     1       8.231  23.815  54.658  1.00  0.00     0.010 A 
HETATM   22  C   UNL     1       8.434  22.581  55.280  1.00  0.00     0.037 A 
HETATM   23  C   UNL     1       8.260  21.390  54.574  1.00  0.00     0.068 A 
HETATM   24  C   UNL     1       7.873  21.444  53.235  1.00  0.00     0.037 A 
HETATM   25  C   UNL     1       7.669  22.679  52.608  1.00  0.00     0.010 A 
BRANCH  23  26
HETATM   26  O   UNL     1       8.498  20.257  55.302  1.00  0.00    -0.356 OA
HETATM   27  C   UNL     1       8.795  20.430  56.681  1.00  0.00     0.210 C 
ENDBRANCH  23  26
ENDBRANCH  19  20
ENDBRANCH  17  19
ENDBRANCH   1  17
TORSDOF 6
ENDMDL
MODEL 2
REMARK VINA RESULT:      -9.0      3.252      9.538
REMARK  6 active torsions:
REMARK  status: ('A' for Active; 'I' for Inactive)
REMARK    1  A    between atoms: C_2  and  C_3 
REMARK    2  A    between atoms: C_2  and  C_18 
REMARK       I    between atoms: C_3  and  N_4 
REMARK    3  A    between atoms: N_4  and  C_5 
REMARK    4  A    between atoms: C_9  and  C_10 
REMARK    5  A    between atoms: C_18  and  C_19 
REMARK    6  A    between atoms: C_22  and  O_23 
ROOT
HETATM    1  C   UNL     1       7.958  28.194  57.617  1.00  0.00     0.227 C 
HETATM    2  N   UNL     1       7.078  27.131  57.472  1.00  0.00    -0.312 N 
HETATM    3  O   UNL     1       9.155  28.142  57.339  1.00  0.00    -0.273 OA
HETATM    4  H   UNL     1       6.100  27.247  57.713  1.00  0.00     0.170 HD
ENDROOT
BRANCH   2   5
HETATM    5  C   UNL     1       7.507  25.876  57.092  1.00  0.00     0.126 A 
HETATM    6  N   UNL     1       8.288  25.056  57.858  1.00  0.00    -0.262 N 
HETATM    7  H   UNL     1       8.662  25.263  58.781  1.00  0.00     0.191 HD
HETATM    8  N   UNL     1       8.533  23.863  57.290  1.00  0.00    -0.172 NA
HETATM    9  C   UNL     1       7.898  23.911  56.106  1.00  0.00     0.092 A 
HETATM   10  C   UNL     1       7.255  25.173  55.941  1.00  0.00     0.084 A 
BRANCH   9  11
HETATM   11  C   UNL     1       7.903  22.770  55.190  1.00  0.00     0.012 A 
HETATM   12  C   UNL     1       7.823  21.457  55.647  1.00  0.00     0.130 A 
HETATM   13  N   UNL     1       7.845  20.358  54.849  1.00  0.00    -0.272 NA
HETATM   14  C   UNL     1       7.950  20.578  53.522  1.00  0.00     0.116 A 
HETATM   15  C   UNL     1       8.031  21.840  52.958  1.00  0.00     0.020 A 
HETATM   16  C   UNL     1       8.006  22.946  53.807  1.00  0.00     0.017 A 
ENDBRANCH   9  11
ENDBRANCH   2   5
BRANCH   1  17
HETATM   17  C   UNL     1       7.280  29.451  58.153  1.00  0.00     0.078 C 
HETATM   18  C   UNL     1       6.151  29.866  57.207  1.00  0.00     0.020 C 
BRANCH  17  19
HETATM   19  C   UNL     1       8.313  30.576  58.348  1.00  0.00     0.052 C 
BRANCH  19  20
HETATM   20  C   UNL     1       8.264  31.163  59.739  1.00  0.00    -0.057 A 
HETATM   21  C   UNL     1       9.239  30.814  60.682  1.00  0.00     0.010 A 
HETATM   22  C   UNL     1       9.183  31.329  61.979  1.00  0.00     0.037 A 
HETATM   23  C   UNL     1       8.158  32.198  62.357  1.00  0.00     0.068 A 
HETATM   24  C   UNL     1       7.189  32.555  61.419  1.00  0.00     0.037 A 
HETATM   25  C   UNL     1       7.242  32.041  60.118  1.00  0.00     0.010 A 
BRANCH  23  26
HETATM   26  O   UNL     1       8.220  32.620  63.656  1.00  0.00    -0.356 OA
HETATM   27  C   UNL     1       7.084  33.309  64.163  1.00  0.00     0.210 C 
ENDBRANCH  23  26
ENDBRANCH  19  20
ENDBRANCH  17  19
ENDBRANCH   1  17
TORSDOF 6
ENDMDL
MODEL 3
REMARK VINA RESULT:      -8.9      3.810      6.196
REMARK  6 active torsions:
REMARK  status: ('A' for Active; 'I' for Inactive)
REMARK    1  A    between atoms: C_2  and  C_3 
REMARK    2  A    between atoms: C_2  and  C_18 
REMARK       I    between atoms: C_3  and  N_4 
REMARK    3  A    between atoms: N_4  and  C_5 
REMARK    4  A    between atoms: C_9  and  C_10 
REMARK    5  A    between atoms: C_18  and  C_19 
REMARK    6  A    between atoms: C_22  and  O_23 
ROOT
HETATM    1  C   UNL     1       9.057  30.767  58.657  1.00  0.00     0.227 C 
HETATM    2  N   UNL     1       8.128  30.312  59.581  1.00  0.00    -0.312 N 
HETATM    3  O   UNL     1       9.445  31.932  58.585  1.00  0.00    -0.273 OA
HETATM    4  H   UNL     1       7.860  29.334  59.589  1.00  0.00     0.170 HD
ENDROOT
BRANCH   2   5
HETATM    5  C   UNL     1       7.478  31.168  60.445  1.00  0.00     0.126 A 
HETATM    6  N   UNL     1       6.479  32.029  60.082  1.00  0.00    -0.262 N 
HETATM    7  H   UNL     1       6.102  32.159  59.145  1.00  0.00     0.191 HD
HETATM    8  N   UNL     1       5.969  32.725  61.111  1.00  0.00    -0.172 NA
HETATM    9  C   UNL     1       6.669  32.314  62.182  1.00  0.00     0.092 A 
HETATM   10  C   UNL     1       7.641  31.345  61.796  1.00  0.00     0.084 A 
BRANCH   9  11
HETATM   11  C   UNL     1       6.386  32.828  63.523  1.00  0.00     0.012 A 
HETATM   12  C   UNL     1       5.093  32.872  64.039  1.00  0.00     0.130 A 
HETATM   13  N   UNL     1       4.765  33.357  65.264  1.00  0.00    -0.272 NA
HETATM   14  C   UNL     1       5.782  33.823  66.020  1.00  0.00     0.116 A 
HETATM   15  C   UNL     1       7.104  33.823  65.610  1.00  0.00     0.020 A 
HETATM   16  C   UNL     1       7.405  33.318  64.346  1.00  0.00     0.017 A 
ENDBRANCH   9  11
ENDBRANCH   2   5
BRANCH   1  17
HETATM   17  C   UNL     1       9.562  29.662  57.734  1.00  0.00     0.078 C 
HETATM   18  C   UNL     1      10.994  29.977  57.297  1.00  0.00     0.020 C 
BRANCH  17  19
HETATM   19  C   UNL     1       8.616  29.492  56.533  1.00  0.00     0.052 C 
BRANCH  19  20
HETATM   20  C   UNL     1       8.136  28.068  56.379  1.00  0.00    -0.057 A 
HETATM   21  C   UNL     1       7.666  27.616  55.139  1.00  0.00     0.010 A 
HETATM   22  C   UNL     1       7.193  26.310  54.997  1.00  0.00     0.037 A 
HETATM   23  C   UNL     1       7.181  25.434  56.084  1.00  0.00     0.068 A 
HETATM   24  C   UNL     1       7.655  25.877  57.318  1.00  0.00     0.037 A 
HETATM   25  C   UNL     1       8.130  27.186  57.465  1.00  0.00     0.010 A 
BRANCH  23  26
HETATM   26  O   UNL     1       6.685  24.190  55.806  1.00  0.00    -0.356 OA
HETATM   27  C   UNL     1       7.011  23.637  54.537  1.00  0.00     0.210 C 
ENDBRANCH  23  26
ENDBRANCH  19  20
ENDBRANCH  17  19
ENDBRANCH   1  17
TORSDOF 6
ENDMDL
MODEL 4
REMARK VINA RESULT:      -8.8      5.323      8.902
REMARK  6 active torsions:
REMARK  status: ('A' for Active; 'I' for Inactive)
REMARK    1  A    between atoms: C_2  and  C_3 
REMARK    2  A    between atoms: C_2  and  C_18 
REMARK       I    between atoms: C_3  and  N_4 
REMARK    3  A    between atoms: N_4  and  C_5 
REMARK    4  A    between atoms: C_9  and  C_10 
REMARK    5  A    between atoms: C_18  and  C_19 
REMARK    6  A    between atoms: C_22  and  O_23 
ROOT
HETATM    1  C   UNL     1       5.442  25.960  51.416  1.00  0.00     0.227 C 
HETATM    2  N   UNL     1       5.671  26.974  50.497  1.00  0.00    -0.312 N 
HETATM    3  O   UNL     1       4.607  25.069  51.267  1.00  0.00    -0.273 OA
HETATM    4  H   UNL     1       6.382  27.672  50.682  1.00  0.00     0.170 HD
ENDROOT
BRANCH   2   5
HETATM    5  C   UNL     1       4.896  27.123  49.367  1.00  0.00     0.126 A 
HETATM    6  N   UNL     1       5.186  26.577  48.147  1.00  0.00    -0.262 N 
HETATM    7  H   UNL     1       6.002  26.016  47.913  1.00  0.00     0.191 HD
HETATM    8  N   UNL     1       4.253  26.822  47.212  1.00  0.00    -0.172 NA
HETATM    9  C   UNL     1       3.326  27.565  47.842  1.00  0.00     0.092 A 
HETATM   10  C   UNL     1       3.707  27.788  49.197  1.00  0.00     0.084 A 
BRANCH   9  11
HETATM   11  C   UNL     1       2.114  28.016  47.156  1.00  0.00     0.012 A 
HETATM   12  C   UNL     1       1.925  29.346  46.790  1.00  0.00     0.130 A 
HETATM   13  N   UNL     1       0.815  29.828  46.173  1.00  0.00    -0.272 NA
HETATM   14  C   UNL     1      -0.161  28.935  45.902  1.00  0.00     0.116 A 
HETATM   15  C   UNL     1      -0.076  27.589  46.215  1.00  0.00     0.020 A 
HETATM   16  C   UNL     1       1.077  27.128  46.849  1.00  0.00     0.017 A 
ENDBRANCH   9  11
ENDBRANCH   2   5
BRANCH   1  17
HETATM   17  C   UNL     1       6.346  26.059  52.641  1.00  0.00     0.078 C 
HETATM   18  C   UNL     1       6.626  27.531  52.951  1.00  0.00     0.020 C 
BRANCH  17  19
HETATM   19  C   UNL     1       7.641  25.258  52.419  1.00  0.00     0.052 C 
BRANCH  19  20
HETATM   20  C   UNL     1       7.683  23.996  53.247  1.00  0.00    -0.057 A 
HETATM   21  C   UNL     1       7.533  24.064  54.638  1.00  0.00     0.010 A 
HETATM   22  C   UNL     1       7.601  22.904  55.413  1.00  0.00     0.037 A 
HETATM   23  C   UNL     1       7.819  21.661  54.818  1.00  0.00     0.068 A 
HETATM   24  C   UNL     1       7.961  21.586  53.432  1.00  0.00     0.037 A 
HETATM   25  C   UNL     1       7.894  22.747  52.652  1.00  0.00     0.010 A 
BRANCH  23  26
HETATM   26  O   UNL     1       7.870  20.612  55.693  1.00  0.00    -0.356 OA
HETATM   27  C   UNL     1       8.365  20.887  56.997  1.00  0.00     0.210 C 
ENDBRANCH  23  26
ENDBRANCH  19  20
ENDBRANCH  17  19
ENDBRANCH   1  17
TORSDOF 6
ENDMDL
MODEL 5
REMARK VINA RESULT:      -8.7      1.688      2.339
REMARK  6 active torsions:
REMARK  status: ('A' for Active; 'I' for Inactive)
REMARK    1  A    between atoms: C_2  and  C_3 
REMARK    2  A    between atoms: C_2  and  C_18 
REMARK       I    between atoms: C_3  and  N_4 
REMARK    3  A    between atoms: N_4  and  C_5 
REMARK    4  A    between atoms: C_9  and  C_10 
REMARK    5  A    between atoms: C_18  and  C_19 
REMARK    6  A    between atoms: C_22  and  O_23 
ROOT
HETATM    1  C   UNL     1       7.596  27.837  54.459  1.00  0.00     0.227 C 
HETATM    2  N   UNL     1       7.246  27.730  55.798  1.00  0.00    -0.312 N 
HETATM    3  O   UNL     1       8.490  28.569  54.036  1.00  0.00    -0.273 OA
HETATM    4  H   UNL     1       6.503  27.099  56.077  1.00  0.00     0.170 HD
ENDROOT
BRANCH   2   5
HETATM    5  C   UNL     1       7.818  28.527  56.767  1.00  0.00     0.126 A 
HETATM    6  N   UNL     1       9.133  28.901  56.791  1.00  0.00    -0.262 N 
HETATM    7  H   UNL     1       9.851  28.636  56.121  1.00  0.00     0.191 HD
HETATM    8  N   UNL     1       9.440  29.720  57.811  1.00  0.00    -0.172 NA
HETATM    9  C   UNL     1       8.287  29.876  58.484  1.00  0.00     0.092 A 
HETATM   10  C   UNL     1       7.246  29.123  57.864  1.00  0.00     0.084 A 
BRANCH   9  11
HETATM   11  C   UNL     1       8.202  30.736  59.664  1.00  0.00     0.012 A 
HETATM   12  C   UNL     1       7.224  31.719  59.792  1.00  0.00     0.130 A 
HETATM   13  N   UNL     1       7.108  32.562  60.852  1.00  0.00    -0.272 NA
HETATM   14  C   UNL     1       8.015  32.416  61.840  1.00  0.00     0.116 A 
HETATM   15  C   UNL     1       9.025  31.470  61.820  1.00  0.00     0.020 A 
HETATM   16  C   UNL     1       9.115  30.621  60.717  1.00  0.00     0.017 A 
ENDBRANCH   9  11
ENDBRANCH   2   5
BRANCH   1  17
HETATM   17  C   UNL     1       6.756  26.940  53.556  1.00  0.00     0.078 C 
HETATM   18  C   UNL     1       5.799  27.801  52.729  1.00  0.00     0.020 C 
BRANCH  17  19
HETATM   19  C   UNL     1       6.009  25.885  54.391  1.00  0.00     0.052 C 
BRANCH  19  20
HETATM   20  C   UNL     1       6.713  24.548  54.386  1.00  0.00    -0.057 A 
HETATM   21  C   UNL     1       7.078  23.952  53.172  1.00  0.00     0.010 A 
HETATM   22  C   UNL     1       7.701  22.703  53.158  1.00  0.00     0.037 A 
HETATM   23  C   UNL     1       7.970  22.027  54.350  1.00  0.00     0.068 A 
HETATM   24  C   UNL     1       7.615  22.619  55.562  1.00  0.00     0.037 A 
HETATM   25  C   UNL     1       6.991  23.872  55.579  1.00  0.00     0.010 A 
BRANCH  23  26
HETATM   26  O   UNL     1       8.576  20.812  54.191  1.00  0.00    -0.356 OA
HETATM   27  C   UNL     1       8.525  20.234  52.893  1.00  0.00     0.210 C 
ENDBRANCH  23  26
ENDBRANCH  19  20
ENDBRANCH  17  19
ENDBRANCH   1  17
TORSDOF 6
ENDMDL
MODEL 6
REMARK VINA RESULT:      -8.7      1.636      1.979
REMARK  6 active torsions:
REMARK  status: ('A' for Active; 'I' for Inactive)
REMARK    1  A    between atoms: C_2  and  C_3 
REMARK    2  A    between atoms: C_2  and  C_18 
REMARK       I    between atoms: C_3  and  N_4 
REMARK    3  A    between atoms: N_4  and  C_5 
REMARK    4  A    between atoms: C_9  and  C_10 
REMARK    5  A    between atoms: C_18  and  C_19 
REMARK    6  A    between atoms: C_22  and  O_23 
ROOT
HETATM    1  C   UNL     1       7.602  27.746  54.454  1.00  0.00     0.227 C 
HETATM    2  N   UNL     1       7.241  27.569  55.782  1.00  0.00    -0.312 N 
HETATM    3  O   UNL     1       8.481  28.520  54.075  1.00  0.00    -0.273 OA
HETATM    4  H   UNL     1       6.512  26.907  56.023  1.00  0.00     0.170 HD
ENDROOT
BRANCH   2   5
HETATM    5  C   UNL     1       7.781  28.335  56.793  1.00  0.00     0.126 A 
HETATM    6  N   UNL     1       9.120  28.474  57.034  1.00  0.00    -0.262 N 
HETATM    7  H   UNL     1       9.878  28.029  56.520  1.00  0.00     0.191 HD
HETATM    8  N   UNL     1       9.401  29.312  58.045  1.00  0.00    -0.172 NA
HETATM    9  C   UNL     1       8.201  29.726  58.489  1.00  0.00     0.092 A 
HETATM   10  C   UNL     1       7.157  29.117  57.733  1.00  0.00     0.084 A 
BRANCH   9  11
HETATM   11  C   UNL     1       8.083  30.689  59.585  1.00  0.00     0.012 A 
HETATM   12  C   UNL     1       7.056  31.629  59.634  1.00  0.00     0.130 A 
HETATM   13  N   UNL     1       6.907  32.560  60.611  1.00  0.00    -0.272 NA
HETATM   14  C   UNL     1       7.829  32.554  61.597  1.00  0.00     0.116 A 
HETATM   15  C   UNL     1       8.887  31.663  61.651  1.00  0.00     0.020 A 
HETATM   16  C   UNL     1       9.011  30.720  60.631  1.00  0.00     0.017 A 
ENDBRANCH   9  11
ENDBRANCH   2   5
BRANCH   1  17
HETATM   17  C   UNL     1       6.796  26.870  53.501  1.00  0.00     0.078 C 
HETATM   18  C   UNL     1       5.854  27.747  52.674  1.00  0.00     0.020 C 
BRANCH  17  19
HETATM   19  C   UNL     1       6.036  25.783  54.283  1.00  0.00     0.052 C 
BRANCH  19  20
HETATM   20  C   UNL     1       6.719  24.438  54.204  1.00  0.00    -0.057 A 
HETATM   21  C   UNL     1       6.972  23.709  55.373  1.00  0.00     0.010 A 
HETATM   22  C   UNL     1       7.629  22.479  55.310  1.00  0.00     0.037 A 
HETATM   23  C   UNL     1       8.044  21.955  54.084  1.00  0.00     0.068 A 
HETATM   24  C   UNL     1       7.788  22.672  52.916  1.00  0.00     0.037 A 
HETATM   25  C   UNL     1       7.129  23.906  52.976  1.00  0.00     0.010 A 
BRANCH  23  26
HETATM   26  O   UNL     1       8.681  20.748  54.168  1.00  0.00    -0.356 OA
HETATM   27  C   UNL     1       8.885  20.218  55.472  1.00  0.00     0.210 C 
ENDBRANCH  23  26
ENDBRANCH  19  20
ENDBRANCH  17  19
ENDBRANCH   1  17
TORSDOF 6
ENDMDL
MODEL 7
REMARK VINA RESULT:      -8.7      4.053     10.369
REMARK  6 active torsions:
REMARK  status: ('A' for Active; 'I' for Inactive)
REMARK    1  A    between atoms: C_2  and  C_3 
REMARK    2  A    between atoms: C_2  and  C_18 
REMARK       I    between atoms: C_3  and  N_4 
REMARK    3  A    between atoms: N_4  and  C_5 
REMARK    4  A    between atoms: C_9  and  C_10 
REMARK    5  A    between atoms: C_18  and  C_19 
REMARK    6  A    between atoms: C_22  and  O_23 
ROOT
HETATM    1  C   UNL     1       7.664  31.283  59.287  1.00  0.00     0.227 C 
HETATM    2  N   UNL     1       7.923  29.921  59.247  1.00  0.00    -0.312 N 
HETATM    3  O   UNL     1       6.941  31.872  58.484  1.00  0.00    -0.273 OA
HETATM    4  H   UNL     1       8.523  29.500  59.947  1.00  0.00     0.170 HD
ENDROOT
BRANCH   2   5
HETATM    5  C   UNL     1       7.461  29.120  58.224  1.00  0.00     0.126 A 
HETATM    6  N   UNL     1       6.187  29.150  57.727  1.00  0.00    -0.262 N 
HETATM    7  H   UNL     1       5.425  29.742  58.049  1.00  0.00     0.191 HD
HETATM    8  N   UNL     1       5.992  28.309  56.698  1.00  0.00    -0.172 NA
HETATM    9  C   UNL     1       7.177  27.699  56.525  1.00  0.00     0.092 A 
HETATM   10  C   UNL     1       8.122  28.174  57.481  1.00  0.00     0.084 A 
BRANCH   9  11
HETATM   11  C   UNL     1       7.382  26.715  55.461  1.00  0.00     0.012 A 
HETATM   12  C   UNL     1       7.555  25.360  55.732  1.00  0.00     0.130 A 
HETATM   13  N   UNL     1       7.771  24.405  54.791  1.00  0.00    -0.272 NA
HETATM   14  C   UNL     1       7.813  24.821  53.507  1.00  0.00     0.116 A 
HETATM   15  C   UNL     1       7.649  26.140  53.124  1.00  0.00     0.020 A 
HETATM   16  C   UNL     1       7.430  27.096  54.116  1.00  0.00     0.017 A 
ENDBRANCH   9  11
ENDBRANCH   2   5
BRANCH   1  17
HETATM   17  C   UNL     1       8.367  31.984  60.445  1.00  0.00     0.078 C 
HETATM   18  C   UNL     1       9.841  32.198  60.092  1.00  0.00     0.020 C 
BRANCH  17  19
HETATM   19  C   UNL     1       8.195  31.179  61.745  1.00  0.00     0.052 C 
BRANCH  19  20
HETATM   20  C   UNL     1       7.381  31.924  62.776  1.00  0.00    -0.057 A 
HETATM   21  C   UNL     1       5.984  31.818  62.778  1.00  0.00     0.010 A 
HETATM   22  C   UNL     1       5.223  32.527  63.709  1.00  0.00     0.037 A 
HETATM   23  C   UNL     1       5.839  33.352  64.652  1.00  0.00     0.068 A 
HETATM   24  C   UNL     1       7.230  33.455  64.660  1.00  0.00     0.037 A 
HETATM   25  C   UNL     1       7.996  32.745  63.728  1.00  0.00     0.010 A 
BRANCH  23  26
HETATM   26  O   UNL     1       4.976  33.993  65.498  1.00  0.00    -0.356 OA
HETATM   27  C   UNL     1       3.874  34.664  64.902  1.00  0.00     0.210 C 
ENDBRANCH  23  26
ENDBRANCH  19  20
ENDBRANCH  17  19
ENDBRANCH   1  17
TORSDOF 6
ENDMDL
MODEL 8
REMARK VINA RESULT:      -8.6      3.374      9.758
REMARK  6 active torsions:
REMARK  status: ('A' for Active; 'I' for Inactive)
REMARK    1  A    between atoms: C_2  and  C_3 
REMARK    2  A    between atoms: C_2  and  C_18 
REMARK       I    between atoms: C_3  and  N_4 
REMARK    3  A    between atoms: N_4  and  C_5 
REMARK    4  A    between atoms: C_9  and  C_10 
REMARK    5  A    between atoms: C_18  and  C_19 
REMARK    6  A    between atoms: C_22  and  O_23 
ROOT
HETATM    1  C   UNL     1       8.716  29.818  57.583  1.00  0.00     0.227 C 
HETATM    2  N   UNL     1       7.787  28.836  57.897  1.00  0.00    -0.312 N 
HETATM    3  O   UNL     1       9.401  29.818  56.561  1.00  0.00    -0.273 OA
HETATM    4  H   UNL     1       7.250  28.904  58.754  1.00  0.00     0.170 HD
ENDROOT
BRANCH   2   5
HETATM    5  C   UNL     1       7.629  27.707  57.121  1.00  0.00     0.126 A 
HETATM    6  N   UNL     1       6.932  27.663  55.945  1.00  0.00    -0.262 N 
HETATM    7  H   UNL     1       6.436  28.435  55.505  1.00  0.00     0.191 HD
HETATM    8  N   UNL     1       6.960  26.460  55.347  1.00  0.00    -0.172 NA
HETATM    9  C   UNL     1       7.693  25.688  56.169  1.00  0.00     0.092 A 
HETATM   10  C   UNL     1       8.116  26.437  57.306  1.00  0.00     0.084 A 
BRANCH   9  11
HETATM   11  C   UNL     1       7.983  24.291  55.846  1.00  0.00     0.012 A 
HETATM   12  C   UNL     1       8.234  23.342  56.834  1.00  0.00     0.130 A 
HETATM   13  N   UNL     1       8.530  22.037  56.596  1.00  0.00    -0.272 NA
HETATM   14  C   UNL     1       8.577  21.655  55.303  1.00  0.00     0.116 A 
HETATM   15  C   UNL     1       8.339  22.512  54.242  1.00  0.00     0.020 A 
HETATM   16  C   UNL     1       8.038  23.845  54.521  1.00  0.00     0.017 A 
ENDBRANCH   9  11
ENDBRANCH   2   5
BRANCH   1  17
HETATM   17  C   UNL     1       8.796  30.914  58.640  1.00  0.00     0.078 C 
HETATM   18  C   UNL     1      10.144  31.629  58.532  1.00  0.00     0.020 C 
BRANCH  17  19
HETATM   19  C   UNL     1       8.565  30.325  60.043  1.00  0.00     0.052 C 
BRANCH  19  20
HETATM   20  C   UNL     1       8.053  31.358  61.020  1.00  0.00    -0.057 A 
HETATM   21  C   UNL     1       8.547  31.388  62.331  1.00  0.00     0.010 A 
HETATM   22  C   UNL     1       8.057  32.320  63.248  1.00  0.00     0.037 A 
HETATM   23  C   UNL     1       7.070  33.235  62.876  1.00  0.00     0.068 A 
HETATM   24  C   UNL     1       6.580  33.213  61.571  1.00  0.00     0.037 A 
HETATM   25  C   UNL     1       7.070  32.281  60.648  1.00  0.00     0.010 A 
BRANCH  23  26
HETATM   26  O   UNL     1       6.677  34.084  63.873  1.00  0.00    -0.356 OA
HETATM   27  C   UNL     1       7.096  33.763  65.193  1.00  0.00     0.210 C 
ENDBRANCH  23  26
ENDBRANCH  19  20
ENDBRANCH  17  19
ENDBRANCH   1  17
TORSDOF 6
ENDMDL
MODEL 9
REMARK VINA RESULT:      -8.4      3.076      4.657
REMARK  6 active torsions:
REMARK  status: ('A' for Active; 'I' for Inactive)
REMARK    1  A    between atoms: C_2  and  C_3 
REMARK    2  A    between atoms: C_2  and  C_18 
REMARK       I    between atoms: C_3  and  N_4 
REMARK    3  A    between atoms: N_4  and  C_5 
REMARK    4  A    between atoms: C_9  and  C_10 
REMARK    5  A    between atoms: C_18  and  C_19 
REMARK    6  A    between atoms: C_22  and  O_23 
ROOT
HETATM    1  C   UNL     1       7.497  29.084  57.909  1.00  0.00     0.227 C 
HETATM    2  N   UNL     1       8.217  29.958  58.710  1.00  0.00    -0.312 N 
HETATM    3  O   UNL     1       6.272  29.108  57.789  1.00  0.00    -0.273 OA
HETATM    4  H   UNL     1       9.228  29.886  58.755  1.00  0.00     0.170 HD
ENDROOT
BRANCH   2   5
HETATM    5  C   UNL     1       7.596  30.878  59.528  1.00  0.00     0.126 A 
HETATM    6  N   UNL     1       6.429  31.524  59.228  1.00  0.00    -0.262 N 
HETATM    7  H   UNL     1       5.884  31.426  58.374  1.00  0.00     0.191 HD
HETATM    8  N   UNL     1       5.997  32.337  60.206  1.00  0.00    -0.172 NA
HETATM    9  C   UNL     1       6.922  32.227  61.175  1.00  0.00     0.092 A 
HETATM   10  C   UNL     1       7.954  31.329  60.774  1.00  0.00     0.084 A 
BRANCH   9  11
HETATM   11  C   UNL     1       6.792  32.950  62.441  1.00  0.00     0.012 A 
HETATM   12  C   UNL     1       5.824  33.933  62.633  1.00  0.00     0.130 A 
HETATM   13  N   UNL     1       5.669  34.652  63.775  1.00  0.00    -0.272 NA
HETATM   14  C   UNL     1       6.522  34.375  64.783  1.00  0.00     0.116 A 
HETATM   15  C   UNL     1       7.517  33.416  64.704  1.00  0.00     0.020 A 
HETATM   16  C   UNL     1       7.649  32.696  63.517  1.00  0.00     0.017 A 
ENDBRANCH   9  11
ENDBRANCH   2   5
BRANCH   1  17
HETATM   17  C   UNL     1       8.386  28.083  57.179  1.00  0.00     0.078 C 
HETATM   18  C   UNL     1       9.740  28.730  56.877  1.00  0.00     0.020 C 
BRANCH  17  19
HETATM   19  C   UNL     1       7.690  27.578  55.902  1.00  0.00     0.052 C 
BRANCH  19  20
HETATM   20  C   UNL     1       7.625  26.069  55.845  1.00  0.00    -0.057 A 
HETATM   21  C   UNL     1       8.146  25.304  56.897  1.00  0.00     0.010 A 
HETATM   22  C   UNL     1       8.116  23.910  56.837  1.00  0.00     0.037 A 
HETATM   23  C   UNL     1       7.569  23.255  55.732  1.00  0.00     0.068 A 
HETATM   24  C   UNL     1       7.042  24.012  54.686  1.00  0.00     0.037 A 
HETATM   25  C   UNL     1       7.070  25.411  54.742  1.00  0.00     0.010 A 
BRANCH  23  26
HETATM   26  O   UNL     1       7.611  21.890  55.801  1.00  0.00    -0.356 OA
HETATM   27  C   UNL     1       8.422  21.323  56.822  1.00  0.00     0.210 C 
ENDBRANCH  23  26
ENDBRANCH  19  20
ENDBRANCH  17  19
ENDBRANCH   1  17
TORSDOF 6
ENDMDL
MODEL 10
REMARK VINA RESULT:      -8.4      8.507     12.806
REMARK  6 active torsions:
REMARK  status: ('A' for Active; 'I' for Inactive)
REMARK    1  A    between atoms: C_2  and  C_3 
REMARK    2  A    between atoms: C_2  and  C_18 
REMARK       I    between atoms: C_3  and  N_4 
REMARK    3  A    between atoms: N_4  and  C_5 
REMARK    4  A    between atoms: C_9  and  C_10 
REMARK    5  A    between atoms: C_18  and  C_19 
REMARK    6  A    between atoms: C_22  and  O_23 
ROOT
HETATM    1  C   UNL     1       5.687  33.843  64.928  1.00  0.00     0.227 C 
HETATM    2  N   UNL     1       6.286  34.581  65.939  1.00  0.00    -0.312 N 
HETATM    3  O   UNL     1       4.841  32.971  65.119  1.00  0.00    -0.273 OA
HETATM    4  H   UNL     1       6.971  35.292  65.708  1.00  0.00     0.170 HD
ENDROOT
BRANCH   2   5
HETATM    5  C   UNL     1       6.047  34.321  67.272  1.00  0.00     0.126 A 
HETATM    6  N   UNL     1       4.866  33.846  67.773  1.00  0.00    -0.262 N 
HETATM    7  H   UNL     1       4.021  33.642  67.243  1.00  0.00     0.191 HD
HETATM    8  N   UNL     1       4.893  33.626  69.097  1.00  0.00    -0.172 NA
HETATM    9  C   UNL     1       6.133  33.980  69.477  1.00  0.00     0.092 A 
HETATM   10  C   UNL     1       6.883  34.440  68.354  1.00  0.00     0.084 A 
BRANCH   9  11
HETATM   11  C   UNL     1       6.571  33.855  70.868  1.00  0.00     0.012 A 
HETATM   12  C   UNL     1       5.757  34.228  71.934  1.00  0.00     0.130 A 
HETATM   13  N   UNL     1       6.115  34.156  73.243  1.00  0.00    -0.272 NA
HETATM   14  C   UNL     1       7.352  33.684  73.505  1.00  0.00     0.116 A 
HETATM   15  C   UNL     1       8.242  33.281  72.524  1.00  0.00     0.020 A 
HETATM   16  C   UNL     1       7.842  33.368  71.191  1.00  0.00     0.017 A 
ENDBRANCH   9  11
ENDBRANCH   2   5
BRANCH   1  17
HETATM   17  C   UNL     1       6.185  34.232  63.540  1.00  0.00     0.078 C 
HETATM   18  C   UNL     1       5.749  35.665  63.224  1.00  0.00     0.020 C 
BRANCH  17  19
HETATM   19  C   UNL     1       5.678  33.230  62.487  1.00  0.00     0.052 C 
BRANCH  19  20
HETATM   20  C   UNL     1       6.803  32.651  61.660  1.00  0.00    -0.057 A 
HETATM   21  C   UNL     1       6.591  32.335  60.312  1.00  0.00     0.010 A 
HETATM   22  C   UNL     1       7.616  31.771  59.550  1.00  0.00     0.037 A 
HETATM   23  C   UNL     1       8.866  31.514  60.116  1.00  0.00     0.068 A 
HETATM   24  C   UNL     1       9.084  31.834  61.455  1.00  0.00     0.037 A 
HETATM   25  C   UNL     1       8.059  32.399  62.223  1.00  0.00     0.010 A 
BRANCH  23  26
HETATM   26  O   UNL     1       9.774  30.955  59.260  1.00  0.00    -0.356 OA
HETATM   27  C   UNL     1       9.252  30.242  58.146  1.00  0.00     0.210 C 
ENDBRANCH  23  26
ENDBRANCH  19  20
ENDBRANCH  17  19
ENDBRANCH   1  17
TORSDOF 6
ENDMDL
