MODEL 1
REMARK VINA RESULT:     -11.2      0.000      0.000
REMARK  7 active torsions:
REMARK  status: ('A' for Active; 'I' for Inactive)
REMARK    1  A    between atoms: C_3  and  N_4 
REMARK    2  A    between atoms: C_5  and  S_6 
REMARK    3  A    between atoms: S_6  and  C_7 
REMARK    4  A    between atoms: C_7  and  C_8 
REMARK       I    between atoms: C_8  and  N_9 
REMARK    5  A    between atoms: N_9  and  C_10 
REMARK    6  A    between atoms: C_13  and  C_14 
REMARK       I    between atoms: C_14  and  N_15 
REMARK    7  A    between atoms: C_22  and  C_23 
ROOT
HETATM    1  N   UNL     1       7.184  26.541  56.084  1.00  0.00    -0.271 N 
HETATM    2  C   UNL     1       7.444  27.117  57.314  1.00  0.00     0.197 C 
HETATM    3  N   UNL     1       7.869  26.204  58.157  1.00  0.00    -0.122 NA
HETATM    4  N   UNL     1       8.010  25.034  57.469  1.00  0.00    -0.128 NA
HETATM    5  C   UNL     1       7.682  25.249  56.205  1.00  0.00     0.171 C 
ENDROOT
BRANCH   2   6
HETATM    6  S   UNL     1       7.124  28.769  57.737  1.00  0.00    -0.080 SA
BRANCH   6   7
HETATM    7  C   UNL     1       8.796  29.419  57.995  1.00  0.00     0.185 C 
BRANCH   7   8
HETATM    8  C   UNL     1       8.799  30.651  58.890  1.00  0.00     0.231 C 
HETATM    9  N   UNL     1       8.102  30.464  60.070  1.00  0.00    -0.327 N 
HETATM   10  H   UNL     1       7.891  29.496  60.316  1.00  0.00     0.169 HD
HETATM   11  O   UNL     1       9.349  31.688  58.530  1.00  0.00    -0.272 OA
BRANCH   9  12
HETATM   12  C   UNL     1       7.732  31.430  61.025  1.00  0.00     0.034 A 
HETATM   13  C   UNL     1       8.458  31.446  62.222  1.00  0.00     0.030 A 
HETATM   14  C   UNL     1       8.119  32.329  63.255  1.00  0.00     0.019 A 
HETATM   15  C   UNL     1       7.042  33.205  63.096  1.00  0.00     0.032 A 
HETATM   16  C   UNL     1       6.337  33.215  61.888  1.00  0.00     0.019 A 
HETATM   17  C   UNL     1       6.677  32.327  60.859  1.00  0.00     0.030 A 
BRANCH  15  18
HETATM   18  C   UNL     1       6.621  34.140  64.171  1.00  0.00     0.249 C 
HETATM   19  N   UNL     1       7.385  34.176  65.305  1.00  0.00    -0.366 N 
HETATM   20  H   UNL     1       8.060  33.458  65.525  1.00  0.00     0.159 HD
HETATM   21  H   UNL     1       7.015  34.724  66.073  1.00  0.00     0.159 HD
HETATM   22  O   UNL     1       5.608  34.821  64.077  1.00  0.00    -0.268 OA
ENDBRANCH  15  18
ENDBRANCH   9  12
ENDBRANCH   7   8
ENDBRANCH   6   7
ENDBRANCH   2   6
BRANCH   1  23
HETATM   23  C   UNL     1       6.459  27.100  55.001  1.00  0.00     0.049 A 
HETATM   24  C   UNL     1       7.079  27.981  54.088  1.00  0.00    -0.035 A 
HETATM   25  C   UNL     1       8.539  28.349  54.125  1.00  0.00     0.050 C 
HETATM   26  C   UNL     1       6.291  28.539  53.066  1.00  0.00     0.009 A 
HETATM   27  C   UNL     1       4.945  28.199  52.929  1.00  0.00     0.001 A 
HETATM   28  C   UNL     1       4.356  27.301  53.815  1.00  0.00     0.002 A 
HETATM   29  C   UNL     1       5.109  26.749  54.851  1.00  0.00     0.031 A 
ENDBRANCH   1  23
BRANCH   5  30
HETATM   30  C   UNL     1       7.923  24.236  55.128  1.00  0.00     0.040 A 
HETATM   31  C   UNL     1       8.118  22.831  55.309  1.00  0.00     0.006 A 
HETATM   32  C   UNL     1       8.327  22.278  54.044  1.00  0.00     0.043 A 
HETATM   33  C   UNL     1       8.125  21.962  56.423  1.00  0.00     0.015 A 
HETATM   34  C   UNL     1       8.543  20.910  53.837  1.00  0.00     0.030 A 
HETATM   35  N   UNL     1       8.278  23.310  53.136  1.00  0.00    -0.364 N 
HETATM   36  C   UNL     1       8.544  20.076  54.958  1.00  0.00     0.002 A 
HETATM   37  C   UNL     1       8.338  20.592  56.233  1.00  0.00     0.001 A 
HETATM   38  H   UNL     1       8.411  23.202  52.139  1.00  0.00     0.165 HD
HETATM   39  C   UNL     1       8.041  24.496  53.779  1.00  0.00     0.104 A 
ENDBRANCH   5  30
TORSDOF 7
ENDMDL
MODEL 2
REMARK VINA RESULT:     -10.7      4.233      7.966
REMARK  7 active torsions:
REMARK  status: ('A' for Active; 'I' for Inactive)
REMARK    1  A    between atoms: C_3  and  N_4 
REMARK    2  A    between atoms: C_5  and  S_6 
REMARK    3  A    between atoms: S_6  and  C_7 
REMARK    4  A    between atoms: C_7  and  C_8 
REMARK       I    between atoms: C_8  and  N_9 
REMARK    5  A    between atoms: N_9  and  C_10 
REMARK    6  A    between atoms: C_13  and  C_14 
REMARK       I    between atoms: C_14  and  N_15 
REMARK    7  A    between atoms: C_22  and  C_23 
ROOT
HETATM    1  N   UNL     1       6.712  27.771  56.723  1.00  0.00    -0.271 N 
HETATM    2  C   UNL     1       5.456  28.287  56.992  1.00  0.00     0.197 C 
HETATM    3  N   UNL     1       4.538  27.377  56.758  1.00  0.00    -0.122 NA
HETATM    4  N   UNL     1       5.176  26.211  56.445  1.00  0.00    -0.128 NA
HETATM    5  C   UNL     1       6.481  26.418  56.506  1.00  0.00     0.171 C 
ENDROOT
BRANCH   2   6
HETATM    6  S   UNL     1       5.119  29.930  57.432  1.00  0.00    -0.080 SA
BRANCH   6   7
HETATM    7  C   UNL     1       3.700  30.316  56.374  1.00  0.00     0.185 C 
BRANCH   7   8
HETATM    8  C   UNL     1       4.042  30.205  54.895  1.00  0.00     0.231 C 
HETATM    9  N   UNL     1       3.638  29.007  54.334  1.00  0.00    -0.327 N 
HETATM   10  H   UNL     1       2.965  28.464  54.877  1.00  0.00     0.169 HD
HETATM   11  O   UNL     1       4.649  31.105  54.320  1.00  0.00    -0.272 OA
BRANCH   9  12
HETATM   12  C   UNL     1       3.960  28.486  53.067  1.00  0.00     0.034 A 
HETATM   13  C   UNL     1       3.427  29.151  51.955  1.00  0.00     0.030 A 
HETATM   14  C   UNL     1       3.641  28.667  50.659  1.00  0.00     0.019 A 
HETATM   15  C   UNL     1       4.393  27.505  50.465  1.00  0.00     0.032 A 
HETATM   16  C   UNL     1       4.955  26.859  51.570  1.00  0.00     0.019 A 
HETATM   17  C   UNL     1       4.734  27.343  52.866  1.00  0.00     0.030 A 
BRANCH  15  18
HETATM   18  C   UNL     1       4.624  26.931  49.114  1.00  0.00     0.249 C 
HETATM   19  N   UNL     1       5.568  27.537  48.330  1.00  0.00    -0.366 N 
HETATM   20  H   UNL     1       5.932  28.456  48.535  1.00  0.00     0.159 HD
HETATM   21  H   UNL     1       5.624  27.212  47.372  1.00  0.00     0.159 HD
HETATM   22  O   UNL     1       3.972  25.986  48.692  1.00  0.00    -0.268 OA
ENDBRANCH  15  18
ENDBRANCH   9  12
ENDBRANCH   7   8
ENDBRANCH   6   7
ENDBRANCH   2   6
BRANCH   1  23
HETATM   23  C   UNL     1       7.929  28.485  56.576  1.00  0.00     0.049 A 
HETATM   24  C   UNL     1       8.505  28.687  55.302  1.00  0.00    -0.035 A 
HETATM   25  C   UNL     1       7.873  28.245  54.008  1.00  0.00     0.050 C 
HETATM   26  C   UNL     1       9.737  29.359  55.231  1.00  0.00     0.009 A 
HETATM   27  C   UNL     1      10.355  29.852  56.381  1.00  0.00     0.001 A 
HETATM   28  C   UNL     1       9.757  29.677  57.626  1.00  0.00     0.002 A 
HETATM   29  C   UNL     1       8.546  28.995  57.729  1.00  0.00     0.031 A 
ENDBRANCH   1  23
BRANCH   5  30
HETATM   30  C   UNL     1       7.477  25.301  56.429  1.00  0.00     0.040 A 
HETATM   31  C   UNL     1       7.675  24.413  55.326  1.00  0.00     0.006 A 
HETATM   32  C   UNL     1       8.685  23.520  55.693  1.00  0.00     0.043 A 
HETATM   33  C   UNL     1       7.106  24.280  54.040  1.00  0.00     0.015 A 
HETATM   34  C   UNL     1       9.151  22.508  54.846  1.00  0.00     0.030 A 
HETATM   35  N   UNL     1       9.071  23.846  56.972  1.00  0.00    -0.364 N 
HETATM   36  C   UNL     1       8.569  22.402  53.580  1.00  0.00     0.002 A 
HETATM   37  C   UNL     1       7.561  23.273  53.180  1.00  0.00     0.001 A 
HETATM   38  H   UNL     1       9.780  23.355  57.499  1.00  0.00     0.165 HD
HETATM   39  C   UNL     1       8.345  24.915  57.428  1.00  0.00     0.104 A 
ENDBRANCH   5  30
TORSDOF 7
ENDMDL
MODEL 3
REMARK VINA RESULT:     -10.7      5.598     10.172
REMARK  7 active torsions:
REMARK  status: ('A' for Active; 'I' for Inactive)
REMARK    1  A    between atoms: C_3  and  N_4 
REMARK    2  A    between atoms: C_5  and  S_6 
REMARK    3  A    between atoms: S_6  and  C_7 
REMARK    4  A    between atoms: C_7  and  C_8 
REMARK       I    between atoms: C_8  and  N_9 
REMARK    5  A    between atoms: N_9  and  C_10 
REMARK    6  A    between atoms: C_13  and  C_14 
REMARK       I    between atoms: C_14  and  N_15 
REMARK    7  A    between atoms: C_22  and  C_23 
ROOT
HETATM    1  N   UNL     1       6.018  26.314  53.906  1.00  0.00    -0.271 N 
HETATM    2  C   UNL     1       5.055  26.586  52.950  1.00  0.00     0.197 C 
HETATM    3  N   UNL     1       4.903  25.548  52.159  1.00  0.00    -0.122 NA
HETATM    4  N   UNL     1       5.674  24.534  52.648  1.00  0.00    -0.128 NA
HETATM    5  C   UNL     1       6.280  24.959  53.744  1.00  0.00     0.171 C 
ENDROOT
BRANCH   2   6
HETATM    6  S   UNL     1       4.263  28.112  52.729  1.00  0.00    -0.080 SA
BRANCH   6   7
HETATM    7  C   UNL     1       5.212  28.830  51.362  1.00  0.00     0.185 C 
BRANCH   7   8
HETATM    8  C   UNL     1       4.605  28.494  50.006  1.00  0.00     0.231 C 
HETATM    9  N   UNL     1       3.296  28.921  49.879  1.00  0.00    -0.327 N 
HETATM   10  H   UNL     1       2.978  29.601  50.571  1.00  0.00     0.169 HD
HETATM   11  O   UNL     1       5.250  27.874  49.165  1.00  0.00    -0.272 OA
BRANCH   9  12
HETATM   12  C   UNL     1       2.374  28.612  48.861  1.00  0.00     0.034 A 
HETATM   13  C   UNL     1       1.763  29.692  48.212  1.00  0.00     0.030 A 
HETATM   14  C   UNL     1       0.786  29.480  47.232  1.00  0.00     0.019 A 
HETATM   15  C   UNL     1       0.410  28.177  46.893  1.00  0.00     0.032 A 
HETATM   16  C   UNL     1       1.044  27.096  47.515  1.00  0.00     0.019 A 
HETATM   17  C   UNL     1       2.017  27.313  48.499  1.00  0.00     0.030 A 
BRANCH  15  18
HETATM   18  C   UNL     1      -0.643  27.896  45.883  1.00  0.00     0.249 C 
HETATM   19  N   UNL     1      -0.249  27.293  44.720  1.00  0.00    -0.366 N 
HETATM   20  H   UNL     1       0.719  27.243  44.437  1.00  0.00     0.159 HD
HETATM   21  H   UNL     1      -0.953  27.223  43.995  1.00  0.00     0.159 HD
HETATM   22  O   UNL     1      -1.808  28.228  46.052  1.00  0.00    -0.268 OA
ENDBRANCH  15  18
ENDBRANCH   9  12
ENDBRANCH   7   8
ENDBRANCH   6   7
ENDBRANCH   2   6
BRANCH   1  23
HETATM   23  C   UNL     1       6.676  27.236  54.759  1.00  0.00     0.049 A 
HETATM   24  C   UNL     1       6.165  27.534  56.042  1.00  0.00    -0.035 A 
HETATM   25  C   UNL     1       4.952  26.874  56.643  1.00  0.00     0.050 C 
HETATM   26  C   UNL     1       6.838  28.494  56.817  1.00  0.00     0.009 A 
HETATM   27  C   UNL     1       8.004  29.105  56.353  1.00  0.00     0.001 A 
HETATM   28  C   UNL     1       8.516  28.774  55.101  1.00  0.00     0.002 A 
HETATM   29  C   UNL     1       7.857  27.842  54.302  1.00  0.00     0.031 A 
ENDBRANCH   1  23
BRANCH   5  30
HETATM   30  C   UNL     1       7.037  24.039  54.653  1.00  0.00     0.040 A 
HETATM   31  C   UNL     1       7.568  22.755  54.314  1.00  0.00     0.006 A 
HETATM   32  C   UNL     1       8.175  22.245  55.465  1.00  0.00     0.043 A 
HETATM   33  C   UNL     1       7.609  21.973  53.139  1.00  0.00     0.015 A 
HETATM   34  C   UNL     1       8.814  21.000  55.499  1.00  0.00     0.030 A 
HETATM   35  N   UNL     1       8.002  23.175  56.462  1.00  0.00    -0.364 N 
HETATM   36  C   UNL     1       8.838  20.249  54.321  1.00  0.00     0.002 A 
HETATM   37  C   UNL     1       8.245  20.727  53.156  1.00  0.00     0.001 A 
HETATM   38  H   UNL     1       8.329  23.063  57.412  1.00  0.00     0.165 HD
HETATM   39  C   UNL     1       7.312  24.258  55.986  1.00  0.00     0.104 A 
ENDBRANCH   5  30
TORSDOF 7
ENDMDL
MODEL 4
REMARK VINA RESULT:     -10.5      2.329      3.723
REMARK  7 active torsions:
REMARK  status: ('A' for Active; 'I' for Inactive)
REMARK    1  A    between atoms: C_3  and  N_4 
REMARK    2  A    between atoms: C_5  and  S_6 
REMARK    3  A    between atoms: S_6  and  C_7 
REMARK    4  A    between atoms: C_7  and  C_8 
REMARK       I    between atoms: C_8  and  N_9 
REMARK    5  A    between atoms: N_9  and  C_10 
REMARK    6  A    between atoms: C_13  and  C_14 
REMARK       I    between atoms: C_14  and  N_15 
REMARK    7  A    between atoms: C_22  and  C_23 
ROOT
HETATM    1  N   UNL     1       6.630  28.429  56.683  1.00  0.00    -0.271 N 
HETATM    2  C   UNL     1       5.411  29.084  56.655  1.00  0.00     0.197 C 
HETATM    3  N   UNL     1       4.463  28.251  56.290  1.00  0.00    -0.122 NA
HETATM    4  N   UNL     1       5.016  27.007  56.186  1.00  0.00    -0.128 NA
HETATM    5  C   UNL     1       6.298  27.091  56.503  1.00  0.00     0.171 C 
ENDROOT
BRANCH   2   6
HETATM    6  S   UNL     1       5.177  30.782  56.917  1.00  0.00    -0.080 SA
BRANCH   6   7
HETATM    7  C   UNL     1       3.717  30.796  57.991  1.00  0.00     0.185 C 
BRANCH   7   8
HETATM    8  C   UNL     1       3.792  31.893  59.044  1.00  0.00     0.231 C 
HETATM    9  N   UNL     1       4.827  31.710  59.944  1.00  0.00    -0.327 N 
HETATM   10  H   UNL     1       5.544  31.037  59.668  1.00  0.00     0.169 HD
HETATM   11  O   UNL     1       2.968  32.803  59.064  1.00  0.00    -0.272 OA
BRANCH   9  12
HETATM   12  C   UNL     1       5.069  32.402  61.145  1.00  0.00     0.034 A 
HETATM   13  C   UNL     1       6.042  33.409  61.109  1.00  0.00     0.030 A 
HETATM   14  C   UNL     1       6.396  34.106  62.270  1.00  0.00     0.019 A 
HETATM   15  C   UNL     1       5.776  33.798  63.484  1.00  0.00     0.032 A 
HETATM   16  C   UNL     1       4.780  32.817  63.516  1.00  0.00     0.019 A 
HETATM   17  C   UNL     1       4.432  32.118  62.352  1.00  0.00     0.030 A 
BRANCH  15  18
HETATM   18  C   UNL     1       6.135  34.485  64.751  1.00  0.00     0.249 C 
HETATM   19  N   UNL     1       7.372  34.225  65.276  1.00  0.00    -0.366 N 
HETATM   20  H   UNL     1       7.934  33.443  64.973  1.00  0.00     0.159 HD
HETATM   21  H   UNL     1       7.551  34.602  66.199  1.00  0.00     0.159 HD
HETATM   22  O   UNL     1       5.350  35.219  65.335  1.00  0.00    -0.268 OA
ENDBRANCH  15  18
ENDBRANCH   9  12
ENDBRANCH   7   8
ENDBRANCH   6   7
ENDBRANCH   2   6
BRANCH   1  23
HETATM   23  C   UNL     1       7.923  29.007  56.748  1.00  0.00     0.049 A 
HETATM   24  C   UNL     1       8.772  29.022  55.620  1.00  0.00    -0.035 A 
HETATM   25  C   UNL     1       8.380  28.509  54.259  1.00  0.00     0.050 C 
HETATM   26  C   UNL     1      10.060  29.565  55.766  1.00  0.00     0.009 A 
HETATM   27  C   UNL     1      10.475  30.115  56.980  1.00  0.00     0.001 A 
HETATM   28  C   UNL     1       9.613  30.127  58.074  1.00  0.00     0.002 A 
HETATM   29  C   UNL     1       8.338  29.574  57.963  1.00  0.00     0.031 A 
ENDBRANCH   1  23
BRANCH   5  30
HETATM   30  C   UNL     1       7.159  25.881  56.700  1.00  0.00     0.040 A 
HETATM   31  C   UNL     1       7.512  24.918  55.704  1.00  0.00     0.006 A 
HETATM   32  C   UNL     1       8.307  23.953  56.328  1.00  0.00     0.043 A 
HETATM   33  C   UNL     1       7.250  24.770  54.324  1.00  0.00     0.015 A 
HETATM   34  C   UNL     1       8.848  22.855  55.648  1.00  0.00     0.030 A 
HETATM   35  N   UNL     1       8.415  24.310  57.652  1.00  0.00    -0.364 N 
HETATM   36  C   UNL     1       8.570  22.736  54.284  1.00  0.00     0.002 A 
HETATM   37  C   UNL     1       7.783  23.678  53.629  1.00  0.00     0.001 A 
HETATM   38  H   UNL     1       8.925  23.782  58.347  1.00  0.00     0.165 HD
HETATM   39  C   UNL     1       7.721  25.468  57.889  1.00  0.00     0.104 A 
ENDBRANCH   5  30
TORSDOF 7
ENDMDL
MODEL 5
REMARK VINA RESULT:     -10.4      4.057      9.977
REMARK  7 active torsions:
REMARK  status: ('A' for Active; 'I' for Inactive)
REMARK    1  A    between atoms: C_3  and  N_4 
REMARK    2  A    between atoms: C_5  and  S_6 
REMARK    3  A    between atoms: S_6  and  C_7 
REMARK    4  A    between atoms: C_7  and  C_8 
REMARK       I    between atoms: C_8  and  N_9 
REMARK    5  A    between atoms: N_9  and  C_10 
REMARK    6  A    between atoms: C_13  and  C_14 
REMARK       I    between atoms: C_14  and  N_15 
REMARK    7  A    between atoms: C_22  and  C_23 
ROOT
HETATM    1  N   UNL     1       5.501  29.019  55.484  1.00  0.00    -0.271 N 
HETATM    2  C   UNL     1       5.386  29.112  54.109  1.00  0.00     0.197 C 
HETATM    3  N   UNL     1       4.500  30.030  53.794  1.00  0.00    -0.122 NA
HETATM    4  N   UNL     1       4.103  30.640  54.949  1.00  0.00    -0.128 NA
HETATM    5  C   UNL     1       4.763  30.097  55.958  1.00  0.00     0.171 C 
ENDROOT
BRANCH   2   6
HETATM    6  S   UNL     1       6.177  28.080  52.962  1.00  0.00    -0.080 SA
BRANCH   6   7
HETATM    7  C   UNL     1       4.841  26.948  52.495  1.00  0.00     0.185 C 
BRANCH   7   8
HETATM    8  C   UNL     1       5.079  25.537  53.015  1.00  0.00     0.231 C 
HETATM    9  N   UNL     1       6.374  25.333  53.457  1.00  0.00    -0.327 N 
HETATM   10  H   UNL     1       6.929  26.176  53.615  1.00  0.00     0.169 HD
HETATM   11  O   UNL     1       4.183  24.696  52.987  1.00  0.00    -0.272 OA
BRANCH   9  12
HETATM   12  C   UNL     1       6.994  24.120  53.808  1.00  0.00     0.034 A 
HETATM   13  C   UNL     1       7.525  23.355  52.761  1.00  0.00     0.030 A 
HETATM   14  C   UNL     1       8.102  22.104  53.009  1.00  0.00     0.019 A 
HETATM   15  C   UNL     1       8.151  21.605  54.313  1.00  0.00     0.032 A 
HETATM   16  C   UNL     1       7.653  22.381  55.364  1.00  0.00     0.019 A 
HETATM   17  C   UNL     1       7.071  23.630  55.112  1.00  0.00     0.030 A 
BRANCH  15  18
HETATM   18  C   UNL     1       8.724  20.270  54.627  1.00  0.00     0.249 C 
HETATM   19  N   UNL     1       8.835  19.931  55.948  1.00  0.00    -0.366 N 
HETATM   20  H   UNL     1       8.760  20.613  56.689  1.00  0.00     0.159 HD
HETATM   21  H   UNL     1       9.340  19.076  56.146  1.00  0.00     0.159 HD
HETATM   22  O   UNL     1       9.127  19.517  53.751  1.00  0.00    -0.268 OA
ENDBRANCH  15  18
ENDBRANCH   9  12
ENDBRANCH   7   8
ENDBRANCH   6   7
ENDBRANCH   2   6
BRANCH   1  23
HETATM   23  C   UNL     1       6.120  27.986  56.234  1.00  0.00     0.049 A 
HETATM   24  C   UNL     1       7.524  27.936  56.383  1.00  0.00    -0.035 A 
HETATM   25  C   UNL     1       8.470  28.975  55.843  1.00  0.00     0.050 C 
HETATM   26  C   UNL     1       8.076  26.858  57.096  1.00  0.00     0.009 A 
HETATM   27  C   UNL     1       7.260  25.887  57.679  1.00  0.00     0.001 A 
HETATM   28  C   UNL     1       5.876  25.970  57.554  1.00  0.00     0.002 A 
HETATM   29  C   UNL     1       5.302  27.016  56.833  1.00  0.00     0.031 A 
ENDBRANCH   1  23
BRANCH   5  30
HETATM   30  C   UNL     1       4.728  30.668  57.343  1.00  0.00     0.040 A 
HETATM   31  C   UNL     1       5.855  31.073  58.124  1.00  0.00     0.006 A 
HETATM   32  C   UNL     1       5.364  31.524  59.352  1.00  0.00     0.043 A 
HETATM   33  C   UNL     1       7.250  31.115  57.912  1.00  0.00     0.015 A 
HETATM   34  C   UNL     1       6.191  32.011  60.371  1.00  0.00     0.030 A 
HETATM   35  N   UNL     1       3.996  31.382  59.319  1.00  0.00    -0.364 N 
HETATM   36  C   UNL     1       7.567  32.041  60.131  1.00  0.00     0.002 A 
HETATM   37  C   UNL     1       8.092  31.600  58.920  1.00  0.00     0.001 A 
HETATM   38  H   UNL     1       3.378  31.618  60.083  1.00  0.00     0.165 HD
HETATM   39  C   UNL     1       3.602  30.861  58.115  1.00  0.00     0.104 A 
ENDBRANCH   5  30
TORSDOF 7
ENDMDL
MODEL 6
REMARK VINA RESULT:      -9.8      6.668     11.362
REMARK  7 active torsions:
REMARK  status: ('A' for Active; 'I' for Inactive)
REMARK    1  A    between atoms: C_3  and  N_4 
REMARK    2  A    between atoms: C_5  and  S_6 
REMARK    3  A    between atoms: S_6  and  C_7 
REMARK    4  A    between atoms: C_7  and  C_8 
REMARK       I    between atoms: C_8  and  N_9 
REMARK    5  A    between atoms: N_9  and  C_10 
REMARK    6  A    between atoms: C_13  and  C_14 
REMARK       I    between atoms: C_14  and  N_15 
REMARK    7  A    between atoms: C_22  and  C_23 
ROOT
HETATM    1  N   UNL     1       4.388  29.327  49.675  1.00  0.00    -0.271 N 
HETATM    2  C   UNL     1       5.185  28.879  50.714  1.00  0.00     0.197 C 
HETATM    3  N   UNL     1       6.116  29.766  50.980  1.00  0.00    -0.122 NA
HETATM    4  N   UNL     1       5.880  30.865  50.205  1.00  0.00    -0.128 NA
HETATM    5  C   UNL     1       4.796  30.642  49.482  1.00  0.00     0.171 C 
ENDROOT
BRANCH   2   6
HETATM    6  S   UNL     1       5.073  27.320  51.464  1.00  0.00    -0.080 SA
BRANCH   6   7
HETATM    7  C   UNL     1       5.958  27.590  53.022  1.00  0.00     0.185 C 
BRANCH   7   8
HETATM    8  C   UNL     1       6.180  26.292  53.786  1.00  0.00     0.231 C 
HETATM    9  N   UNL     1       7.405  25.707  53.515  1.00  0.00    -0.327 N 
HETATM   10  H   UNL     1       8.093  26.305  53.055  1.00  0.00     0.169 HD
HETATM   11  O   UNL     1       5.310  25.840  54.526  1.00  0.00    -0.272 OA
BRANCH   9  12
HETATM   12  C   UNL     1       7.856  24.425  53.878  1.00  0.00     0.034 A 
HETATM   13  C   UNL     1       7.759  23.422  52.906  1.00  0.00     0.030 A 
HETATM   14  C   UNL     1       8.124  22.102  53.198  1.00  0.00     0.019 A 
HETATM   15  C   UNL     1       8.589  21.774  54.474  1.00  0.00     0.032 A 
HETATM   16  C   UNL     1       8.721  22.781  55.436  1.00  0.00     0.019 A 
HETATM   17  C   UNL     1       8.349  24.099  55.142  1.00  0.00     0.030 A 
BRANCH  15  18
HETATM   18  C   UNL     1       8.961  20.385  54.846  1.00  0.00     0.249 C 
HETATM   19  N   UNL     1       9.366  20.169  56.135  1.00  0.00    -0.366 N 
HETATM   20  H   UNL     1       9.633  20.923  56.752  1.00  0.00     0.159 HD
HETATM   21  H   UNL     1       9.733  19.246  56.337  1.00  0.00     0.159 HD
HETATM   22  O   UNL     1       8.953  19.472  54.031  1.00  0.00    -0.268 OA
ENDBRANCH  15  18
ENDBRANCH   9  12
ENDBRANCH   7   8
ENDBRANCH   6   7
ENDBRANCH   2   6
BRANCH   1  23
HETATM   23  C   UNL     1       3.466  28.576  48.904  1.00  0.00     0.049 A 
HETATM   24  C   UNL     1       3.897  27.796  47.808  1.00  0.00    -0.035 A 
HETATM   25  C   UNL     1       5.338  27.629  47.404  1.00  0.00     0.050 C 
HETATM   26  C   UNL     1       2.925  27.115  47.055  1.00  0.00     0.009 A 
HETATM   27  C   UNL     1       1.575  27.172  47.405  1.00  0.00     0.001 A 
HETATM   28  C   UNL     1       1.168  27.916  48.509  1.00  0.00     0.002 A 
HETATM   29  C   UNL     1       2.109  28.619  49.260  1.00  0.00     0.031 A 
ENDBRANCH   1  23
BRANCH   5  30
HETATM   30  C   UNL     1       4.130  31.717  48.677  1.00  0.00     0.040 A 
HETATM   31  C   UNL     1       4.110  31.824  47.252  1.00  0.00     0.006 A 
HETATM   32  C   UNL     1       3.398  32.984  46.936  1.00  0.00     0.043 A 
HETATM   33  C   UNL     1       4.615  31.045  46.188  1.00  0.00     0.015 A 
HETATM   34  C   UNL     1       3.168  33.402  45.620  1.00  0.00     0.030 A 
HETATM   35  N   UNL     1       3.017  33.563  48.124  1.00  0.00    -0.364 N 
HETATM   36  C   UNL     1       3.680  32.610  44.589  1.00  0.00     0.002 A 
HETATM   37  C   UNL     1       4.393  31.448  44.865  1.00  0.00     0.001 A 
HETATM   38  H   UNL     1       2.497  34.427  48.199  1.00  0.00     0.165 HD
HETATM   39  C   UNL     1       3.459  32.811  49.181  1.00  0.00     0.104 A 
ENDBRANCH   5  30
TORSDOF 7
ENDMDL
MODEL 7
REMARK VINA RESULT:      -9.8      6.489     11.260
REMARK  7 active torsions:
REMARK  status: ('A' for Active; 'I' for Inactive)
REMARK    1  A    between atoms: C_3  and  N_4 
REMARK    2  A    between atoms: C_5  and  S_6 
REMARK    3  A    between atoms: S_6  and  C_7 
REMARK    4  A    between atoms: C_7  and  C_8 
REMARK       I    between atoms: C_8  and  N_9 
REMARK    5  A    between atoms: N_9  and  C_10 
REMARK    6  A    between atoms: C_13  and  C_14 
REMARK       I    between atoms: C_14  and  N_15 
REMARK    7  A    between atoms: C_22  and  C_23 
ROOT
HETATM    1  N   UNL     1       4.568  28.945  49.695  1.00  0.00    -0.271 N 
HETATM    2  C   UNL     1       5.056  28.772  50.978  1.00  0.00     0.197 C 
HETATM    3  N   UNL     1       6.041  29.612  51.200  1.00  0.00    -0.122 NA
HETATM    4  N   UNL     1       6.144  30.432  50.114  1.00  0.00    -0.128 NA
HETATM    5  C   UNL     1       5.208  30.093  49.243  1.00  0.00     0.171 C 
ENDROOT
BRANCH   2   6
HETATM    6  S   UNL     1       4.549  27.539  52.087  1.00  0.00    -0.080 SA
BRANCH   6   7
HETATM    7  C   UNL     1       5.663  27.817  53.489  1.00  0.00     0.185 C 
BRANCH   7   8
HETATM    8  C   UNL     1       6.732  26.738  53.593  1.00  0.00     0.231 C 
HETATM    9  N   UNL     1       6.207  25.460  53.653  1.00  0.00    -0.327 N 
HETATM   10  H   UNL     1       5.227  25.366  53.379  1.00  0.00     0.169 HD
HETATM   11  O   UNL     1       7.923  27.035  53.651  1.00  0.00    -0.272 OA
BRANCH   9  12
HETATM   12  C   UNL     1       6.874  24.257  53.950  1.00  0.00     0.034 A 
HETATM   13  C   UNL     1       7.403  23.543  52.867  1.00  0.00     0.030 A 
HETATM   14  C   UNL     1       8.026  22.304  53.060  1.00  0.00     0.019 A 
HETATM   15  C   UNL     1       8.124  21.767  54.347  1.00  0.00     0.032 A 
HETATM   16  C   UNL     1       7.628  22.494  55.434  1.00  0.00     0.019 A 
HETATM   17  C   UNL     1       7.000  23.730  55.235  1.00  0.00     0.030 A 
BRANCH  15  18
HETATM   18  C   UNL     1       8.748  20.443  54.604  1.00  0.00     0.249 C 
HETATM   19  N   UNL     1       9.268  20.228  55.851  1.00  0.00    -0.366 N 
HETATM   20  H   UNL     1       9.444  20.981  56.500  1.00  0.00     0.159 HD
HETATM   21  H   UNL     1       9.797  19.373  55.970  1.00  0.00     0.159 HD
HETATM   22  O   UNL     1       8.839  19.590  53.732  1.00  0.00    -0.268 OA
ENDBRANCH  15  18
ENDBRANCH   9  12
ENDBRANCH   7   8
ENDBRANCH   6   7
ENDBRANCH   2   6
BRANCH   1  23
HETATM   23  C   UNL     1       3.715  28.076  48.968  1.00  0.00     0.049 A 
HETATM   24  C   UNL     1       2.316  28.266  48.962  1.00  0.00    -0.035 A 
HETATM   25  C   UNL     1       1.615  29.413  49.642  1.00  0.00     0.050 C 
HETATM   26  C   UNL     1       1.523  27.340  48.262  1.00  0.00     0.009 A 
HETATM   27  C   UNL     1       2.104  26.285  47.556  1.00  0.00     0.001 A 
HETATM   28  C   UNL     1       3.488  26.131  47.541  1.00  0.00     0.002 A 
HETATM   29  C   UNL     1       4.296  27.023  48.245  1.00  0.00     0.031 A 
ENDBRANCH   1  23
BRANCH   5  30
HETATM   30  C   UNL     1       4.898  30.920  48.032  1.00  0.00     0.040 A 
HETATM   31  C   UNL     1       4.879  32.348  47.959  1.00  0.00     0.006 A 
HETATM   32  C   UNL     1       4.523  32.688  46.652  1.00  0.00     0.043 A 
HETATM   33  C   UNL     1       5.143  33.394  48.870  1.00  0.00     0.015 A 
HETATM   34  C   UNL     1       4.415  34.013  46.213  1.00  0.00     0.030 A 
HETATM   35  N   UNL     1       4.317  31.513  45.968  1.00  0.00    -0.364 N 
HETATM   36  C   UNL     1       4.683  35.027  47.137  1.00  0.00     0.002 A 
HETATM   37  C   UNL     1       5.042  34.725  48.446  1.00  0.00     0.001 A 
HETATM   38  H   UNL     1       4.034  31.457  44.999  1.00  0.00     0.165 HD
HETATM   39  C   UNL     1       4.534  30.440  46.792  1.00  0.00     0.104 A 
ENDBRANCH   5  30
TORSDOF 7
ENDMDL
MODEL 8
REMARK VINA RESULT:      -9.6      3.653     10.502
REMARK  7 active torsions:
REMARK  status: ('A' for Active; 'I' for Inactive)
REMARK    1  A    between atoms: C_3  and  N_4 
REMARK    2  A    between atoms: C_5  and  S_6 
REMARK    3  A    between atoms: S_6  and  C_7 
REMARK    4  A    between atoms: C_7  and  C_8 
REMARK       I    between atoms: C_8  and  N_9 
REMARK    5  A    between atoms: N_9  and  C_10 
REMARK    6  A    between atoms: C_13  and  C_14 
REMARK       I    between atoms: C_14  and  N_15 
REMARK    7  A    between atoms: C_22  and  C_23 
ROOT
HETATM    1  N   UNL     1       6.219  30.710  57.747  1.00  0.00    -0.271 N 
HETATM    2  C   UNL     1       6.918  29.560  57.425  1.00  0.00     0.197 C 
HETATM    3  N   UNL     1       7.967  29.439  58.205  1.00  0.00    -0.122 NA
HETATM    4  N   UNL     1       7.915  30.440  59.133  1.00  0.00    -0.128 NA
HETATM    5  C   UNL     1       6.823  31.155  58.916  1.00  0.00     0.171 C 
ENDROOT
BRANCH   2   6
HETATM    6  S   UNL     1       6.557  28.505  56.097  1.00  0.00    -0.080 SA
BRANCH   6   7
HETATM    7  C   UNL     1       5.234  27.476  56.787  1.00  0.00     0.185 C 
BRANCH   7   8
HETATM    8  C   UNL     1       5.557  25.991  56.695  1.00  0.00     0.231 C 
HETATM    9  N   UNL     1       6.659  25.725  55.901  1.00  0.00    -0.327 N 
HETATM   10  H   UNL     1       7.255  26.524  55.682  1.00  0.00     0.169 HD
HETATM   11  O   UNL     1       4.854  25.157  57.260  1.00  0.00    -0.272 OA
BRANCH   9  12
HETATM   12  C   UNL     1       7.116  24.478  55.435  1.00  0.00     0.034 A 
HETATM   13  C   UNL     1       6.940  24.209  54.072  1.00  0.00     0.030 A 
HETATM   14  C   UNL     1       7.305  22.969  53.533  1.00  0.00     0.019 A 
HETATM   15  C   UNL     1       7.850  21.983  54.360  1.00  0.00     0.032 A 
HETATM   16  C   UNL     1       8.059  22.262  55.714  1.00  0.00     0.019 A 
HETATM   17  C   UNL     1       7.687  23.501  56.251  1.00  0.00     0.030 A 
BRANCH  15  18
HETATM   18  C   UNL     1       8.226  20.641  53.845  1.00  0.00     0.249 C 
HETATM   19  N   UNL     1       7.989  20.389  52.522  1.00  0.00    -0.366 N 
HETATM   20  H   UNL     1       7.383  20.970  51.960  1.00  0.00     0.159 HD
HETATM   21  H   UNL     1       8.134  19.433  52.219  1.00  0.00     0.159 HD
HETATM   22  O   UNL     1       8.686  19.774  54.575  1.00  0.00    -0.268 OA
ENDBRANCH  15  18
ENDBRANCH   9  12
ENDBRANCH   7   8
ENDBRANCH   6   7
ENDBRANCH   2   6
BRANCH   1  23
HETATM   23  C   UNL     1       5.208  31.351  56.986  1.00  0.00     0.049 A 
HETATM   24  C   UNL     1       3.840  31.108  57.241  1.00  0.00    -0.035 A 
HETATM   25  C   UNL     1       3.330  30.231  58.353  1.00  0.00     0.050 C 
HETATM   26  C   UNL     1       2.891  31.738  56.418  1.00  0.00     0.009 A 
HETATM   27  C   UNL     1       3.285  32.613  55.404  1.00  0.00     0.001 A 
HETATM   28  C   UNL     1       4.636  32.871  55.189  1.00  0.00     0.002 A 
HETATM   29  C   UNL     1       5.600  32.243  55.976  1.00  0.00     0.031 A 
ENDBRANCH   1  23
BRANCH   5  30
HETATM   30  C   UNL     1       6.343  32.201  59.876  1.00  0.00     0.040 A 
HETATM   31  C   UNL     1       6.816  32.414  61.208  1.00  0.00     0.006 A 
HETATM   32  C   UNL     1       6.079  33.475  61.742  1.00  0.00     0.043 A 
HETATM   33  C   UNL     1       7.809  31.822  62.019  1.00  0.00     0.015 A 
HETATM   34  C   UNL     1       6.282  33.968  63.036  1.00  0.00     0.030 A 
HETATM   35  N   UNL     1       5.185  33.875  60.776  1.00  0.00    -0.364 N 
HETATM   36  C   UNL     1       7.272  33.362  63.814  1.00  0.00     0.002 A 
HETATM   37  C   UNL     1       8.027  32.304  63.315  1.00  0.00     0.001 A 
HETATM   38  H   UNL     1       4.511  34.619  60.893  1.00  0.00     0.165 HD
HETATM   39  C   UNL     1       5.331  33.109  59.649  1.00  0.00     0.104 A 
ENDBRANCH   5  30
TORSDOF 7
ENDMDL
MODEL 9
REMARK VINA RESULT:      -9.5      2.787      4.277
REMARK  7 active torsions:
REMARK  status: ('A' for Active; 'I' for Inactive)
REMARK    1  A    between atoms: C_3  and  N_4 
REMARK    2  A    between atoms: C_5  and  S_6 
REMARK    3  A    between atoms: S_6  and  C_7 
REMARK    4  A    between atoms: C_7  and  C_8 
REMARK       I    between atoms: C_8  and  N_9 
REMARK    5  A    between atoms: N_9  and  C_10 
REMARK    6  A    between atoms: C_13  and  C_14 
REMARK       I    between atoms: C_14  and  N_15 
REMARK    7  A    between atoms: C_22  and  C_23 
ROOT
HETATM    1  N   UNL     1       6.985  26.654  54.159  1.00  0.00    -0.271 N 
HETATM    2  C   UNL     1       6.266  27.136  53.079  1.00  0.00     0.197 C 
HETATM    3  N   UNL     1       6.357  26.300  52.071  1.00  0.00    -0.122 NA
HETATM    4  N   UNL     1       7.036  25.197  52.503  1.00  0.00    -0.128 NA
HETATM    5  C   UNL     1       7.341  25.366  53.779  1.00  0.00     0.171 C 
ENDROOT
BRANCH   2   6
HETATM    6  S   UNL     1       5.480  28.680  53.005  1.00  0.00    -0.080 SA
BRANCH   6   7
HETATM    7  C   UNL     1       4.158  28.485  54.229  1.00  0.00     0.185 C 
BRANCH   7   8
HETATM    8  C   UNL     1       3.926  29.760  55.029  1.00  0.00     0.231 C 
HETATM    9  N   UNL     1       4.690  29.822  56.181  1.00  0.00    -0.327 N 
HETATM   10  H   UNL     1       5.469  29.164  56.236  1.00  0.00     0.169 HD
HETATM   11  O   UNL     1       3.105  30.595  54.658  1.00  0.00    -0.272 OA
BRANCH   9  12
HETATM   12  C   UNL     1       4.589  30.739  57.243  1.00  0.00     0.034 A 
HETATM   13  C   UNL     1       5.622  31.677  57.369  1.00  0.00     0.030 A 
HETATM   14  C   UNL     1       5.640  32.587  58.433  1.00  0.00     0.019 A 
HETATM   15  C   UNL     1       4.619  32.562  59.387  1.00  0.00     0.032 A 
HETATM   16  C   UNL     1       3.568  31.650  59.245  1.00  0.00     0.019 A 
HETATM   17  C   UNL     1       3.557  30.738  58.181  1.00  0.00     0.030 A 
BRANCH  15  18
HETATM   18  C   UNL     1       4.605  33.484  60.552  1.00  0.00     0.249 C 
HETATM   19  N   UNL     1       5.636  33.380  61.445  1.00  0.00    -0.366 N 
HETATM   20  H   UNL     1       6.255  32.583  61.466  1.00  0.00     0.159 HD
HETATM   21  H   UNL     1       5.546  33.927  62.293  1.00  0.00     0.159 HD
HETATM   22  O   UNL     1       3.691  34.276  60.741  1.00  0.00    -0.268 OA
ENDBRANCH  15  18
ENDBRANCH   9  12
ENDBRANCH   7   8
ENDBRANCH   6   7
ENDBRANCH   2   6
BRANCH   1  23
HETATM   23  C   UNL     1       7.376  27.361  55.325  1.00  0.00     0.049 A 
HETATM   24  C   UNL     1       6.685  27.191  56.545  1.00  0.00    -0.035 A 
HETATM   25  C   UNL     1       5.550  26.223  56.747  1.00  0.00     0.050 C 
HETATM   26  C   UNL     1       7.093  27.959  57.650  1.00  0.00     0.009 A 
HETATM   27  C   UNL     1       8.176  28.834  57.557  1.00  0.00     0.001 A 
HETATM   28  C   UNL     1       8.870  28.964  56.358  1.00  0.00     0.002 A 
HETATM   29  C   UNL     1       8.474  28.231  55.240  1.00  0.00     0.031 A 
ENDBRANCH   1  23
BRANCH   5  30
HETATM   30  C   UNL     1       7.900  24.263  54.625  1.00  0.00     0.040 A 
HETATM   31  C   UNL     1       8.055  22.894  54.244  1.00  0.00     0.006 A 
HETATM   32  C   UNL     1       8.594  22.220  55.344  1.00  0.00     0.043 A 
HETATM   33  C   UNL     1       7.805  22.153  53.069  1.00  0.00     0.015 A 
HETATM   34  C   UNL     1       8.891  20.852  55.327  1.00  0.00     0.030 A 
HETATM   35  N   UNL     1       8.742  23.142  56.353  1.00  0.00    -0.364 N 
HETATM   36  C   UNL     1       8.632  20.146  54.149  1.00  0.00     0.002 A 
HETATM   37  C   UNL     1       8.098  20.784  53.035  1.00  0.00     0.001 A 
HETATM   38  H   UNL     1       9.099  22.929  57.275  1.00  0.00     0.165 HD
HETATM   39  C   UNL     1       8.321  24.376  55.933  1.00  0.00     0.104 A 
ENDBRANCH   5  30
TORSDOF 7
ENDMDL
MODEL 10
REMARK VINA RESULT:      -9.5      4.728      7.975
REMARK  7 active torsions:
REMARK  status: ('A' for Active; 'I' for Inactive)
REMARK    1  A    between atoms: C_3  and  N_4 
REMARK    2  A    between atoms: C_5  and  S_6 
REMARK    3  A    between atoms: S_6  and  C_7 
REMARK    4  A    between atoms: C_7  and  C_8 
REMARK       I    between atoms: C_8  and  N_9 
REMARK    5  A    between atoms: N_9  and  C_10 
REMARK    6  A    between atoms: C_13  and  C_14 
REMARK       I    between atoms: C_14  and  N_15 
REMARK    7  A    between atoms: C_22  and  C_23 
ROOT
HETATM    1  N   UNL     1       5.350  33.009  59.764  1.00  0.00    -0.271 N 
HETATM    2  C   UNL     1       4.669  34.211  59.684  1.00  0.00     0.197 C 
HETATM    3  N   UNL     1       4.219  34.391  58.464  1.00  0.00    -0.122 NA
HETATM    4  N   UNL     1       4.492  33.261  57.747  1.00  0.00    -0.128 NA
HETATM    5  C   UNL     1       5.094  32.395  58.544  1.00  0.00     0.171 C 
ENDROOT
BRANCH   2   6
HETATM    6  S   UNL     1       4.544  35.380  60.958  1.00  0.00    -0.080 SA
BRANCH   6   7
HETATM    7  C   UNL     1       2.953  34.946  61.710  1.00  0.00     0.185 C 
BRANCH   7   8
HETATM    8  C   UNL     1       3.077  34.695  63.206  1.00  0.00     0.231 C 
HETATM    9  N   UNL     1       4.135  35.375  63.784  1.00  0.00    -0.327 N 
HETATM   10  H   UNL     1       4.538  36.129  63.225  1.00  0.00     0.169 HD
HETATM   11  O   UNL     1       2.310  33.928  63.781  1.00  0.00    -0.272 OA
BRANCH   9  12
HETATM   12  C   UNL     1       4.662  35.225  65.079  1.00  0.00     0.034 A 
HETATM   13  C   UNL     1       5.699  34.297  65.237  1.00  0.00     0.030 A 
HETATM   14  C   UNL     1       6.241  34.034  66.500  1.00  0.00     0.019 A 
HETATM   15  C   UNL     1       5.746  34.702  67.623  1.00  0.00     0.032 A 
HETATM   16  C   UNL     1       4.735  35.655  67.464  1.00  0.00     0.019 A 
HETATM   17  C   UNL     1       4.191  35.911  66.199  1.00  0.00     0.030 A 
BRANCH  15  18
HETATM   18  C   UNL     1       6.264  34.439  68.991  1.00  0.00     0.249 C 
HETATM   19  N   UNL     1       6.199  33.151  69.448  1.00  0.00    -0.366 N 
HETATM   20  H   UNL     1       5.627  32.448  69.004  1.00  0.00     0.159 HD
HETATM   21  H   UNL     1       6.440  33.013  70.422  1.00  0.00     0.159 HD
HETATM   22  O   UNL     1       6.692  35.336  69.705  1.00  0.00    -0.268 OA
ENDBRANCH  15  18
ENDBRANCH   9  12
ENDBRANCH   7   8
ENDBRANCH   6   7
ENDBRANCH   2   6
BRANCH   1  23
HETATM   23  C   UNL     1       6.214  32.570  60.800  1.00  0.00     0.049 A 
HETATM   24  C   UNL     1       5.704  31.933  61.953  1.00  0.00    -0.035 A 
HETATM   25  C   UNL     1       4.251  31.600  62.163  1.00  0.00     0.050 C 
HETATM   26  C   UNL     1       6.611  31.568  62.963  1.00  0.00     0.009 A 
HETATM   27  C   UNL     1       7.981  31.788  62.815  1.00  0.00     0.001 A 
HETATM   28  C   UNL     1       8.472  32.384  61.657  1.00  0.00     0.002 A 
HETATM   29  C   UNL     1       7.594  32.776  60.648  1.00  0.00     0.031 A 
ENDBRANCH   1  23
BRANCH   5  30
HETATM   30  C   UNL     1       5.344  30.973  58.144  1.00  0.00     0.040 A 
HETATM   31  C   UNL     1       6.619  30.355  57.951  1.00  0.00     0.006 A 
HETATM   32  C   UNL     1       6.382  29.033  57.565  1.00  0.00     0.043 A 
HETATM   33  C   UNL     1       7.960  30.779  58.077  1.00  0.00     0.015 A 
HETATM   34  C   UNL     1       7.410  28.121  57.299  1.00  0.00     0.030 A 
HETATM   35  N   UNL     1       5.018  28.864  57.511  1.00  0.00    -0.364 N 
HETATM   36  C   UNL     1       8.727  28.571  57.432  1.00  0.00     0.002 A 
HETATM   37  C   UNL     1       9.001  29.880  57.816  1.00  0.00     0.001 A 
HETATM   38  H   UNL     1       4.558  28.004  57.244  1.00  0.00     0.165 HD
HETATM   39  C   UNL     1       4.382  30.029  57.852  1.00  0.00     0.104 A 
ENDBRANCH   5  30
TORSDOF 7
ENDMDL
