MODEL 1
REMARK VINA RESULT:      -8.8      0.000      0.000
REMARK  6 active torsions:
REMARK  status: ('A' for Active; 'I' for Inactive)
REMARK    1  A    between atoms: C_2  and  N_3 
REMARK    2  A    between atoms: C_2  and  C_21 
REMARK       I    between atoms: N_3  and  C_4 
REMARK       I    between atoms: C_4  and  N_5 
REMARK    3  A    between atoms: N_5  and  C_6 
REMARK    4  A    between atoms: C_9  and  O_10 
REMARK    5  A    between atoms: O_10  and  C_11 
REMARK    6  A    between atoms: C_11  and  C_12 
ROOT
HETATM    1  C   UNL     1       5.522  25.573  51.946  1.00  0.00     0.036 A 
HETATM    2  C   UNL     1       6.881  25.326  51.746  1.00  0.00     0.032 A 
HETATM    3  C   UNL     1       7.725  25.032  52.825  1.00  0.00     0.039 A 
HETATM    4  C   UNL     1       7.221  24.985  54.123  1.00  0.00     0.068 A 
HETATM    5  C   UNL     1       5.864  25.239  54.329  1.00  0.00     0.039 A 
HETATM    6  C   UNL     1       5.020  25.532  53.251  1.00  0.00     0.032 A 
ENDROOT
BRANCH   1   7
HETATM    7  N   UNL     1       4.623  25.884  50.907  1.00  0.00    -0.309 N 
HETATM    8  C   UNL     1       4.545  27.059  50.193  1.00  0.00     0.321 C 
HETATM    9  N   UNL     1       3.478  27.050  49.331  1.00  0.00    -0.332 N 
HETATM   10  O   UNL     1       5.307  28.013  50.269  1.00  0.00    -0.247 OA
HETATM   11  H   UNL     1       2.722  26.395  49.472  1.00  0.00     0.165 HD
HETATM   12  H   UNL     1       4.028  25.136  50.583  1.00  0.00     0.170 HD
BRANCH   9  13
HETATM   13  C   UNL     1       3.148  28.218  48.520  1.00  0.00     0.155 C 
HETATM   14  C   UNL     1       2.661  29.377  49.392  1.00  0.00     0.041 C 
BRANCH  13  15
HETATM   15  C   UNL     1       2.087  27.815  47.531  1.00  0.00     0.169 A 
HETATM   16  N   UNL     1       2.074  26.629  46.906  1.00  0.00    -0.156 NA
HETATM   17  N   UNL     1       0.977  26.737  46.141  1.00  0.00    -0.270 N 
HETATM   18  H   UNL     1       0.709  25.963  45.543  1.00  0.00     0.190 HD
HETATM   19  C   UNL     1       0.374  27.943  46.310  1.00  0.00     0.227 A 
HETATM   20  N   UNL     1       1.047  28.655  47.183  1.00  0.00    -0.223 NA
ENDBRANCH  13  15
ENDBRANCH   9  13
ENDBRANCH   1   7
BRANCH   4  21
HETATM   21  O   UNL     1       7.938  24.710  55.254  1.00  0.00    -0.351 OA
BRANCH  21  22
HETATM   22  C   UNL     1       7.562  23.538  55.982  1.00  0.00     0.180 C 
BRANCH  22  23
HETATM   23  C   UNL     1       8.789  22.618  56.130  1.00  0.00     0.010 C 
HETATM   24  C   UNL     1       8.407  21.287  56.796  1.00  0.00     0.007 C 
HETATM   25  C   UNL     1       7.612  20.366  55.871  1.00  0.00     0.000 C 
HETATM   26  C   UNL     1       8.339  20.131  54.551  1.00  0.00     0.000 C 
HETATM   27  C   UNL     1       8.715  21.439  53.863  1.00  0.00     0.000 C 
HETATM   28  C   UNL     1       9.503  22.362  54.792  1.00  0.00     0.007 C 
ENDBRANCH  22  23
ENDBRANCH  21  22
ENDBRANCH   4  21
TORSDOF 6
ENDMDL
MODEL 2
REMARK VINA RESULT:      -8.8      8.190     10.655
REMARK  6 active torsions:
REMARK  status: ('A' for Active; 'I' for Inactive)
REMARK    1  A    between atoms: C_2  and  N_3 
REMARK    2  A    between atoms: C_2  and  C_21 
REMARK       I    between atoms: N_3  and  C_4 
REMARK       I    between atoms: C_4  and  N_5 
REMARK    3  A    between atoms: N_5  and  C_6 
REMARK    4  A    between atoms: C_9  and  O_10 
REMARK    5  A    between atoms: O_10  and  C_11 
REMARK    6  A    between atoms: C_11  and  C_12 
ROOT
HETATM    1  C   UNL     1       7.967  29.713  58.212  1.00  0.00     0.036 A 
HETATM    2  C   UNL     1       9.244  29.698  57.650  1.00  0.00     0.032 A 
HETATM    3  C   UNL     1       9.439  29.296  56.321  1.00  0.00     0.039 A 
HETATM    4  C   UNL     1       8.358  28.898  55.538  1.00  0.00     0.068 A 
HETATM    5  C   UNL     1       7.080  28.905  56.098  1.00  0.00     0.039 A 
HETATM    6  C   UNL     1       6.883  29.307  57.425  1.00  0.00     0.032 A 
ENDROOT
BRANCH   1   7
HETATM    7  N   UNL     1       7.703  30.096  59.542  1.00  0.00    -0.309 N 
HETATM    8  C   UNL     1       7.494  31.371  60.019  1.00  0.00     0.321 C 
HETATM    9  N   UNL     1       7.373  31.380  61.386  1.00  0.00    -0.332 N 
HETATM   10  O   UNL     1       7.406  32.395  59.356  1.00  0.00    -0.247 OA
HETATM   11  H   UNL     1       7.712  30.597  61.927  1.00  0.00     0.165 HD
HETATM   12  H   UNL     1       7.557  29.353  60.208  1.00  0.00     0.170 HD
BRANCH   9  13
HETATM   13  C   UNL     1       7.221  32.629  62.126  1.00  0.00     0.155 C 
HETATM   14  C   UNL     1       7.988  32.586  63.448  1.00  0.00     0.041 C 
BRANCH  13  15
HETATM   15  C   UNL     1       5.753  32.850  62.370  1.00  0.00     0.169 A 
HETATM   16  N   UNL     1       5.058  32.210  63.322  1.00  0.00    -0.156 NA
HETATM   17  N   UNL     1       3.828  32.717  63.150  1.00  0.00    -0.270 N 
HETATM   18  H   UNL     1       3.073  32.407  63.751  1.00  0.00     0.190 HD
HETATM   19  C   UNL     1       3.803  33.616  62.131  1.00  0.00     0.227 A 
HETATM   20  N   UNL     1       5.003  33.728  61.612  1.00  0.00    -0.223 NA
ENDBRANCH  13  15
ENDBRANCH   9  13
ENDBRANCH   1   7
BRANCH   4  21
HETATM   21  O   UNL     1       8.419  28.487  54.235  1.00  0.00    -0.351 OA
BRANCH  21  22
HETATM   22  C   UNL     1       7.294  27.753  53.742  1.00  0.00     0.180 C 
BRANCH  22  23
HETATM   23  C   UNL     1       7.565  26.245  53.897  1.00  0.00     0.010 C 
HETATM   24  C   UNL     1       6.423  25.551  54.654  1.00  0.00     0.007 C 
HETATM   25  C   UNL     1       5.152  25.412  53.817  1.00  0.00     0.000 C 
HETATM   26  C   UNL     1       5.428  24.720  52.486  1.00  0.00     0.000 C 
HETATM   27  C   UNL     1       6.549  25.401  51.708  1.00  0.00     0.000 C 
HETATM   28  C   UNL     1       7.816  25.546  52.550  1.00  0.00     0.007 C 
ENDBRANCH  22  23
ENDBRANCH  21  22
ENDBRANCH   4  21
TORSDOF 6
ENDMDL
MODEL 3
REMARK VINA RESULT:      -8.7      6.800      9.259
REMARK  6 active torsions:
REMARK  status: ('A' for Active; 'I' for Inactive)
REMARK    1  A    between atoms: C_2  and  N_3 
REMARK    2  A    between atoms: C_2  and  C_21 
REMARK       I    between atoms: N_3  and  C_4 
REMARK       I    between atoms: C_4  and  N_5 
REMARK    3  A    between atoms: N_5  and  C_6 
REMARK    4  A    between atoms: C_9  and  O_10 
REMARK    5  A    between atoms: O_10  and  C_11 
REMARK    6  A    between atoms: C_11  and  C_12 
ROOT
HETATM    1  C   UNL     1       7.601  27.635  57.118  1.00  0.00     0.036 A 
HETATM    2  C   UNL     1       7.829  28.033  55.800  1.00  0.00     0.032 A 
HETATM    3  C   UNL     1       7.543  27.174  54.730  1.00  0.00     0.039 A 
HETATM    4  C   UNL     1       7.027  25.900  54.965  1.00  0.00     0.068 A 
HETATM    5  C   UNL     1       6.805  25.496  56.281  1.00  0.00     0.039 A 
HETATM    6  C   UNL     1       7.089  26.354  57.351  1.00  0.00     0.032 A 
ENDROOT
BRANCH   1   7
HETATM    7  N   UNL     1       7.876  28.444  58.237  1.00  0.00    -0.309 N 
HETATM    8  C   UNL     1       7.562  29.774  58.404  1.00  0.00     0.321 C 
HETATM    9  N   UNL     1       8.079  30.267  59.575  1.00  0.00    -0.332 N 
HETATM   10  O   UNL     1       6.901  30.471  57.645  1.00  0.00    -0.247 OA
HETATM   11  H   UNL     1       8.829  29.776  60.041  1.00  0.00     0.165 HD
HETATM   12  H   UNL     1       8.263  27.983  59.047  1.00  0.00     0.170 HD
BRANCH   9  13
HETATM   13  C   UNL     1       7.939  31.676  59.933  1.00  0.00     0.155 C 
HETATM   14  C   UNL     1       9.244  32.234  60.505  1.00  0.00     0.041 C 
BRANCH  13  15
HETATM   15  C   UNL     1       6.826  31.793  60.938  1.00  0.00     0.169 A 
HETATM   16  N   UNL     1       5.580  32.174  60.619  1.00  0.00    -0.156 NA
HETATM   17  N   UNL     1       4.969  32.138  61.813  1.00  0.00    -0.270 N 
HETATM   18  H   UNL     1       3.988  32.383  61.878  1.00  0.00     0.190 HD
HETATM   19  C   UNL     1       5.828  31.755  62.795  1.00  0.00     0.227 A 
HETATM   20  N   UNL     1       7.013  31.527  62.281  1.00  0.00    -0.223 NA
ENDBRANCH  13  15
ENDBRANCH   9  13
ENDBRANCH   1   7
BRANCH   4  21
HETATM   21  O   UNL     1       6.708  24.975  54.010  1.00  0.00    -0.351 OA
BRANCH  21  22
HETATM   22  C   UNL     1       6.862  23.600  54.375  1.00  0.00     0.180 C 
BRANCH  22  23
HETATM   23  C   UNL     1       8.275  23.128  53.985  1.00  0.00     0.010 C 
HETATM   24  C   UNL     1       9.061  22.652  55.217  1.00  0.00     0.007 C 
HETATM   25  C   UNL     1       8.571  21.307  55.752  1.00  0.00     0.000 C 
HETATM   26  C   UNL     1       8.559  20.239  54.663  1.00  0.00     0.000 C 
HETATM   27  C   UNL     1       7.772  20.682  53.434  1.00  0.00     0.000 C 
HETATM   28  C   UNL     1       8.257  22.031  52.906  1.00  0.00     0.007 C 
ENDBRANCH  22  23
ENDBRANCH  21  22
ENDBRANCH   4  21
TORSDOF 6
ENDMDL
MODEL 4
REMARK VINA RESULT:      -8.5      7.921     10.574
REMARK  6 active torsions:
REMARK  status: ('A' for Active; 'I' for Inactive)
REMARK    1  A    between atoms: C_2  and  N_3 
REMARK    2  A    between atoms: C_2  and  C_21 
REMARK       I    between atoms: N_3  and  C_4 
REMARK       I    between atoms: C_4  and  N_5 
REMARK    3  A    between atoms: N_5  and  C_6 
REMARK    4  A    between atoms: C_9  and  O_10 
REMARK    5  A    between atoms: O_10  and  C_11 
REMARK    6  A    between atoms: C_11  and  C_12 
ROOT
HETATM    1  C   UNL     1       7.058  29.072  57.585  1.00  0.00     0.036 A 
HETATM    2  C   UNL     1       5.826  29.028  56.931  1.00  0.00     0.032 A 
HETATM    3  C   UNL     1       5.725  28.538  55.621  1.00  0.00     0.039 A 
HETATM    4  C   UNL     1       6.858  28.089  54.946  1.00  0.00     0.068 A 
HETATM    5  C   UNL     1       8.093  28.138  55.594  1.00  0.00     0.039 A 
HETATM    6  C   UNL     1       8.195  28.626  56.902  1.00  0.00     0.032 A 
ENDROOT
BRANCH   1   7
HETATM    7  N   UNL     1       7.230  29.562  58.895  1.00  0.00    -0.309 N 
HETATM    8  C   UNL     1       7.665  30.814  59.268  1.00  0.00     0.321 C 
HETATM    9  N   UNL     1       7.815  30.905  60.629  1.00  0.00    -0.332 N 
HETATM   10  O   UNL     1       7.892  31.761  58.528  1.00  0.00    -0.247 OA
HETATM   11  H   UNL     1       7.890  30.065  61.185  1.00  0.00     0.165 HD
HETATM   12  H   UNL     1       6.914  28.968  59.647  1.00  0.00     0.170 HD
BRANCH   9  13
HETATM   13  C   UNL     1       8.339  32.116  61.255  1.00  0.00     0.155 C 
HETATM   14  C   UNL     1       9.807  31.945  61.649  1.00  0.00     0.041 C 
BRANCH  13  15
HETATM   15  C   UNL     1       7.495  32.418  62.464  1.00  0.00     0.169 A 
HETATM   16  N   UNL     1       8.002  32.853  63.627  1.00  0.00    -0.156 NA
HETATM   17  N   UNL     1       6.897  32.967  64.380  1.00  0.00    -0.270 N 
HETATM   18  H   UNL     1       6.978  33.288  65.338  1.00  0.00     0.190 HD
HETATM   19  C   UNL     1       5.787  32.605  63.684  1.00  0.00     0.227 A 
HETATM   20  N   UNL     1       6.124  32.251  62.466  1.00  0.00    -0.223 NA
ENDBRANCH  13  15
ENDBRANCH   9  13
ENDBRANCH   1   7
BRANCH   4  21
HETATM   21  O   UNL     1       6.889  27.590  53.673  1.00  0.00    -0.351 OA
BRANCH  21  22
HETATM   22  C   UNL     1       7.561  26.341  53.491  1.00  0.00     0.180 C 
BRANCH  22  23
HETATM   23  C   UNL     1       6.617  25.194  53.896  1.00  0.00     0.010 C 
HETATM   24  C   UNL     1       6.569  24.105  52.813  1.00  0.00     0.007 C 
HETATM   25  C   UNL     1       7.844  23.266  52.756  1.00  0.00     0.000 C 
HETATM   26  C   UNL     1       8.187  22.669  54.118  1.00  0.00     0.000 C 
HETATM   27  C   UNL     1       8.255  23.734  55.208  1.00  0.00     0.000 C 
HETATM   28  C   UNL     1       6.982  24.577  55.257  1.00  0.00     0.007 C 
ENDBRANCH  22  23
ENDBRANCH  21  22
ENDBRANCH   4  21
TORSDOF 6
ENDMDL
MODEL 5
REMARK VINA RESULT:      -8.2      1.404      2.186
REMARK  6 active torsions:
REMARK  status: ('A' for Active; 'I' for Inactive)
REMARK    1  A    between atoms: C_2  and  N_3 
REMARK    2  A    between atoms: C_2  and  C_21 
REMARK       I    between atoms: N_3  and  C_4 
REMARK       I    between atoms: C_4  and  N_5 
REMARK    3  A    between atoms: N_5  and  C_6 
REMARK    4  A    between atoms: C_9  and  O_10 
REMARK    5  A    between atoms: O_10  and  C_11 
REMARK    6  A    between atoms: C_11  and  C_12 
ROOT
HETATM    1  C   UNL     1       5.526  25.732  51.988  1.00  0.00     0.036 A 
HETATM    2  C   UNL     1       4.943  25.153  53.116  1.00  0.00     0.032 A 
HETATM    3  C   UNL     1       5.718  24.823  54.237  1.00  0.00     0.039 A 
HETATM    4  C   UNL     1       7.090  25.063  54.242  1.00  0.00     0.068 A 
HETATM    5  C   UNL     1       7.679  25.634  53.113  1.00  0.00     0.039 A 
HETATM    6  C   UNL     1       6.906  25.966  51.993  1.00  0.00     0.032 A 
ENDROOT
BRANCH   1   7
HETATM    7  N   UNL     1       4.807  26.078  50.827  1.00  0.00    -0.309 N 
HETATM    8  C   UNL     1       4.048  27.207  50.620  1.00  0.00     0.321 C 
HETATM    9  N   UNL     1       3.402  27.161  49.410  1.00  0.00    -0.332 N 
HETATM   10  O   UNL     1       3.935  28.162  51.377  1.00  0.00    -0.247 OA
HETATM   11  H   UNL     1       3.286  26.277  48.935  1.00  0.00     0.165 HD
HETATM   12  H   UNL     1       4.933  25.483  50.022  1.00  0.00     0.170 HD
BRANCH   9  13
HETATM   13  C   UNL     1       2.478  28.215  49.003  1.00  0.00     0.155 C 
HETATM   14  C   UNL     1       1.351  27.657  48.132  1.00  0.00     0.041 C 
BRANCH  13  15
HETATM   15  C   UNL     1       3.262  29.258  48.253  1.00  0.00     0.169 A 
HETATM   16  N   UNL     1       3.106  30.577  48.443  1.00  0.00    -0.156 NA
HETATM   17  N   UNL     1       3.988  31.084  47.568  1.00  0.00    -0.270 N 
HETATM   18  H   UNL     1       4.092  32.089  47.492  1.00  0.00     0.190 HD
HETATM   19  C   UNL     1       4.630  30.098  46.887  1.00  0.00     0.227 A 
HETATM   20  N   UNL     1       4.199  28.927  47.293  1.00  0.00    -0.223 NA
ENDBRANCH  13  15
ENDBRANCH   9  13
ENDBRANCH   1   7
BRANCH   4  21
HETATM   21  O   UNL     1       7.950  24.787  55.269  1.00  0.00    -0.351 OA
BRANCH  21  22
HETATM   22  C   UNL     1       7.669  23.617  56.042  1.00  0.00     0.180 C 
BRANCH  22  23
HETATM   23  C   UNL     1       8.860  22.646  55.941  1.00  0.00     0.010 C 
HETATM   24  C   UNL     1       8.519  21.284  56.566  1.00  0.00     0.007 C 
HETATM   25  C   UNL     1       7.555  20.462  55.712  1.00  0.00     0.000 C 
HETATM   26  C   UNL     1       8.067  20.299  54.284  1.00  0.00     0.000 C 
HETATM   27  C   UNL     1       8.398  21.640  53.637  1.00  0.00     0.000 C 
HETATM   28  C   UNL     1       9.356  22.463  54.497  1.00  0.00     0.007 C 
ENDBRANCH  22  23
ENDBRANCH  21  22
ENDBRANCH   4  21
TORSDOF 6
ENDMDL
MODEL 6
REMARK VINA RESULT:      -8.2      6.878      8.680
REMARK  6 active torsions:
REMARK  status: ('A' for Active; 'I' for Inactive)
REMARK    1  A    between atoms: C_2  and  N_3 
REMARK    2  A    between atoms: C_2  and  C_21 
REMARK       I    between atoms: N_3  and  C_4 
REMARK       I    between atoms: C_4  and  N_5 
REMARK    3  A    between atoms: N_5  and  C_6 
REMARK    4  A    between atoms: C_9  and  O_10 
REMARK    5  A    between atoms: O_10  and  C_11 
REMARK    6  A    between atoms: C_11  and  C_12 
ROOT
HETATM    1  C   UNL     1       5.246  28.289  56.797  1.00  0.00     0.036 A 
HETATM    2  C   UNL     1       4.656  28.200  55.536  1.00  0.00     0.032 A 
HETATM    3  C   UNL     1       5.090  27.246  54.605  1.00  0.00     0.039 A 
HETATM    4  C   UNL     1       6.125  26.369  54.923  1.00  0.00     0.068 A 
HETATM    5  C   UNL     1       6.723  26.460  56.181  1.00  0.00     0.039 A 
HETATM    6  C   UNL     1       6.290  27.412  57.112  1.00  0.00     0.032 A 
ENDROOT
BRANCH   1   7
HETATM    7  N   UNL     1       4.865  29.231  57.774  1.00  0.00    -0.309 N 
HETATM    8  C   UNL     1       5.287  30.537  57.884  1.00  0.00     0.321 C 
HETATM    9  N   UNL     1       4.792  31.127  59.020  1.00  0.00    -0.332 N 
HETATM   10  O   UNL     1       5.999  31.145  57.098  1.00  0.00    -0.247 OA
HETATM   11  H   UNL     1       4.446  30.553  59.776  1.00  0.00     0.165 HD
HETATM   12  H   UNL     1       4.133  28.954  58.410  1.00  0.00     0.170 HD
BRANCH   9  13
HETATM   13  C   UNL     1       5.165  32.489  59.391  1.00  0.00     0.155 C 
HETATM   14  C   UNL     1       6.454  32.506  60.215  1.00  0.00     0.041 C 
BRANCH  13  15
HETATM   15  C   UNL     1       4.026  33.087  60.173  1.00  0.00     0.169 A 
HETATM   16  N   UNL     1       2.737  32.816  59.924  1.00  0.00    -0.156 NA
HETATM   17  N   UNL     1       2.117  33.569  60.846  1.00  0.00    -0.270 N 
HETATM   18  H   UNL     1       1.105  33.561  60.896  1.00  0.00     0.190 HD
HETATM   19  C   UNL     1       3.012  34.258  61.602  1.00  0.00     0.227 A 
HETATM   20  N   UNL     1       4.232  33.979  61.208  1.00  0.00    -0.223 NA
ENDBRANCH  13  15
ENDBRANCH   9  13
ENDBRANCH   1   7
BRANCH   4  21
HETATM   21  O   UNL     1       6.636  25.399  54.106  1.00  0.00    -0.351 OA
BRANCH  21  22
HETATM   22  C   UNL     1       6.694  24.075  54.643  1.00  0.00     0.180 C 
BRANCH  22  23
HETATM   23  C   UNL     1       8.138  23.549  54.539  1.00  0.00     0.010 C 
HETATM   24  C   UNL     1       8.492  22.661  55.742  1.00  0.00     0.007 C 
HETATM   25  C   UNL     1       7.808  21.295  55.696  1.00  0.00     0.000 C 
HETATM   26  C   UNL     1       8.084  20.573  54.381  1.00  0.00     0.000 C 
HETATM   27  C   UNL     1       7.725  21.429  53.171  1.00  0.00     0.000 C 
HETATM   28  C   UNL     1       8.403  22.797  53.224  1.00  0.00     0.007 C 
ENDBRANCH  22  23
ENDBRANCH  21  22
ENDBRANCH   4  21
TORSDOF 6
ENDMDL
MODEL 7
REMARK VINA RESULT:      -8.1      5.831      7.478
REMARK  6 active torsions:
REMARK  status: ('A' for Active; 'I' for Inactive)
REMARK    1  A    between atoms: C_2  and  N_3 
REMARK    2  A    between atoms: C_2  and  C_21 
REMARK       I    between atoms: N_3  and  C_4 
REMARK       I    between atoms: C_4  and  N_5 
REMARK    3  A    between atoms: N_5  and  C_6 
REMARK    4  A    between atoms: C_9  and  O_10 
REMARK    5  A    between atoms: O_10  and  C_11 
REMARK    6  A    between atoms: C_11  and  C_12 
ROOT
HETATM    1  C   UNL     1       4.935  27.646  56.136  1.00  0.00     0.036 A 
HETATM    2  C   UNL     1       5.346  26.422  56.667  1.00  0.00     0.032 A 
HETATM    3  C   UNL     1       6.015  25.482  55.872  1.00  0.00     0.039 A 
HETATM    4  C   UNL     1       6.279  25.752  54.530  1.00  0.00     0.068 A 
HETATM    5  C   UNL     1       5.863  26.971  53.994  1.00  0.00     0.039 A 
HETATM    6  C   UNL     1       5.195  27.912  54.788  1.00  0.00     0.032 A 
ENDROOT
BRANCH   1   7
HETATM    7  N   UNL     1       4.250  28.628  56.878  1.00  0.00    -0.309 N 
HETATM    8  C   UNL     1       4.785  29.744  57.481  1.00  0.00     0.321 C 
HETATM    9  N   UNL     1       3.839  30.421  58.209  1.00  0.00    -0.332 N 
HETATM   10  O   UNL     1       5.942  30.134  57.404  1.00  0.00    -0.247 OA
HETATM   11  H   UNL     1       2.986  29.955  58.483  1.00  0.00     0.165 HD
HETATM   12  H   UNL     1       3.243  28.565  56.894  1.00  0.00     0.170 HD
BRANCH   9  13
HETATM   13  C   UNL     1       4.189  31.597  59.000  1.00  0.00     0.155 C 
HETATM   14  C   UNL     1       3.227  31.780  60.175  1.00  0.00     0.041 C 
BRANCH  13  15
HETATM   15  C   UNL     1       4.154  32.797  58.092  1.00  0.00     0.169 A 
HETATM   16  N   UNL     1       5.250  33.473  57.719  1.00  0.00    -0.156 NA
HETATM   17  N   UNL     1       4.726  34.434  56.943  1.00  0.00    -0.270 N 
HETATM   18  H   UNL     1       5.341  35.113  56.508  1.00  0.00     0.190 HD
HETATM   19  C   UNL     1       3.374  34.327  56.870  1.00  0.00     0.227 A 
HETATM   20  N   UNL     1       2.973  33.302  57.585  1.00  0.00    -0.223 NA
ENDBRANCH  13  15
ENDBRANCH   9  13
ENDBRANCH   1   7
BRANCH   4  21
HETATM   21  O   UNL     1       6.921  24.921  53.655  1.00  0.00    -0.351 OA
BRANCH  21  22
HETATM   22  C   UNL     1       6.899  23.525  53.964  1.00  0.00     0.180 C 
BRANCH  22  23
HETATM   23  C   UNL     1       8.339  22.978  53.940  1.00  0.00     0.010 C 
HETATM   24  C   UNL     1       8.968  23.009  55.342  1.00  0.00     0.007 C 
HETATM   25  C   UNL     1       8.395  21.944  56.275  1.00  0.00     0.000 C 
HETATM   26  C   UNL     1       8.489  20.549  55.662  1.00  0.00     0.000 C 
HETATM   27  C   UNL     1       7.857  20.490  54.276  1.00  0.00     0.000 C 
HETATM   28  C   UNL     1       8.425  21.561  53.347  1.00  0.00     0.007 C 
ENDBRANCH  22  23
ENDBRANCH  21  22
ENDBRANCH   4  21
TORSDOF 6
ENDMDL
MODEL 8
REMARK VINA RESULT:      -8.1      1.474      2.055
REMARK  6 active torsions:
REMARK  status: ('A' for Active; 'I' for Inactive)
REMARK    1  A    between atoms: C_2  and  N_3 
REMARK    2  A    between atoms: C_2  and  C_21 
REMARK       I    between atoms: N_3  and  C_4 
REMARK       I    between atoms: C_4  and  N_5 
REMARK    3  A    between atoms: N_5  and  C_6 
REMARK    4  A    between atoms: C_9  and  O_10 
REMARK    5  A    between atoms: O_10  and  C_11 
REMARK    6  A    between atoms: C_11  and  C_12 
ROOT
HETATM    1  C   UNL     1       5.667  26.915  52.837  1.00  0.00     0.036 A 
HETATM    2  C   UNL     1       5.040  25.787  53.366  1.00  0.00     0.032 A 
HETATM    3  C   UNL     1       5.670  25.007  54.346  1.00  0.00     0.039 A 
HETATM    4  C   UNL     1       6.942  25.344  54.806  1.00  0.00     0.068 A 
HETATM    5  C   UNL     1       7.576  26.467  54.274  1.00  0.00     0.039 A 
HETATM    6  C   UNL     1       6.946  27.248  53.296  1.00  0.00     0.032 A 
ENDROOT
BRANCH   1   7
HETATM    7  N   UNL     1       5.094  27.735  51.844  1.00  0.00    -0.309 N 
HETATM    8  C   UNL     1       4.992  27.468  50.497  1.00  0.00     0.321 C 
HETATM    9  N   UNL     1       4.473  28.539  49.814  1.00  0.00    -0.332 N 
HETATM   10  O   UNL     1       5.297  26.427  49.932  1.00  0.00    -0.247 OA
HETATM   11  H   UNL     1       4.484  29.458  50.233  1.00  0.00     0.165 HD
HETATM   12  H   UNL     1       4.622  28.568  52.161  1.00  0.00     0.170 HD
BRANCH   9  13
HETATM   13  C   UNL     1       4.340  28.519  48.360  1.00  0.00     0.155 C 
HETATM   14  C   UNL     1       4.148  29.930  47.802  1.00  0.00     0.041 C 
BRANCH  13  15
HETATM   15  C   UNL     1       3.166  27.645  48.011  1.00  0.00     0.169 A 
HETATM   16  N   UNL     1       1.966  27.752  48.600  1.00  0.00    -0.156 NA
HETATM   17  N   UNL     1       1.272  26.784  47.981  1.00  0.00    -0.270 N 
HETATM   18  H   UNL     1       0.301  26.631  48.230  1.00  0.00     0.190 HD
HETATM   19  C   UNL     1       2.040  26.132  47.069  1.00  0.00     0.227 A 
HETATM   20  N   UNL     1       3.246  26.648  47.058  1.00  0.00    -0.223 NA
ENDBRANCH  13  15
ENDBRANCH   9  13
ENDBRANCH   1   7
BRANCH   4  21
HETATM   21  O   UNL     1       7.658  24.667  55.754  1.00  0.00    -0.351 OA
BRANCH  21  22
HETATM   22  C   UNL     1       8.425  23.548  55.299  1.00  0.00     0.180 C 
BRANCH  22  23
HETATM   23  C   UNL     1       7.478  22.367  55.018  1.00  0.00     0.010 C 
HETATM   24  C   UNL     1       7.606  21.888  53.564  1.00  0.00     0.007 C 
HETATM   25  C   UNL     1       8.907  21.133  53.298  1.00  0.00     0.000 C 
HETATM   26  C   UNL     1       9.096  19.976  54.275  1.00  0.00     0.000 C 
HETATM   27  C   UNL     1       8.989  20.430  55.727  1.00  0.00     0.000 C 
HETATM   28  C   UNL     1       7.691  21.192  55.988  1.00  0.00     0.007 C 
ENDBRANCH  22  23
ENDBRANCH  21  22
ENDBRANCH   4  21
TORSDOF 6
ENDMDL
MODEL 9
REMARK VINA RESULT:      -8.0      7.392      9.839
REMARK  6 active torsions:
REMARK  status: ('A' for Active; 'I' for Inactive)
REMARK    1  A    between atoms: C_2  and  N_3 
REMARK    2  A    between atoms: C_2  and  C_21 
REMARK       I    between atoms: N_3  and  C_4 
REMARK       I    between atoms: C_4  and  N_5 
REMARK    3  A    between atoms: N_5  and  C_6 
REMARK    4  A    between atoms: C_9  and  O_10 
REMARK    5  A    between atoms: O_10  and  C_11 
REMARK    6  A    between atoms: C_11  and  C_12 
ROOT
HETATM    1  C   UNL     1       6.650  28.912  57.544  1.00  0.00     0.036 A 
HETATM    2  C   UNL     1       7.859  28.937  58.240  1.00  0.00     0.032 A 
HETATM    3  C   UNL     1       8.243  30.067  58.975  1.00  0.00     0.039 A 
HETATM    4  C   UNL     1       7.422  31.192  59.019  1.00  0.00     0.068 A 
HETATM    5  C   UNL     1       6.216  31.174  58.319  1.00  0.00     0.039 A 
HETATM    6  C   UNL     1       5.831  30.046  57.586  1.00  0.00     0.032 A 
ENDROOT
BRANCH   1   7
HETATM    7  N   UNL     1       6.211  27.814  56.779  1.00  0.00    -0.309 N 
HETATM    8  C   UNL     1       6.673  27.417  55.544  1.00  0.00     0.321 C 
HETATM    9  N   UNL     1       5.939  26.368  55.050  1.00  0.00    -0.332 N 
HETATM   10  O   UNL     1       7.616  27.893  54.928  1.00  0.00    -0.247 OA
HETATM   11  H   UNL     1       5.023  26.172  55.426  1.00  0.00     0.165 HD
HETATM   12  H   UNL     1       5.550  27.190  57.218  1.00  0.00     0.170 HD
BRANCH   9  13
HETATM   13  C   UNL     1       6.196  25.824  53.719  1.00  0.00     0.155 C 
HETATM   14  C   UNL     1       4.889  25.531  52.980  1.00  0.00     0.041 C 
BRANCH  13  15
HETATM   15  C   UNL     1       7.009  24.568  53.879  1.00  0.00     0.169 A 
HETATM   16  N   UNL     1       7.843  24.103  52.936  1.00  0.00    -0.156 NA
HETATM   17  N   UNL     1       8.317  22.990  53.516  1.00  0.00    -0.270 N 
HETATM   18  H   UNL     1       8.990  22.418  53.019  1.00  0.00     0.190 HD
HETATM   19  C   UNL     1       7.775  22.808  54.749  1.00  0.00     0.227 A 
HETATM   20  N   UNL     1       6.943  23.786  55.015  1.00  0.00    -0.223 NA
ENDBRANCH  13  15
ENDBRANCH   9  13
ENDBRANCH   1   7
BRANCH   4  21
HETATM   21  O   UNL     1       7.684  32.350  59.698  1.00  0.00    -0.351 OA
BRANCH  21  22
HETATM   22  C   UNL     1       6.758  32.713  60.726  1.00  0.00     0.180 C 
BRANCH  22  23
HETATM   23  C   UNL     1       6.816  31.665  61.853  1.00  0.00     0.010 C 
HETATM   24  C   UNL     1       8.119  31.788  62.657  1.00  0.00     0.007 C 
HETATM   25  C   UNL     1       8.146  33.017  63.564  1.00  0.00     0.000 C 
HETATM   26  C   UNL     1       6.927  33.066  64.482  1.00  0.00     0.000 C 
HETATM   27  C   UNL     1       5.620  32.961  63.704  1.00  0.00     0.000 C 
HETATM   28  C   UNL     1       5.600  31.736  62.792  1.00  0.00     0.007 C 
ENDBRANCH  22  23
ENDBRANCH  21  22
ENDBRANCH   4  21
TORSDOF 6
ENDMDL
MODEL 10
REMARK VINA RESULT:      -7.9      7.852      9.790
REMARK  6 active torsions:
REMARK  status: ('A' for Active; 'I' for Inactive)
REMARK    1  A    between atoms: C_2  and  N_3 
REMARK    2  A    between atoms: C_2  and  C_21 
REMARK       I    between atoms: N_3  and  C_4 
REMARK       I    between atoms: C_4  and  N_5 
REMARK    3  A    between atoms: N_5  and  C_6 
REMARK    4  A    between atoms: C_9  and  O_10 
REMARK    5  A    between atoms: O_10  and  C_11 
REMARK    6  A    between atoms: C_11  and  C_12 
ROOT
HETATM    1  C   UNL     1       5.094  29.633  57.150  1.00  0.00     0.036 A 
HETATM    2  C   UNL     1       4.441  29.679  55.917  1.00  0.00     0.032 A 
HETATM    3  C   UNL     1       4.934  28.964  54.816  1.00  0.00     0.039 A 
HETATM    4  C   UNL     1       6.091  28.196  54.933  1.00  0.00     0.068 A 
HETATM    5  C   UNL     1       6.750  28.153  56.162  1.00  0.00     0.039 A 
HETATM    6  C   UNL     1       6.258  28.865  57.263  1.00  0.00     0.032 A 
ENDROOT
BRANCH   1   7
HETATM    7  N   UNL     1       4.658  30.334  58.291  1.00  0.00    -0.309 N 
HETATM    8  C   UNL     1       5.061  31.582  58.709  1.00  0.00     0.321 C 
HETATM    9  N   UNL     1       4.508  31.906  59.923  1.00  0.00    -0.332 N 
HETATM   10  O   UNL     1       5.803  32.350  58.112  1.00  0.00    -0.247 OA
HETATM   11  H   UNL     1       4.133  31.179  60.515  1.00  0.00     0.165 HD
HETATM   12  H   UNL     1       3.900  29.923  58.815  1.00  0.00     0.170 HD
BRANCH   9  13
HETATM   13  C   UNL     1       4.849  33.152  60.604  1.00  0.00     0.155 C 
HETATM   14  C   UNL     1       6.160  33.017  61.381  1.00  0.00     0.041 C 
BRANCH  13  15
HETATM   15  C   UNL     1       3.716  33.502  61.530  1.00  0.00     0.169 A 
HETATM   16  N   UNL     1       3.436  32.814  62.647  1.00  0.00    -0.156 NA
HETATM   17  N   UNL     1       2.369  33.479  63.115  1.00  0.00    -0.270 N 
HETATM   18  H   UNL     1       1.932  33.174  63.978  1.00  0.00     0.190 HD
HETATM   19  C   UNL     1       2.034  34.513  62.299  1.00  0.00     0.227 A 
HETATM   20  N   UNL     1       2.864  34.561  61.284  1.00  0.00    -0.223 NA
ENDBRANCH  13  15
ENDBRANCH   9  13
ENDBRANCH   1   7
BRANCH   4  21
HETATM   21  O   UNL     1       6.668  27.457  53.938  1.00  0.00    -0.351 OA
BRANCH  21  22
HETATM   22  C   UNL     1       7.435  26.321  54.346  1.00  0.00     0.180 C 
BRANCH  22  23
HETATM   23  C   UNL     1       6.547  25.064  54.287  1.00  0.00     0.010 C 
HETATM   24  C   UNL     1       6.566  24.436  52.885  1.00  0.00     0.007 C 
HETATM   25  C   UNL     1       7.884  23.732  52.566  1.00  0.00     0.000 C 
HETATM   26  C   UNL     1       8.244  22.702  53.633  1.00  0.00     0.000 C 
HETATM   27  C   UNL     1       8.247  23.305  55.033  1.00  0.00     0.000 C 
HETATM   28  C   UNL     1       6.931  24.016  55.347  1.00  0.00     0.007 C 
ENDBRANCH  22  23
ENDBRANCH  21  22
ENDBRANCH   4  21
TORSDOF 6
ENDMDL
