MODEL 1
REMARK VINA RESULT:      -9.6      0.000      0.000
REMARK  8 active torsions:
REMARK  status: ('A' for Active; 'I' for Inactive)
REMARK    1  A    between atoms: O_2  and  C_3 
REMARK    2  A    between atoms: C_10  and  C_11 
REMARK    3  A    between atoms: N_12  and  N_13 
REMARK       I    between atoms: N_13  and  C_14 
REMARK    4  A    between atoms: C_14  and  C_15 
REMARK    5  A    between atoms: N_18  and  C_19 
REMARK    6  A    between atoms: C_23  and  N_24 
REMARK    7  A    between atoms: C_25  and  C_26 
REMARK    8  A    between atoms: C_26  and  N_27 
ROOT
HETATM    1  C   UNL     1       8.000  24.648  56.431  1.00  0.00     0.176 C 
HETATM    2  N   UNL     1       9.236  24.158  56.732  1.00  0.00    -0.124 NA
HETATM    3  N   UNL     1       9.519  23.200  55.870  1.00  0.00    -0.058 NA
HETATM    4  N   UNL     1       8.452  23.001  55.051  1.00  0.00    -0.191 N 
HETATM    5  C   UNL     1       7.509  24.007  55.298  1.00  0.00     0.102 C 
ENDROOT
BRANCH   1   6
HETATM    6  C   UNL     1       7.357  25.692  57.217  1.00  0.00     0.294 C 
HETATM    7  N   UNL     1       8.137  26.813  57.419  1.00  0.00    -0.242 N 
HETATM    8  H   UNL     1       9.081  26.857  57.040  1.00  0.00     0.192 HD
HETATM    9  O   UNL     1       6.207  25.536  57.627  1.00  0.00    -0.264 OA
BRANCH   7  10
HETATM   10  N   UNL     1       7.637  27.856  58.137  1.00  0.00    -0.183 NA
HETATM   11  C   UNL     1       8.283  28.976  58.032  1.00  0.00     0.153 C 
BRANCH  11  12
HETATM   12  C   UNL     1       7.847  30.185  58.764  1.00  0.00     0.020 A 
HETATM   13  C   UNL     1       6.829  30.997  58.245  1.00  0.00     0.101 A 
HETATM   14  C   UNL     1       6.379  32.097  58.992  1.00  0.00     0.069 A 
HETATM   15 CL   UNL     1       5.053  33.071  58.468  1.00  0.00    -0.081 Cl
HETATM   16  C   UNL     1       6.983  32.417  60.210  1.00  0.00     0.050 A 
HETATM   17  C   UNL     1       8.021  31.626  60.694  1.00  0.00     0.036 A 
HETATM   18 CL   UNL     1       8.765  32.019  62.195  1.00  0.00    -0.084 Cl
HETATM   19  C   UNL     1       8.453  30.508  59.985  1.00  0.00     0.039 A 
BRANCH  13  20
HETATM   20  O   UNL     1       6.237  30.652  57.055  1.00  0.00    -0.353 OA
HETATM   21  C   UNL     1       4.987  29.992  57.279  1.00  0.00     0.210 C 
ENDBRANCH  13  20
ENDBRANCH  11  12
ENDBRANCH   7  10
ENDBRANCH   1   6
BRANCH   5  22
HETATM   22  C   UNL     1       6.247  24.161  54.519  1.00  0.00     0.296 C 
BRANCH  22  23
HETATM   23  N   UNL     1       6.227  25.280  53.487  1.00  0.00    -0.066 N 
HETATM   24  H   UNL     1       7.209  25.369  53.154  1.00  0.00     0.280 HD
HETATM   25  C   UNL     1       5.385  24.934  52.288  1.00  0.00     0.235 C 
HETATM   26  C   UNL     1       5.590  25.905  51.132  1.00  0.00     0.028 C 
HETATM   27  C   UNL     1       4.922  27.256  51.359  1.00  0.00     0.002 C 
HETATM   28  C   UNL     1       5.764  28.263  52.130  1.00  0.00     0.002 C 
HETATM   29  C   UNL     1       6.534  27.753  53.345  1.00  0.00     0.028 C 
HETATM   30  C   UNL     1       5.887  26.614  54.120  1.00  0.00     0.235 C 
ENDBRANCH  22  23
ENDBRANCH   5  22
BRANCH   4  31
HETATM   31  C   UNL     1       8.388  21.905  54.157  1.00  0.00     0.229 A 
HETATM   32  N   UNL     1       7.963  22.084  52.904  1.00  0.00    -0.081 NA
HETATM   33  O   UNL     1       8.006  20.801  52.351  1.00  0.00    -0.103 OA
HETATM   34  N   UNL     1       8.457  19.870  53.277  1.00  0.00    -0.083 NA
HETATM   35  C   UNL     1       8.687  20.551  54.397  1.00  0.00     0.201 A 
BRANCH  35  36
HETATM   36  N   UNL     1       9.138  20.008  55.539  1.00  0.00    -0.379 N 
HETATM   37  H   UNL     1       9.602  19.103  55.516  1.00  0.00     0.158 HD
HETATM   38  H   UNL     1       8.804  20.283  56.460  1.00  0.00     0.158 HD
ENDBRANCH  35  36
ENDBRANCH   4  31
TORSDOF 8
ENDMDL
MODEL 2
REMARK VINA RESULT:      -9.4      3.109      5.224
REMARK  8 active torsions:
REMARK  status: ('A' for Active; 'I' for Inactive)
REMARK    1  A    between atoms: O_2  and  C_3 
REMARK    2  A    between atoms: C_10  and  C_11 
REMARK    3  A    between atoms: N_12  and  N_13 
REMARK       I    between atoms: N_13  and  C_14 
REMARK    4  A    between atoms: C_14  and  C_15 
REMARK    5  A    between atoms: N_18  and  C_19 
REMARK    6  A    between atoms: C_23  and  N_24 
REMARK    7  A    between atoms: C_25  and  C_26 
REMARK    8  A    between atoms: C_26  and  N_27 
ROOT
HETATM    1  C   UNL     1       5.308  28.722  54.943  1.00  0.00     0.176 C 
HETATM    2  N   UNL     1       4.093  29.228  54.586  1.00  0.00    -0.124 NA
HETATM    3  N   UNL     1       3.941  29.054  53.287  1.00  0.00    -0.058 NA
HETATM    4  N   UNL     1       5.074  28.508  52.770  1.00  0.00    -0.191 N 
HETATM    5  C   UNL     1       5.922  28.157  53.829  1.00  0.00     0.102 C 
ENDROOT
BRANCH   1   6
HETATM    6  C   UNL     1       5.817  28.790  56.305  1.00  0.00     0.294 C 
HETATM    7  N   UNL     1       6.522  29.942  56.592  1.00  0.00    -0.242 N 
HETATM    8  H   UNL     1       6.659  30.652  55.875  1.00  0.00     0.192 HD
HETATM    9  O   UNL     1       5.593  27.872  57.095  1.00  0.00    -0.264 OA
BRANCH   7  10
HETATM   10  N   UNL     1       7.042  30.116  57.838  1.00  0.00    -0.183 NA
HETATM   11  C   UNL     1       6.716  31.220  58.437  1.00  0.00     0.153 C 
BRANCH  11  12
HETATM   12  C   UNL     1       7.217  31.535  59.792  1.00  0.00     0.020 A 
HETATM   13  C   UNL     1       6.651  32.586  60.528  1.00  0.00     0.101 A 
HETATM   14  C   UNL     1       7.089  32.820  61.841  1.00  0.00     0.069 A 
HETATM   15 CL   UNL     1       6.358  34.021  62.843  1.00  0.00    -0.081 Cl
HETATM   16  C   UNL     1       8.122  32.055  62.387  1.00  0.00     0.050 A 
HETATM   17  C   UNL     1       8.703  31.041  61.630  1.00  0.00     0.036 A 
HETATM   18 CL   UNL     1       9.976  30.097  62.301  1.00  0.00    -0.084 Cl
HETATM   19  C   UNL     1       8.254  30.770  60.340  1.00  0.00     0.039 A 
BRANCH  13  20
HETATM   20  O   UNL     1       5.624  33.312  59.979  1.00  0.00    -0.353 OA
HETATM   21  C   UNL     1       4.354  32.776  60.365  1.00  0.00     0.210 C 
ENDBRANCH  13  20
ENDBRANCH  11  12
ENDBRANCH   7  10
ENDBRANCH   1   6
BRANCH   5  22
HETATM   22  C   UNL     1       7.219  27.446  53.644  1.00  0.00     0.296 C 
BRANCH  22  23
HETATM   23  N   UNL     1       7.166  25.926  53.691  1.00  0.00    -0.066 N 
HETATM   24  H   UNL     1       6.168  25.677  53.530  1.00  0.00     0.280 HD
HETATM   25  C   UNL     1       7.963  25.293  52.582  1.00  0.00     0.235 C 
HETATM   26  C   UNL     1       7.682  23.802  52.441  1.00  0.00     0.028 C 
HETATM   27  C   UNL     1       8.326  22.965  53.540  1.00  0.00     0.002 C 
HETATM   28  C   UNL     1       7.493  22.827  54.808  1.00  0.00     0.002 C 
HETATM   29  C   UNL     1       6.790  24.078  55.328  1.00  0.00     0.028 C 
HETATM   30  C   UNL     1       7.500  25.401  55.073  1.00  0.00     0.235 C 
ENDBRANCH  22  23
ENDBRANCH   5  22
BRANCH   4  31
HETATM   31  C   UNL     1       5.280  28.391  51.374  1.00  0.00     0.229 A 
HETATM   32  N   UNL     1       5.716  29.436  50.668  1.00  0.00    -0.081 NA
HETATM   33  O   UNL     1       5.764  28.956  49.356  1.00  0.00    -0.103 OA
HETATM   34  N   UNL     1       5.359  27.631  49.292  1.00  0.00    -0.083 NA
HETATM   35  C   UNL     1       5.053  27.281  50.539  1.00  0.00     0.201 A 
BRANCH  35  36
HETATM   36  N   UNL     1       4.615  26.065  50.903  1.00  0.00    -0.379 N 
HETATM   37  H   UNL     1       4.012  25.540  50.274  1.00  0.00     0.158 HD
HETATM   38  H   UNL     1       4.596  25.742  51.867  1.00  0.00     0.158 HD
ENDBRANCH  35  36
ENDBRANCH   4  31
TORSDOF 8
ENDMDL
MODEL 3
REMARK VINA RESULT:      -9.4      3.092      5.362
REMARK  8 active torsions:
REMARK  status: ('A' for Active; 'I' for Inactive)
REMARK    1  A    between atoms: O_2  and  C_3 
REMARK    2  A    between atoms: C_10  and  C_11 
REMARK    3  A    between atoms: N_12  and  N_13 
REMARK       I    between atoms: N_13  and  C_14 
REMARK    4  A    between atoms: C_14  and  C_15 
REMARK    5  A    between atoms: N_18  and  C_19 
REMARK    6  A    between atoms: C_23  and  N_24 
REMARK    7  A    between atoms: C_25  and  C_26 
REMARK    8  A    between atoms: C_26  and  N_27 
ROOT
HETATM    1  C   UNL     1       4.714  28.517  54.656  1.00  0.00     0.176 C 
HETATM    2  N   UNL     1       3.488  28.888  54.190  1.00  0.00    -0.124 NA
HETATM    3  N   UNL     1       3.462  28.676  52.888  1.00  0.00    -0.058 NA
HETATM    4  N   UNL     1       4.683  28.242  52.478  1.00  0.00    -0.191 N 
HETATM    5  C   UNL     1       5.472  27.999  53.610  1.00  0.00     0.102 C 
ENDROOT
BRANCH   1   6
HETATM    6  C   UNL     1       5.099  28.661  56.053  1.00  0.00     0.294 C 
HETATM    7  N   UNL     1       5.161  29.968  56.493  1.00  0.00    -0.242 N 
HETATM    8  H   UNL     1       4.957  30.735  55.855  1.00  0.00     0.192 HD
HETATM    9  O   UNL     1       5.324  27.663  56.738  1.00  0.00    -0.264 OA
BRANCH   7  10
HETATM   10  N   UNL     1       5.507  30.224  57.785  1.00  0.00    -0.183 NA
HETATM   11  C   UNL     1       6.414  31.135  57.958  1.00  0.00     0.153 C 
BRANCH  11  12
HETATM   12  C   UNL     1       6.884  31.504  59.310  1.00  0.00     0.020 A 
HETATM   13  C   UNL     1       7.934  30.797  59.912  1.00  0.00     0.101 A 
HETATM   14  C   UNL     1       8.414  31.211  61.164  1.00  0.00     0.069 A 
HETATM   15 CL   UNL     1       9.777  30.458  61.910  1.00  0.00    -0.081 Cl
HETATM   16  C   UNL     1       7.811  32.278  61.833  1.00  0.00     0.050 A 
HETATM   17  C   UNL     1       6.742  32.946  61.242  1.00  0.00     0.036 A 
HETATM   18 CL   UNL     1       5.998  34.262  62.065  1.00  0.00    -0.084 Cl
HETATM   19  C   UNL     1       6.279  32.573  59.983  1.00  0.00     0.039 A 
BRANCH  13  20
HETATM   20  O   UNL     1       8.525  29.763  59.228  1.00  0.00    -0.353 OA
HETATM   21  C   UNL     1       9.610  30.237  58.424  1.00  0.00     0.210 C 
ENDBRANCH  13  20
ENDBRANCH  11  12
ENDBRANCH   7  10
ENDBRANCH   1   6
BRANCH   5  22
HETATM   22  C   UNL     1       6.846  27.424  53.548  1.00  0.00     0.296 C 
BRANCH  22  23
HETATM   23  N   UNL     1       6.946  25.909  53.653  1.00  0.00    -0.066 N 
HETATM   24  H   UNL     1       5.972  25.558  53.543  1.00  0.00     0.280 HD
HETATM   25  C   UNL     1       7.759  25.313  52.534  1.00  0.00     0.235 C 
HETATM   26  C   UNL     1       7.623  23.797  52.459  1.00  0.00     0.028 C 
HETATM   27  C   UNL     1       8.388  23.072  53.560  1.00  0.00     0.002 C 
HETATM   28  C   UNL     1       7.622  22.905  54.866  1.00  0.00     0.002 C 
HETATM   29  C   UNL     1       6.819  24.101  55.369  1.00  0.00     0.028 C 
HETATM   30  C   UNL     1       7.383  25.475  55.038  1.00  0.00     0.235 C 
ENDBRANCH  22  23
ENDBRANCH   5  22
BRANCH   4  31
HETATM   31  C   UNL     1       5.015  28.122  51.106  1.00  0.00     0.229 A 
HETATM   32  N   UNL     1       5.460  29.181  50.427  1.00  0.00    -0.081 NA
HETATM   33  O   UNL     1       5.645  28.693  49.131  1.00  0.00    -0.103 OA
HETATM   34  N   UNL     1       5.310  27.349  49.049  1.00  0.00    -0.083 NA
HETATM   35  C   UNL     1       4.914  26.996  50.269  1.00  0.00     0.201 A 
BRANCH  35  36
HETATM   36  N   UNL     1       4.504  25.763  50.610  1.00  0.00    -0.379 N 
HETATM   37  H   UNL     1       5.107  24.965  50.426  1.00  0.00     0.158 HD
HETATM   38  H   UNL     1       3.529  25.523  50.772  1.00  0.00     0.158 HD
ENDBRANCH  35  36
ENDBRANCH   4  31
TORSDOF 8
ENDMDL
MODEL 4
REMARK VINA RESULT:      -9.0      4.405      8.036
REMARK  8 active torsions:
REMARK  status: ('A' for Active; 'I' for Inactive)
REMARK    1  A    between atoms: O_2  and  C_3 
REMARK    2  A    between atoms: C_10  and  C_11 
REMARK    3  A    between atoms: N_12  and  N_13 
REMARK       I    between atoms: N_13  and  C_14 
REMARK    4  A    between atoms: C_14  and  C_15 
REMARK    5  A    between atoms: N_18  and  C_19 
REMARK    6  A    between atoms: C_23  and  N_24 
REMARK    7  A    between atoms: C_25  and  C_26 
REMARK    8  A    between atoms: C_26  and  N_27 
ROOT
HETATM    1  C   UNL     1       6.973  25.011  52.889  1.00  0.00     0.176 C 
HETATM    2  N   UNL     1       7.796  24.132  52.249  1.00  0.00    -0.124 NA
HETATM    3  N   UNL     1       8.116  23.175  53.100  1.00  0.00    -0.058 NA
HETATM    4  N   UNL     1       7.575  23.455  54.316  1.00  0.00    -0.191 N 
HETATM    5  C   UNL     1       6.723  24.558  54.180  1.00  0.00     0.102 C 
ENDROOT
BRANCH   1   6
HETATM    6  C   UNL     1       6.466  26.217  52.250  1.00  0.00     0.294 C 
HETATM    7  N   UNL     1       5.801  25.994  51.061  1.00  0.00    -0.242 N 
HETATM    8  H   UNL     1       5.708  25.048  50.695  1.00  0.00     0.192 HD
HETATM    9  O   UNL     1       6.633  27.315  52.782  1.00  0.00    -0.264 OA
BRANCH   7  10
HETATM   10  N   UNL     1       5.279  27.049  50.377  1.00  0.00    -0.183 NA
HETATM   11  C   UNL     1       4.694  26.762  49.256  1.00  0.00     0.153 C 
BRANCH  11  12
HETATM   12  C   UNL     1       4.089  27.816  48.413  1.00  0.00     0.020 A 
HETATM   13  C   UNL     1       2.861  27.594  47.774  1.00  0.00     0.101 A 
HETATM   14  C   UNL     1       2.269  28.633  47.041  1.00  0.00     0.069 A 
HETATM   15 CL   UNL     1       0.707  28.466  46.324  1.00  0.00    -0.081 Cl
HETATM   16  C   UNL     1       2.926  29.858  46.895  1.00  0.00     0.050 A 
HETATM   17  C   UNL     1       4.164  30.051  47.502  1.00  0.00     0.036 A 
HETATM   18 CL   UNL     1       4.974  31.559  47.324  1.00  0.00    -0.084 Cl
HETATM   19  C   UNL     1       4.747  29.044  48.265  1.00  0.00     0.039 A 
BRANCH  13  20
HETATM   20  O   UNL     1       2.225  26.390  47.946  1.00  0.00    -0.353 OA
HETATM   21  C   UNL     1       2.575  25.473  46.903  1.00  0.00     0.210 C 
ENDBRANCH  13  20
ENDBRANCH  11  12
ENDBRANCH   7  10
ENDBRANCH   1   6
BRANCH   5  22
HETATM   22  C   UNL     1       5.885  25.092  55.291  1.00  0.00     0.296 C 
BRANCH  22  23
HETATM   23  N   UNL     1       6.255  26.475  55.808  1.00  0.00    -0.066 N 
HETATM   24  H   UNL     1       6.964  26.841  55.139  1.00  0.00     0.280 HD
HETATM   25  C   UNL     1       5.088  27.427  55.777  1.00  0.00     0.235 C 
HETATM   26  C   UNL     1       5.508  28.872  56.008  1.00  0.00     0.028 C 
HETATM   27  C   UNL     1       5.863  29.168  57.461  1.00  0.00     0.002 C 
HETATM   28  C   UNL     1       7.307  28.867  57.839  1.00  0.00     0.002 C 
HETATM   29  C   UNL     1       7.916  27.569  57.316  1.00  0.00     0.028 C 
HETATM   30  C   UNL     1       6.958  26.398  57.148  1.00  0.00     0.235 C 
ENDBRANCH  22  23
ENDBRANCH   5  22
BRANCH   4  31
HETATM   31  C   UNL     1       7.912  22.713  55.475  1.00  0.00     0.229 A 
HETATM   32  N   UNL     1       8.180  23.341  56.620  1.00  0.00    -0.081 NA
HETATM   33  O   UNL     1       8.492  22.304  57.504  1.00  0.00    -0.103 OA
HETATM   34  N   UNL     1       8.406  21.069  56.878  1.00  0.00    -0.083 NA
HETATM   35  C   UNL     1       8.053  21.321  55.620  1.00  0.00     0.201 A 
BRANCH  35  36
HETATM   36  N   UNL     1       7.864  20.380  54.680  1.00  0.00    -0.379 N 
HETATM   37  H   UNL     1       7.572  20.656  53.746  1.00  0.00     0.158 HD
HETATM   38  H   UNL     1       7.708  19.398  54.894  1.00  0.00     0.158 HD
ENDBRANCH  35  36
ENDBRANCH   4  31
TORSDOF 8
ENDMDL
MODEL 5
REMARK VINA RESULT:      -8.8      4.940      8.891
REMARK  8 active torsions:
REMARK  status: ('A' for Active; 'I' for Inactive)
REMARK    1  A    between atoms: O_2  and  C_3 
REMARK    2  A    between atoms: C_10  and  C_11 
REMARK    3  A    between atoms: N_12  and  N_13 
REMARK       I    between atoms: N_13  and  C_14 
REMARK    4  A    between atoms: C_14  and  C_15 
REMARK    5  A    between atoms: N_18  and  C_19 
REMARK    6  A    between atoms: C_23  and  N_24 
REMARK    7  A    between atoms: C_25  and  C_26 
REMARK    8  A    between atoms: C_26  and  N_27 
ROOT
HETATM    1  C   UNL     1       4.482  28.657  54.001  1.00  0.00     0.176 C 
HETATM    2  N   UNL     1       3.492  29.357  54.625  1.00  0.00    -0.124 NA
HETATM    3  N   UNL     1       3.223  30.425  53.899  1.00  0.00    -0.058 NA
HETATM    4  N   UNL     1       4.077  30.478  52.842  1.00  0.00    -0.191 N 
HETATM    5  C   UNL     1       4.810  29.285  52.803  1.00  0.00     0.102 C 
ENDROOT
BRANCH   1   6
HETATM    6  C   UNL     1       5.054  27.440  54.559  1.00  0.00     0.294 C 
HETATM    7  N   UNL     1       4.813  26.304  53.811  1.00  0.00    -0.242 N 
HETATM    8  H   UNL     1       4.267  26.360  52.954  1.00  0.00     0.192 HD
HETATM    9  O   UNL     1       5.701  27.485  55.605  1.00  0.00    -0.264 OA
BRANCH   7  10
HETATM   10  N   UNL     1       5.305  25.107  54.235  1.00  0.00    -0.183 NA
HETATM   11  C   UNL     1       6.533  24.852  53.905  1.00  0.00     0.153 C 
BRANCH  11  12
HETATM   12  C   UNL     1       7.185  23.584  54.298  1.00  0.00     0.020 A 
HETATM   13  C   UNL     1       7.472  23.324  55.645  1.00  0.00     0.101 A 
HETATM   14  C   UNL     1       8.022  22.085  56.005  1.00  0.00     0.069 A 
HETATM   15 CL   UNL     1       8.294  21.654  57.655  1.00  0.00    -0.081 Cl
HETATM   16  C   UNL     1       8.341  21.143  55.024  1.00  0.00     0.050 A 
HETATM   17  C   UNL     1       8.089  21.430  53.685  1.00  0.00     0.036 A 
HETATM   18 CL   UNL     1       8.480  20.270  52.476  1.00  0.00    -0.084 Cl
HETATM   19  C   UNL     1       7.507  22.639  53.315  1.00  0.00     0.039 A 
BRANCH  13  20
HETATM   20  O   UNL     1       7.133  24.257  56.594  1.00  0.00    -0.353 OA
HETATM   21  C   UNL     1       8.275  25.026  56.985  1.00  0.00     0.210 C 
ENDBRANCH  13  20
ENDBRANCH  11  12
ENDBRANCH   7  10
ENDBRANCH   1   6
BRANCH   5  22
HETATM   22  C   UNL     1       5.781  28.950  51.722  1.00  0.00     0.296 C 
BRANCH  22  23
HETATM   23  N   UNL     1       5.184  28.455  50.412  1.00  0.00    -0.066 N 
HETATM   24  H   UNL     1       4.166  28.666  50.473  1.00  0.00     0.280 HD
HETATM   25  C   UNL     1       5.720  29.204  49.222  1.00  0.00     0.235 C 
HETATM   26  C   UNL     1       4.926  28.927  47.952  1.00  0.00     0.028 C 
HETATM   27  C   UNL     1       5.205  27.550  47.360  1.00  0.00     0.002 C 
HETATM   28  C   UNL     1       4.355  26.424  47.934  1.00  0.00     0.002 C 
HETATM   29  C   UNL     1       4.139  26.404  49.444  1.00  0.00     0.028 C 
HETATM   30  C   UNL     1       5.281  26.947  50.292  1.00  0.00     0.235 C 
ENDBRANCH  22  23
ENDBRANCH   5  22
BRANCH   4  31
HETATM   31  C   UNL     1       4.159  31.614  52.000  1.00  0.00     0.229 A 
HETATM   32  N   UNL     1       3.763  31.537  50.728  1.00  0.00    -0.081 NA
HETATM   33  O   UNL     1       4.019  32.814  50.221  1.00  0.00    -0.103 OA
HETATM   34  N   UNL     1       4.565  33.639  51.194  1.00  0.00    -0.083 NA
HETATM   35  C   UNL     1       4.658  32.896  52.294  1.00  0.00     0.201 A 
BRANCH  35  36
HETATM   36  N   UNL     1       5.141  33.331  53.469  1.00  0.00    -0.379 N 
HETATM   37  H   UNL     1       4.664  34.083  53.960  1.00  0.00     0.158 HD
HETATM   38  H   UNL     1       6.100  33.175  53.772  1.00  0.00     0.158 HD
ENDBRANCH  35  36
ENDBRANCH   4  31
TORSDOF 8
ENDMDL
MODEL 6
REMARK VINA RESULT:      -8.7      5.718      9.032
REMARK  8 active torsions:
REMARK  status: ('A' for Active; 'I' for Inactive)
REMARK    1  A    between atoms: O_2  and  C_3 
REMARK    2  A    between atoms: C_10  and  C_11 
REMARK    3  A    between atoms: N_12  and  N_13 
REMARK       I    between atoms: N_13  and  C_14 
REMARK    4  A    between atoms: C_14  and  C_15 
REMARK    5  A    between atoms: N_18  and  C_19 
REMARK    6  A    between atoms: C_23  and  N_24 
REMARK    7  A    between atoms: C_25  and  C_26 
REMARK    8  A    between atoms: C_26  and  N_27 
ROOT
HETATM    1  C   UNL     1       4.430  27.188  49.205  1.00  0.00     0.176 C 
HETATM    2  N   UNL     1       4.573  26.385  48.112  1.00  0.00    -0.124 NA
HETATM    3  N   UNL     1       3.606  26.672  47.262  1.00  0.00    -0.058 NA
HETATM    4  N   UNL     1       2.781  27.601  47.814  1.00  0.00    -0.191 N 
HETATM    5  C   UNL     1       3.359  28.054  49.008  1.00  0.00     0.102 C 
ENDROOT
BRANCH   1   6
HETATM    6  C   UNL     1       5.310  27.102  50.362  1.00  0.00     0.294 C 
HETATM    7  N   UNL     1       5.677  25.815  50.702  1.00  0.00    -0.242 N 
HETATM    8  H   UNL     1       5.329  25.023  50.165  1.00  0.00     0.192 HD
HETATM    9  O   UNL     1       5.672  28.127  50.940  1.00  0.00    -0.264 OA
BRANCH   7  10
HETATM   10  N   UNL     1       6.502  25.614  51.767  1.00  0.00    -0.183 NA
HETATM   11  C   UNL     1       6.071  24.785  52.667  1.00  0.00     0.153 C 
BRANCH  11  12
HETATM   12  C   UNL     1       6.867  24.482  53.875  1.00  0.00     0.020 A 
HETATM   13  C   UNL     1       6.754  25.287  55.017  1.00  0.00     0.101 A 
HETATM   14  C   UNL     1       7.461  24.938  56.178  1.00  0.00     0.069 A 
HETATM   15 CL   UNL     1       7.281  25.818  57.653  1.00  0.00    -0.081 Cl
HETATM   16  C   UNL     1       8.319  23.835  56.177  1.00  0.00     0.050 A 
HETATM   17  C   UNL     1       8.453  23.068  55.023  1.00  0.00     0.036 A 
HETATM   18 CL   UNL     1       9.508  21.708  55.021  1.00  0.00    -0.084 Cl
HETATM   19  C   UNL     1       7.729  23.377  53.875  1.00  0.00     0.039 A 
BRANCH  13  20
HETATM   20  O   UNL     1       5.892  26.355  55.002  1.00  0.00    -0.353 OA
HETATM   21  C   UNL     1       6.601  27.582  54.801  1.00  0.00     0.210 C 
ENDBRANCH  13  20
ENDBRANCH  11  12
ENDBRANCH   7  10
ENDBRANCH   1   6
BRANCH   5  22
HETATM   22  C   UNL     1       2.778  29.145  49.841  1.00  0.00     0.296 C 
BRANCH  22  23
HETATM   23  N   UNL     1       3.734  30.254  50.259  1.00  0.00    -0.066 N 
HETATM   24  H   UNL     1       4.448  29.793  50.861  1.00  0.00     0.280 HD
HETATM   25  C   UNL     1       4.466  30.849  49.085  1.00  0.00     0.235 C 
HETATM   26  C   UNL     1       5.625  31.740  49.512  1.00  0.00     0.028 C 
HETATM   27  C   UNL     1       5.172  33.087  50.064  1.00  0.00     0.002 C 
HETATM   28  C   UNL     1       4.846  33.091  51.551  1.00  0.00     0.002 C 
HETATM   29  C   UNL     1       4.050  31.910  52.100  1.00  0.00     0.028 C 
HETATM   30  C   UNL     1       3.049  31.273  51.146  1.00  0.00     0.235 C 
ENDBRANCH  22  23
ENDBRANCH   5  22
BRANCH   4  31
HETATM   31  C   UNL     1       1.547  27.957  47.219  1.00  0.00     0.229 A 
HETATM   32  N   UNL     1       0.494  27.145  47.319  1.00  0.00    -0.081 NA
HETATM   33  O   UNL     1      -0.506  27.803  46.597  1.00  0.00    -0.103 OA
HETATM   34  N   UNL     1      -0.040  29.002  46.074  1.00  0.00    -0.083 NA
HETATM   35  C   UNL     1       1.233  29.095  46.454  1.00  0.00     0.201 A 
BRANCH  35  36
HETATM   36  N   UNL     1       2.045  30.120  46.147  1.00  0.00    -0.379 N 
HETATM   37  H   UNL     1       1.654  30.966  45.740  1.00  0.00     0.158 HD
HETATM   38  H   UNL     1       3.049  30.020  46.021  1.00  0.00     0.158 HD
ENDBRANCH  35  36
ENDBRANCH   4  31
TORSDOF 8
ENDMDL
MODEL 7
REMARK VINA RESULT:      -8.7      3.738      6.280
REMARK  8 active torsions:
REMARK  status: ('A' for Active; 'I' for Inactive)
REMARK    1  A    between atoms: O_2  and  C_3 
REMARK    2  A    between atoms: C_10  and  C_11 
REMARK    3  A    between atoms: N_12  and  N_13 
REMARK       I    between atoms: N_13  and  C_14 
REMARK    4  A    between atoms: C_14  and  C_15 
REMARK    5  A    between atoms: N_18  and  C_19 
REMARK    6  A    between atoms: C_23  and  N_24 
REMARK    7  A    between atoms: C_25  and  C_26 
REMARK    8  A    between atoms: C_26  and  N_27 
ROOT
HETATM    1  C   UNL     1       8.617  30.309  58.349  1.00  0.00     0.176 C 
HETATM    2  N   UNL     1       9.842  29.830  57.990  1.00  0.00    -0.124 NA
HETATM    3  N   UNL     1       9.665  28.878  57.094  1.00  0.00    -0.058 NA
HETATM    4  N   UNL     1       8.333  28.672  56.914  1.00  0.00    -0.191 N 
HETATM    5  C   UNL     1       7.631  29.668  57.605  1.00  0.00     0.102 C 
ENDROOT
BRANCH   1   6
HETATM    6  C   UNL     1       8.444  31.344  59.359  1.00  0.00     0.294 C 
HETATM    7  N   UNL     1       7.769  30.927  60.489  1.00  0.00    -0.242 N 
HETATM    8  H   UNL     1       7.430  29.970  60.561  1.00  0.00     0.192 HD
HETATM    9  O   UNL     1       8.896  32.473  59.170  1.00  0.00    -0.264 OA
BRANCH   7  10
HETATM   10  N   UNL     1       7.552  31.810  61.503  1.00  0.00    -0.183 NA
HETATM   11  C   UNL     1       6.352  32.295  61.583  1.00  0.00     0.153 C 
BRANCH  11  12
HETATM   12  C   UNL     1       5.986  33.268  62.635  1.00  0.00     0.020 A 
HETATM   13  C   UNL     1       5.042  34.271  62.373  1.00  0.00     0.101 A 
HETATM   14  C   UNL     1       4.653  35.137  63.406  1.00  0.00     0.069 A 
HETATM   15 CL   UNL     1       3.415  36.320  63.185  1.00  0.00    -0.081 Cl
HETATM   16  C   UNL     1       5.246  35.041  64.668  1.00  0.00     0.050 A 
HETATM   17  C   UNL     1       6.212  34.066  64.903  1.00  0.00     0.036 A 
HETATM   18 CL   UNL     1       6.942  33.946  66.456  1.00  0.00    -0.084 Cl
HETATM   19  C   UNL     1       6.581  33.174  63.899  1.00  0.00     0.039 A 
BRANCH  13  20
HETATM   20  O   UNL     1       4.459  34.335  61.132  1.00  0.00    -0.353 OA
HETATM   21  C   UNL     1       3.195  33.664  61.126  1.00  0.00     0.210 C 
ENDBRANCH  13  20
ENDBRANCH  11  12
ENDBRANCH   7  10
ENDBRANCH   1   6
BRANCH   5  22
HETATM   22  C   UNL     1       6.149  29.813  57.558  1.00  0.00     0.296 C 
BRANCH  22  23
HETATM   23  N   UNL     1       5.619  31.143  57.041  1.00  0.00    -0.066 N 
HETATM   24  H   UNL     1       6.463  31.709  56.813  1.00  0.00     0.280 HD
HETATM   25  C   UNL     1       4.834  30.987  55.765  1.00  0.00     0.235 C 
HETATM   26  C   UNL     1       4.554  32.322  55.087  1.00  0.00     0.028 C 
HETATM   27  C   UNL     1       3.474  33.136  55.791  1.00  0.00     0.002 C 
HETATM   28  C   UNL     1       3.977  34.015  56.929  1.00  0.00     0.002 C 
HETATM   29  C   UNL     1       5.003  33.411  57.883  1.00  0.00     0.028 C 
HETATM   30  C   UNL     1       4.893  31.912  58.126  1.00  0.00     0.235 C 
ENDBRANCH  22  23
ENDBRANCH   5  22
BRANCH   4  31
HETATM   31  C   UNL     1       7.839  27.578  56.161  1.00  0.00     0.229 A 
HETATM   32  N   UNL     1       7.717  26.375  56.724  1.00  0.00    -0.081 NA
HETATM   33  O   UNL     1       7.241  25.568  55.687  1.00  0.00    -0.103 OA
HETATM   34  N   UNL     1       7.083  26.297  54.516  1.00  0.00    -0.083 NA
HETATM   35  C   UNL     1       7.459  27.540  54.807  1.00  0.00     0.201 A 
BRANCH  35  36
HETATM   36  N   UNL     1       7.453  28.561  53.934  1.00  0.00    -0.379 N 
HETATM   37  H   UNL     1       8.336  28.946  53.607  1.00  0.00     0.158 HD
HETATM   38  H   UNL     1       6.651  29.170  53.790  1.00  0.00     0.158 HD
ENDBRANCH  35  36
ENDBRANCH   4  31
TORSDOF 8
ENDMDL
MODEL 8
REMARK VINA RESULT:      -8.6      5.326      9.185
REMARK  8 active torsions:
REMARK  status: ('A' for Active; 'I' for Inactive)
REMARK    1  A    between atoms: O_2  and  C_3 
REMARK    2  A    between atoms: C_10  and  C_11 
REMARK    3  A    between atoms: N_12  and  N_13 
REMARK       I    between atoms: N_13  and  C_14 
REMARK    4  A    between atoms: C_14  and  C_15 
REMARK    5  A    between atoms: N_18  and  C_19 
REMARK    6  A    between atoms: C_23  and  N_24 
REMARK    7  A    between atoms: C_25  and  C_26 
REMARK    8  A    between atoms: C_26  and  N_27 
ROOT
HETATM    1  C   UNL     1       4.905  28.654  52.246  1.00  0.00     0.176 C 
HETATM    2  N   UNL     1       4.612  29.712  53.056  1.00  0.00    -0.124 NA
HETATM    3  N   UNL     1       4.587  30.802  52.314  1.00  0.00    -0.058 NA
HETATM    4  N   UNL     1       4.936  30.487  51.038  1.00  0.00    -0.191 N 
HETATM    5  C   UNL     1       5.015  29.092  50.930  1.00  0.00     0.102 C 
ENDROOT
BRANCH   1   6
HETATM    6  C   UNL     1       5.055  27.297  52.752  1.00  0.00     0.294 C 
HETATM    7  N   UNL     1       6.169  26.633  52.278  1.00  0.00    -0.242 N 
HETATM    8  H   UNL     1       6.799  27.092  51.622  1.00  0.00     0.192 HD
HETATM    9  O   UNL     1       4.233  26.839  53.546  1.00  0.00    -0.264 OA
BRANCH   7  10
HETATM   10  N   UNL     1       6.414  25.358  52.687  1.00  0.00    -0.183 NA
HETATM   11  C   UNL     1       7.424  25.205  53.486  1.00  0.00     0.153 C 
BRANCH  11  12
HETATM   12  C   UNL     1       7.801  23.871  54.000  1.00  0.00     0.020 A 
HETATM   13  C   UNL     1       7.986  23.669  55.375  1.00  0.00     0.101 A 
HETATM   14  C   UNL     1       8.270  22.379  55.849  1.00  0.00     0.069 A 
HETATM   15 CL   UNL     1       8.397  22.038  57.537  1.00  0.00    -0.081 Cl
HETATM   16  C   UNL     1       8.428  21.318  54.955  1.00  0.00     0.050 A 
HETATM   17  C   UNL     1       8.281  21.540  53.589  1.00  0.00     0.036 A 
HETATM   18 CL   UNL     1       8.475  20.233  52.486  1.00  0.00    -0.084 Cl
HETATM   19  C   UNL     1       7.962  22.806  53.105  1.00  0.00     0.039 A 
BRANCH  13  20
HETATM   20  O   UNL     1       7.807  24.722  56.237  1.00  0.00    -0.353 OA
HETATM   21  C   UNL     1       6.440  24.819  56.649  1.00  0.00     0.210 C 
ENDBRANCH  13  20
ENDBRANCH  11  12
ENDBRANCH   7  10
ENDBRANCH   1   6
BRANCH   5  22
HETATM   22  C   UNL     1       5.284  28.379  49.649  1.00  0.00     0.296 C 
BRANCH  22  23
HETATM   23  N   UNL     1       4.109  27.629  49.037  1.00  0.00    -0.066 N 
HETATM   24  H   UNL     1       3.823  26.929  49.753  1.00  0.00     0.280 HD
HETATM   25  C   UNL     1       2.923  28.525  48.798  1.00  0.00     0.235 C 
HETATM   26  C   UNL     1       1.659  27.742  48.467  1.00  0.00     0.028 C 
HETATM   27  C   UNL     1       1.662  27.170  47.054  1.00  0.00     0.002 C 
HETATM   28  C   UNL     1       2.334  25.811  46.917  1.00  0.00     0.002 C 
HETATM   29  C   UNL     1       3.649  25.597  47.662  1.00  0.00     0.028 C 
HETATM   30  C   UNL     1       4.534  26.825  47.826  1.00  0.00     0.235 C 
ENDBRANCH  22  23
ENDBRANCH   5  22
BRANCH   4  31
HETATM   31  C   UNL     1       5.189  31.482  50.062  1.00  0.00     0.229 A 
HETATM   32  N   UNL     1       6.420  31.649  49.576  1.00  0.00    -0.081 NA
HETATM   33  O   UNL     1       6.285  32.716  48.684  1.00  0.00    -0.103 OA
HETATM   34  N   UNL     1       4.976  33.175  48.646  1.00  0.00    -0.083 NA
HETATM   35  C   UNL     1       4.298  32.415  49.503  1.00  0.00     0.201 A 
BRANCH  35  36
HETATM   36  N   UNL     1       2.985  32.541  49.757  1.00  0.00    -0.379 N 
HETATM   37  H   UNL     1       2.599  33.460  49.961  1.00  0.00     0.158 HD
HETATM   38  H   UNL     1       2.394  31.765  50.047  1.00  0.00     0.158 HD
ENDBRANCH  35  36
ENDBRANCH   4  31
TORSDOF 8
ENDMDL
MODEL 9
REMARK VINA RESULT:      -8.6      5.771     11.398
REMARK  8 active torsions:
REMARK  status: ('A' for Active; 'I' for Inactive)
REMARK    1  A    between atoms: O_2  and  C_3 
REMARK    2  A    between atoms: C_10  and  C_11 
REMARK    3  A    between atoms: N_12  and  N_13 
REMARK       I    between atoms: N_13  and  C_14 
REMARK    4  A    between atoms: C_14  and  C_15 
REMARK    5  A    between atoms: N_18  and  C_19 
REMARK    6  A    between atoms: C_23  and  N_24 
REMARK    7  A    between atoms: C_25  and  C_26 
REMARK    8  A    between atoms: C_26  and  N_27 
ROOT
HETATM    1  C   UNL     1       3.194  32.613  60.499  1.00  0.00     0.176 C 
HETATM    2  N   UNL     1       2.470  33.723  60.181  1.00  0.00    -0.124 NA
HETATM    3  N   UNL     1       2.628  34.608  61.147  1.00  0.00    -0.058 NA
HETATM    4  N   UNL     1       3.385  34.064  62.136  1.00  0.00    -0.191 N 
HETATM    5  C   UNL     1       3.879  32.831  61.691  1.00  0.00     0.102 C 
ENDROOT
BRANCH   1   6
HETATM    6  C   UNL     1       3.208  31.419  59.666  1.00  0.00     0.294 C 
HETATM    7  N   UNL     1       3.999  31.521  58.539  1.00  0.00    -0.242 N 
HETATM    8  H   UNL     1       4.504  32.384  58.343  1.00  0.00     0.192 HD
HETATM    9  O   UNL     1       2.560  30.426  59.998  1.00  0.00    -0.264 OA
BRANCH   7  10
HETATM   10  N   UNL     1       4.092  30.463  57.687  1.00  0.00    -0.183 NA
HETATM   11  C   UNL     1       5.295  30.067  57.407  1.00  0.00     0.153 C 
BRANCH  11  12
HETATM   12  C   UNL     1       5.535  28.932  56.490  1.00  0.00     0.020 A 
HETATM   13  C   UNL     1       6.540  27.995  56.773  1.00  0.00     0.101 A 
HETATM   14  C   UNL     1       6.701  26.885  55.931  1.00  0.00     0.069 A 
HETATM   15 CL   UNL     1       7.841  25.636  56.281  1.00  0.00    -0.081 Cl
HETATM   16  C   UNL     1       5.911  26.745  54.787  1.00  0.00     0.050 A 
HETATM   17  C   UNL     1       4.944  27.703  54.497  1.00  0.00     0.036 A 
HETATM   18 CL   UNL     1       3.969  27.532  53.089  1.00  0.00    -0.084 Cl
HETATM   19  C   UNL     1       4.744  28.791  55.343  1.00  0.00     0.039 A 
BRANCH  13  20
HETATM   20  O   UNL     1       7.292  28.143  57.912  1.00  0.00    -0.353 OA
HETATM   21  C   UNL     1       8.524  28.813  57.627  1.00  0.00     0.210 C 
ENDBRANCH  13  20
ENDBRANCH  11  12
ENDBRANCH   7  10
ENDBRANCH   1   6
BRANCH   5  22
HETATM   22  C   UNL     1       4.825  31.990  62.478  1.00  0.00     0.296 C 
BRANCH  22  23
HETATM   23  N   UNL     1       6.181  31.725  61.839  1.00  0.00    -0.066 N 
HETATM   24  H   UNL     1       6.137  30.746  61.489  1.00  0.00     0.280 HD
HETATM   25  C   UNL     1       6.432  32.609  60.646  1.00  0.00     0.235 C 
HETATM   26  C   UNL     1       7.637  32.159  59.830  1.00  0.00     0.028 C 
HETATM   27  C   UNL     1       8.968  32.484  60.499  1.00  0.00     0.002 C 
HETATM   28  C   UNL     1       9.459  31.434  61.487  1.00  0.00     0.002 C 
HETATM   29  C   UNL     1       8.432  30.827  62.438  1.00  0.00     0.028 C 
HETATM   30  C   UNL     1       7.293  31.741  62.868  1.00  0.00     0.235 C 
ENDBRANCH  22  23
ENDBRANCH   5  22
BRANCH   4  31
HETATM   31  C   UNL     1       3.557  34.705  63.387  1.00  0.00     0.229 A 
HETATM   32  N   UNL     1       3.109  34.128  64.504  1.00  0.00    -0.081 NA
HETATM   33  O   UNL     1       3.424  35.052  65.505  1.00  0.00    -0.103 OA
HETATM   34  N   UNL     1       4.056  36.168  64.977  1.00  0.00    -0.083 NA
HETATM   35  C   UNL     1       4.134  35.957  63.665  1.00  0.00     0.201 A 
BRANCH  35  36
HETATM   36  N   UNL     1       4.684  36.813  62.788  1.00  0.00    -0.379 N 
HETATM   37  H   UNL     1       4.113  37.546  62.375  1.00  0.00     0.158 HD
HETATM   38  H   UNL     1       5.546  36.619  62.283  1.00  0.00     0.158 HD
ENDBRANCH  35  36
ENDBRANCH   4  31
TORSDOF 8
ENDMDL
MODEL 10
REMARK VINA RESULT:      -8.5      5.467      9.137
REMARK  8 active torsions:
REMARK  status: ('A' for Active; 'I' for Inactive)
REMARK    1  A    between atoms: O_2  and  C_3 
REMARK    2  A    between atoms: C_10  and  C_11 
REMARK    3  A    between atoms: N_12  and  N_13 
REMARK       I    between atoms: N_13  and  C_14 
REMARK    4  A    between atoms: C_14  and  C_15 
REMARK    5  A    between atoms: N_18  and  C_19 
REMARK    6  A    between atoms: C_23  and  N_24 
REMARK    7  A    between atoms: C_25  and  C_26 
REMARK    8  A    between atoms: C_26  and  N_27 
ROOT
HETATM    1  C   UNL     1       4.239  28.204  53.023  1.00  0.00     0.176 C 
HETATM    2  N   UNL     1       3.775  28.867  54.121  1.00  0.00    -0.124 NA
HETATM    3  N   UNL     1       3.468  30.098  53.758  1.00  0.00    -0.058 NA
HETATM    4  N   UNL     1       3.797  30.278  52.451  1.00  0.00    -0.191 N 
HETATM    5  C   UNL     1       4.170  29.039  51.913  1.00  0.00     0.102 C 
ENDROOT
BRANCH   1   6
HETATM    6  C   UNL     1       4.711  26.828  53.079  1.00  0.00     0.294 C 
HETATM    7  N   UNL     1       4.892  26.340  54.358  1.00  0.00    -0.242 N 
HETATM    8  H   UNL     1       4.708  26.934  55.165  1.00  0.00     0.192 HD
HETATM    9  O   UNL     1       4.901  26.198  52.039  1.00  0.00    -0.264 OA
BRANCH   7  10
HETATM   10  N   UNL     1       5.327  25.062  54.533  1.00  0.00    -0.183 NA
HETATM   11  C   UNL     1       6.598  24.922  54.750  1.00  0.00     0.153 C 
BRANCH  11  12
HETATM   12  C   UNL     1       7.200  23.587  54.951  1.00  0.00     0.020 A 
HETATM   13  C   UNL     1       7.464  22.758  53.851  1.00  0.00     0.101 A 
HETATM   14  C   UNL     1       8.104  21.526  54.057  1.00  0.00     0.069 A 
HETATM   15 CL   UNL     1       8.562  20.508  52.739  1.00  0.00    -0.081 Cl
HETATM   16  C   UNL     1       8.420  21.102  55.350  1.00  0.00     0.050 A 
HETATM   17  C   UNL     1       8.116  21.917  56.436  1.00  0.00     0.036 A 
HETATM   18 CL   UNL     1       8.504  21.396  58.029  1.00  0.00    -0.084 Cl
HETATM   19  C   UNL     1       7.516  23.159  56.247  1.00  0.00     0.039 A 
BRANCH  13  20
HETATM   20  O   UNL     1       7.163  23.203  52.588  1.00  0.00    -0.353 OA
HETATM   21  C   UNL     1       8.037  24.267  52.200  1.00  0.00     0.210 C 
ENDBRANCH  13  20
ENDBRANCH  11  12
ENDBRANCH   7  10
ENDBRANCH   1   6
BRANCH   5  22
HETATM   22  C   UNL     1       4.508  28.835  50.475  1.00  0.00     0.296 C 
BRANCH  22  23
HETATM   23  N   UNL     1       3.602  27.890  49.699  1.00  0.00    -0.066 N 
HETATM   24  H   UNL     1       3.216  27.231  50.407  1.00  0.00     0.280 HD
HETATM   25  C   UNL     1       2.431  28.604  49.077  1.00  0.00     0.235 C 
HETATM   26  C   UNL     1       1.373  27.641  48.555  1.00  0.00     0.028 C 
HETATM   27  C   UNL     1       1.784  26.942  47.264  1.00  0.00     0.002 C 
HETATM   28  C   UNL     1       2.599  25.670  47.458  1.00  0.00     0.002 C 
HETATM   29  C   UNL     1       3.700  25.694  48.514  1.00  0.00     0.028 C 
HETATM   30  C   UNL     1       4.393  27.033  48.731  1.00  0.00     0.235 C 
ENDBRANCH  22  23
ENDBRANCH   5  22
BRANCH   4  31
HETATM   31  C   UNL     1       3.768  31.555  51.840  1.00  0.00     0.229 A 
HETATM   32  N   UNL     1       4.859  32.040  51.244  1.00  0.00    -0.081 NA
HETATM   33  O   UNL     1       4.462  33.303  50.798  1.00  0.00    -0.103 OA
HETATM   34  N   UNL     1       3.139  33.559  51.130  1.00  0.00    -0.083 NA
HETATM   35  C   UNL     1       2.710  32.480  51.780  1.00  0.00     0.201 A 
BRANCH  35  36
HETATM   36  N   UNL     1       1.470  32.331  52.273  1.00  0.00    -0.379 N 
HETATM   37  H   UNL     1       1.292  32.532  53.254  1.00  0.00     0.158 HD
HETATM   38  H   UNL     1       0.754  31.763  51.825  1.00  0.00     0.158 HD
ENDBRANCH  35  36
ENDBRANCH   4  31
TORSDOF 8
ENDMDL
