MODEL 1
REMARK VINA RESULT:      -9.7      0.000      0.000
REMARK  7 active torsions:
REMARK  status: ('A' for Active; 'I' for Inactive)
REMARK    1  A    between atoms: C_2  and  O_3 
REMARK    2  A    between atoms: O_3  and  C_4 
REMARK    3  A    between atoms: C_7  and  C_8 
REMARK       I    between atoms: C_8  and  N_9 
REMARK    4  A    between atoms: N_9  and  N_10 
REMARK       I    between atoms: N_10  and  C_11 
REMARK    5  A    between atoms: C_11  and  C_12 
REMARK    6  A    between atoms: C_14  and  C_15 
REMARK    7  A    between atoms: C_22  and  C_23 
ROOT
HETATM    1  N   UNL     1       7.837  28.141  57.516  1.00  0.00    -0.262 N 
HETATM    2  C   UNL     1       6.672  27.632  56.978  1.00  0.00     0.291 C 
HETATM    3  O   UNL     1       5.564  27.987  57.383  1.00  0.00    -0.264 OA
HETATM    4  H   UNL     1       8.755  27.793  57.239  1.00  0.00     0.190 HD
ENDROOT
BRANCH   2   5
HETATM    5  C   UNL     1       6.884  26.647  55.930  1.00  0.00     0.159 A 
HETATM    6  N   UNL     1       7.176  25.312  56.192  1.00  0.00    -0.216 NA
HETATM    7  C   UNL     1       7.260  24.758  54.997  1.00  0.00     0.180 A 
HETATM    8  O   UNL     1       7.055  25.631  53.964  1.00  0.00    -0.293 OA
HETATM    9  C   UNL     1       6.815  26.837  54.562  1.00  0.00     0.094 A 
BRANCH   7  10
HETATM   10  C   UNL     1       7.521  23.368  54.628  1.00  0.00     0.017 A 
HETATM   11  C   UNL     1       7.577  22.380  55.622  1.00  0.00     0.016 A 
HETATM   12  C   UNL     1       7.816  21.044  55.289  1.00  0.00     0.001 A 
HETATM   13  C   UNL     1       8.002  20.678  53.957  1.00  0.00     0.000 A 
HETATM   14  C   UNL     1       7.951  21.646  52.958  1.00  0.00     0.001 A 
HETATM   15  C   UNL     1       7.712  22.983  53.291  1.00  0.00     0.016 A 
ENDBRANCH   7  10
BRANCH   9  16
HETATM   16  C   UNL     1       6.524  28.116  53.798  1.00  0.00     0.046 A 
HETATM   17  C   UNL     1       5.883  27.992  52.431  1.00  0.00     0.012 A 
HETATM   18  C   UNL     1       5.072  28.490  53.577  1.00  0.00     0.012 A 
ENDBRANCH   9  16
ENDBRANCH   2   5
BRANCH   1  19
HETATM   19  N   UNL     1       7.740  28.957  58.645  1.00  0.00    -0.263 N 
HETATM   20  C   UNL     1       8.557  30.060  58.765  1.00  0.00     0.270 C 
HETATM   21  O   UNL     1       9.366  30.403  57.909  1.00  0.00    -0.266 OA
HETATM   22  H   UNL     1       6.967  28.756  59.277  1.00  0.00     0.190 HD
BRANCH  20  23
HETATM   23  C   UNL     1       8.387  30.844  60.019  1.00  0.00     0.033 A 
HETATM   24  C   UNL     1       7.403  31.835  60.133  1.00  0.00     0.020 A 
HETATM   25  C   UNL     1       7.258  32.554  61.326  1.00  0.00     0.038 A 
HETATM   26  C   UNL     1       8.088  32.282  62.414  1.00  0.00     0.068 A 
HETATM   27  C   UNL     1       9.063  31.287  62.300  1.00  0.00     0.038 A 
HETATM   28  C   UNL     1       9.210  30.562  61.112  1.00  0.00     0.020 A 
BRANCH  26  29
HETATM   29  O   UNL     1       8.043  32.908  63.630  1.00  0.00    -0.352 OA
BRANCH  29  30
HETATM   30  C   UNL     1       6.757  33.071  64.228  1.00  0.00     0.171 C 
HETATM   31  C   UNL     1       6.941  33.770  65.563  1.00  0.00     0.034 C 
ENDBRANCH  29  30
ENDBRANCH  26  29
ENDBRANCH  20  23
ENDBRANCH   1  19
TORSDOF 7
ENDMDL
MODEL 2
REMARK VINA RESULT:      -8.9      2.090     10.247
REMARK  7 active torsions:
REMARK  status: ('A' for Active; 'I' for Inactive)
REMARK    1  A    between atoms: C_2  and  O_3 
REMARK    2  A    between atoms: O_3  and  C_4 
REMARK    3  A    between atoms: C_7  and  C_8 
REMARK       I    between atoms: C_8  and  N_9 
REMARK    4  A    between atoms: N_9  and  N_10 
REMARK       I    between atoms: N_10  and  C_11 
REMARK    5  A    between atoms: C_11  and  C_12 
REMARK    6  A    between atoms: C_14  and  C_15 
REMARK    7  A    between atoms: C_22  and  C_23 
ROOT
HETATM    1  N   UNL     1       6.965  28.701  57.991  1.00  0.00    -0.262 N 
HETATM    2  C   UNL     1       7.768  29.818  58.106  1.00  0.00     0.291 C 
HETATM    3  O   UNL     1       8.865  29.886  57.548  1.00  0.00    -0.264 OA
HETATM    4  H   UNL     1       6.094  28.608  58.513  1.00  0.00     0.190 HD
ENDROOT
BRANCH   2   5
HETATM    5  C   UNL     1       7.211  30.864  58.948  1.00  0.00     0.159 A 
HETATM    6  N   UNL     1       7.612  31.073  60.264  1.00  0.00    -0.216 NA
HETATM    7  C   UNL     1       6.904  32.116  60.657  1.00  0.00     0.180 A 
HETATM    8  O   UNL     1       6.058  32.605  59.701  1.00  0.00    -0.293 OA
HETATM    9  C   UNL     1       6.256  31.805  58.609  1.00  0.00     0.094 A 
BRANCH   7  10
HETATM   10  C   UNL     1       6.908  32.817  61.939  1.00  0.00     0.017 A 
HETATM   11  C   UNL     1       7.771  32.398  62.962  1.00  0.00     0.016 A 
HETATM   12  C   UNL     1       7.796  33.061  64.192  1.00  0.00     0.001 A 
HETATM   13  C   UNL     1       6.959  34.152  64.416  1.00  0.00     0.000 A 
HETATM   14  C   UNL     1       6.094  34.581  63.411  1.00  0.00     0.001 A 
HETATM   15  C   UNL     1       6.069  33.917  62.181  1.00  0.00     0.016 A 
ENDBRANCH   7  10
BRANCH   9  16
HETATM   16  C   UNL     1       5.526  31.980  57.290  1.00  0.00     0.046 A 
HETATM   17  C   UNL     1       4.454  30.969  56.937  1.00  0.00     0.012 A 
HETATM   18  C   UNL     1       4.056  32.346  57.341  1.00  0.00     0.012 A 
ENDBRANCH   9  16
ENDBRANCH   2   5
BRANCH   1  19
HETATM   19  N   UNL     1       7.489  27.576  57.351  1.00  0.00    -0.263 N 
HETATM   20  C   UNL     1       6.640  26.674  56.747  1.00  0.00     0.270 C 
HETATM   21  O   UNL     1       5.422  26.811  56.704  1.00  0.00    -0.266 OA
HETATM   22  H   UNL     1       8.503  27.545  57.259  1.00  0.00     0.190 HD
BRANCH  20  23
HETATM   23  C   UNL     1       7.304  25.499  56.119  1.00  0.00     0.033 A 
HETATM   24  C   UNL     1       7.099  25.180  54.769  1.00  0.00     0.020 A 
HETATM   25  C   UNL     1       7.740  24.073  54.200  1.00  0.00     0.038 A 
HETATM   26  C   UNL     1       8.596  23.285  54.970  1.00  0.00     0.068 A 
HETATM   27  C   UNL     1       8.804  23.610  56.313  1.00  0.00     0.038 A 
HETATM   28  C   UNL     1       8.169  24.717  56.888  1.00  0.00     0.020 A 
BRANCH  26  29
HETATM   29  O   UNL     1       9.282  22.186  54.531  1.00  0.00    -0.352 OA
BRANCH  29  30
HETATM   30  C   UNL     1       8.568  20.950  54.489  1.00  0.00     0.171 C 
HETATM   31  C   UNL     1       8.123  20.709  53.058  1.00  0.00     0.034 C 
ENDBRANCH  29  30
ENDBRANCH  26  29
ENDBRANCH  20  23
ENDBRANCH   1  19
TORSDOF 7
ENDMDL
MODEL 3
REMARK VINA RESULT:      -8.8      5.652     10.782
REMARK  7 active torsions:
REMARK  status: ('A' for Active; 'I' for Inactive)
REMARK    1  A    between atoms: C_2  and  O_3 
REMARK    2  A    between atoms: O_3  and  C_4 
REMARK    3  A    between atoms: C_7  and  C_8 
REMARK       I    between atoms: C_8  and  N_9 
REMARK    4  A    between atoms: N_9  and  N_10 
REMARK       I    between atoms: N_10  and  C_11 
REMARK    5  A    between atoms: C_11  and  C_12 
REMARK    6  A    between atoms: C_14  and  C_15 
REMARK    7  A    between atoms: C_22  and  C_23 
ROOT
HETATM    1  N   UNL     1       4.667  26.202  50.782  1.00  0.00    -0.262 N 
HETATM    2  C   UNL     1       4.858  26.614  52.087  1.00  0.00     0.291 C 
HETATM    3  O   UNL     1       4.242  27.570  52.560  1.00  0.00    -0.264 OA
HETATM    4  H   UNL     1       5.230  25.462  50.363  1.00  0.00     0.190 HD
ENDROOT
BRANCH   2   5
HETATM    5  C   UNL     1       5.848  25.836  52.813  1.00  0.00     0.159 A 
HETATM    6  N   UNL     1       5.851  24.444  52.838  1.00  0.00    -0.216 NA
HETATM    7  C   UNL     1       6.910  24.136  53.565  1.00  0.00     0.180 A 
HETATM    8  O   UNL     1       7.600  25.221  54.030  1.00  0.00    -0.293 OA
HETATM    9  C   UNL     1       6.921  26.306  53.549  1.00  0.00     0.094 A 
BRANCH   7  10
HETATM   10  C   UNL     1       7.446  22.824  53.922  1.00  0.00     0.017 A 
HETATM   11  C   UNL     1       7.883  21.950  52.917  1.00  0.00     0.016 A 
HETATM   12  C   UNL     1       8.407  20.695  53.239  1.00  0.00     0.001 A 
HETATM   13  C   UNL     1       8.501  20.297  54.571  1.00  0.00     0.000 A 
HETATM   14  C   UNL     1       8.069  21.152  55.582  1.00  0.00     0.001 A 
HETATM   15  C   UNL     1       7.545  22.407  55.260  1.00  0.00     0.016 A 
ENDBRANCH   7  10
BRANCH   9  16
HETATM   16  C   UNL     1       7.333  27.744  53.809  1.00  0.00     0.046 A 
HETATM   17  C   UNL     1       6.548  28.526  54.842  1.00  0.00     0.012 A 
HETATM   18  C   UNL     1       7.929  28.072  55.163  1.00  0.00     0.012 A 
ENDBRANCH   9  16
ENDBRANCH   2   5
BRANCH   1  19
HETATM   19  N   UNL     1       3.869  26.994  49.953  1.00  0.00    -0.263 N 
HETATM   20  C   UNL     1       3.322  26.452  48.810  1.00  0.00     0.270 C 
HETATM   21  O   UNL     1       3.466  25.281  48.477  1.00  0.00    -0.266 OA
HETATM   22  H   UNL     1       3.631  27.917  50.310  1.00  0.00     0.190 HD
BRANCH  20  23
HETATM   23  C   UNL     1       2.512  27.391  47.987  1.00  0.00     0.033 A 
HETATM   24  C   UNL     1       3.032  28.620  47.556  1.00  0.00     0.020 A 
HETATM   25  C   UNL     1       2.252  29.483  46.777  1.00  0.00     0.038 A 
HETATM   26  C   UNL     1       0.953  29.123  46.416  1.00  0.00     0.068 A 
HETATM   27  C   UNL     1       0.440  27.894  46.842  1.00  0.00     0.038 A 
HETATM   28  C   UNL     1       1.216  27.025  47.617  1.00  0.00     0.020 A 
BRANCH  26  29
HETATM   29  O   UNL     1       0.097  29.873  45.658  1.00  0.00    -0.352 OA
BRANCH  29  30
HETATM   30  C   UNL     1      -1.283  29.507  45.686  1.00  0.00     0.171 C 
HETATM   31  C   UNL     1      -2.057  30.629  46.354  1.00  0.00     0.034 C 
ENDBRANCH  29  30
ENDBRANCH  26  29
ENDBRANCH  20  23
ENDBRANCH   1  19
TORSDOF 7
ENDMDL
MODEL 4
REMARK VINA RESULT:      -8.7      1.497      2.205
REMARK  7 active torsions:
REMARK  status: ('A' for Active; 'I' for Inactive)
REMARK    1  A    between atoms: C_2  and  O_3 
REMARK    2  A    between atoms: O_3  and  C_4 
REMARK    3  A    between atoms: C_7  and  C_8 
REMARK       I    between atoms: C_8  and  N_9 
REMARK    4  A    between atoms: N_9  and  N_10 
REMARK       I    between atoms: N_10  and  C_11 
REMARK    5  A    between atoms: C_11  and  C_12 
REMARK    6  A    between atoms: C_14  and  C_15 
REMARK    7  A    between atoms: C_22  and  C_23 
ROOT
HETATM    1  N   UNL     1       7.184  29.805  58.289  1.00  0.00    -0.262 N 
HETATM    2  C   UNL     1       6.096  29.438  57.522  1.00  0.00     0.291 C 
HETATM    3  O   UNL     1       4.996  29.974  57.660  1.00  0.00    -0.264 OA
HETATM    4  H   UNL     1       8.075  29.311  58.232  1.00  0.00     0.190 HD
ENDROOT
BRANCH   2   5
HETATM    5  C   UNL     1       6.373  28.368  56.577  1.00  0.00     0.159 A 
HETATM    6  N   UNL     1       7.060  27.208  56.924  1.00  0.00    -0.216 NA
HETATM    7  C   UNL     1       7.071  26.493  55.814  1.00  0.00     0.180 A 
HETATM    8  O   UNL     1       6.451  27.100  54.756  1.00  0.00    -0.293 OA
HETATM    9  C   UNL     1       6.005  28.297  55.246  1.00  0.00     0.094 A 
BRANCH   7  10
HETATM   10  C   UNL     1       7.628  25.166  55.564  1.00  0.00     0.017 A 
HETATM   11  C   UNL     1       8.121  24.403  56.632  1.00  0.00     0.016 A 
HETATM   12  C   UNL     1       8.648  23.126  56.415  1.00  0.00     0.001 A 
HETATM   13  C   UNL     1       8.691  22.597  55.126  1.00  0.00     0.000 A 
HETATM   14  C   UNL     1       8.207  23.342  54.054  1.00  0.00     0.001 A 
HETATM   15  C   UNL     1       7.679  24.619  54.271  1.00  0.00     0.016 A 
ENDBRANCH   7  10
BRANCH   9  16
HETATM   16  C   UNL     1       5.243  29.317  54.419  1.00  0.00     0.046 A 
HETATM   17  C   UNL     1       4.632  28.852  53.113  1.00  0.00     0.012 A 
HETATM   18  C   UNL     1       3.746  29.131  54.277  1.00  0.00     0.012 A 
ENDBRANCH   9  16
ENDBRANCH   2   5
BRANCH   1  19
HETATM   19  N   UNL     1       6.975  30.697  59.343  1.00  0.00    -0.263 N 
HETATM   20  C   UNL     1       7.942  30.850  60.313  1.00  0.00     0.270 C 
HETATM   21  O   UNL     1       9.018  30.262  60.297  1.00  0.00    -0.266 OA
HETATM   22  H   UNL     1       6.150  31.290  59.270  1.00  0.00     0.190 HD
BRANCH  20  23
HETATM   23  C   UNL     1       7.603  31.806  61.402  1.00  0.00     0.033 A 
HETATM   24  C   UNL     1       8.224  31.733  62.657  1.00  0.00     0.020 A 
HETATM   25  C   UNL     1       7.893  32.648  63.664  1.00  0.00     0.038 A 
HETATM   26  C   UNL     1       6.948  33.646  63.422  1.00  0.00     0.068 A 
HETATM   27  C   UNL     1       6.336  33.720  62.167  1.00  0.00     0.038 A 
HETATM   28  C   UNL     1       6.665  32.812  61.156  1.00  0.00     0.020 A 
BRANCH  26  29
HETATM   29  O   UNL     1       6.544  34.598  64.317  1.00  0.00    -0.352 OA
BRANCH  29  30
HETATM   30  C   UNL     1       5.178  34.559  64.732  1.00  0.00     0.171 C 
HETATM   31  C   UNL     1       5.128  34.012  66.147  1.00  0.00     0.034 C 
ENDBRANCH  29  30
ENDBRANCH  26  29
ENDBRANCH  20  23
ENDBRANCH   1  19
TORSDOF 7
ENDMDL
MODEL 5
REMARK VINA RESULT:      -8.5      1.557      2.020
REMARK  7 active torsions:
REMARK  status: ('A' for Active; 'I' for Inactive)
REMARK    1  A    between atoms: C_2  and  O_3 
REMARK    2  A    between atoms: O_3  and  C_4 
REMARK    3  A    between atoms: C_7  and  C_8 
REMARK       I    between atoms: C_8  and  N_9 
REMARK    4  A    between atoms: N_9  and  N_10 
REMARK       I    between atoms: N_10  and  C_11 
REMARK    5  A    between atoms: C_11  and  C_12 
REMARK    6  A    between atoms: C_14  and  C_15 
REMARK    7  A    between atoms: C_22  and  C_23 
ROOT
HETATM    1  N   UNL     1       7.016  27.779  56.619  1.00  0.00    -0.262 N 
HETATM    2  C   UNL     1       6.021  27.156  55.893  1.00  0.00     0.291 C 
HETATM    3  O   UNL     1       4.852  27.544  55.932  1.00  0.00    -0.264 OA
HETATM    4  H   UNL     1       7.968  27.414  56.651  1.00  0.00     0.190 HD
ENDROOT
BRANCH   2   5
HETATM    5  C   UNL     1       6.479  26.014  55.119  1.00  0.00     0.159 A 
HETATM    6  N   UNL     1       6.888  24.817  55.701  1.00  0.00    -0.216 NA
HETATM    7  C   UNL     1       7.189  24.043  54.674  1.00  0.00     0.180 A 
HETATM    8  O   UNL     1       7.018  24.644  53.458  1.00  0.00    -0.293 OA
HETATM    9  C   UNL     1       6.564  25.902  53.743  1.00  0.00     0.094 A 
BRANCH   7  10
HETATM   10  C   UNL     1       7.654  22.659  54.655  1.00  0.00     0.017 A 
HETATM   11  C   UNL     1       7.919  21.993  55.860  1.00  0.00     0.016 A 
HETATM   12  C   UNL     1       8.356  20.665  55.863  1.00  0.00     0.001 A 
HETATM   13  C   UNL     1       8.535  19.986  54.659  1.00  0.00     0.000 A 
HETATM   14  C   UNL     1       8.279  20.632  53.453  1.00  0.00     0.001 A 
HETATM   15  C   UNL     1       7.842  21.960  53.450  1.00  0.00     0.016 A 
ENDBRANCH   7  10
BRANCH   9  16
HETATM   16  C   UNL     1       6.227  26.939  52.687  1.00  0.00     0.046 A 
HETATM   17  C   UNL     1       5.757  26.443  51.335  1.00  0.00     0.012 A 
HETATM   18  C   UNL     1       4.778  27.070  52.265  1.00  0.00     0.012 A 
ENDBRANCH   9  16
ENDBRANCH   2   5
BRANCH   1  19
HETATM   19  N   UNL     1       6.645  28.772  57.528  1.00  0.00    -0.263 N 
HETATM   20  C   UNL     1       7.500  29.821  57.783  1.00  0.00     0.270 C 
HETATM   21  O   UNL     1       8.584  29.965  57.227  1.00  0.00    -0.266 OA
HETATM   22  H   UNL     1       5.687  28.728  57.872  1.00  0.00     0.190 HD
BRANCH  20  23
HETATM   23  C   UNL     1       7.015  30.807  58.788  1.00  0.00     0.033 A 
HETATM   24  C   UNL     1       7.705  31.027  59.987  1.00  0.00     0.020 A 
HETATM   25  C   UNL     1       7.232  31.964  60.914  1.00  0.00     0.038 A 
HETATM   26  C   UNL     1       6.073  32.693  60.645  1.00  0.00     0.068 A 
HETATM   27  C   UNL     1       5.391  32.477  59.444  1.00  0.00     0.038 A 
HETATM   28  C   UNL     1       5.861  31.545  58.512  1.00  0.00     0.020 A 
BRANCH  26  29
HETATM   29  O   UNL     1       5.514  33.637  61.462  1.00  0.00    -0.352 OA
BRANCH  29  30
HETATM   30  C   UNL     1       6.398  34.354  62.324  1.00  0.00     0.171 C 
HETATM   31  C   UNL     1       5.840  35.751  62.520  1.00  0.00     0.034 C 
ENDBRANCH  29  30
ENDBRANCH  26  29
ENDBRANCH  20  23
ENDBRANCH   1  19
TORSDOF 7
ENDMDL
MODEL 6
REMARK VINA RESULT:      -8.4      5.361     10.234
REMARK  7 active torsions:
REMARK  status: ('A' for Active; 'I' for Inactive)
REMARK    1  A    between atoms: C_2  and  O_3 
REMARK    2  A    between atoms: O_3  and  C_4 
REMARK    3  A    between atoms: C_7  and  C_8 
REMARK       I    between atoms: C_8  and  N_9 
REMARK    4  A    between atoms: N_9  and  N_10 
REMARK       I    between atoms: N_10  and  C_11 
REMARK    5  A    between atoms: C_11  and  C_12 
REMARK    6  A    between atoms: C_14  and  C_15 
REMARK    7  A    between atoms: C_22  and  C_23 
ROOT
HETATM    1  N   UNL     1       5.982  26.682  50.868  1.00  0.00    -0.262 N 
HETATM    2  C   UNL     1       5.610  26.704  52.197  1.00  0.00     0.291 C 
HETATM    3  O   UNL     1       4.717  27.448  52.607  1.00  0.00    -0.264 OA
HETATM    4  H   UNL     1       6.772  26.127  50.539  1.00  0.00     0.190 HD
ENDROOT
BRANCH   2   5
HETATM    5  C   UNL     1       6.377  25.802  53.041  1.00  0.00     0.159 A 
HETATM    6  N   UNL     1       6.398  24.423  52.855  1.00  0.00    -0.216 NA
HETATM    7  C   UNL     1       7.221  23.982  53.789  1.00  0.00     0.180 A 
HETATM    8  O   UNL     1       7.737  24.967  54.584  1.00  0.00    -0.293 OA
HETATM    9  C   UNL     1       7.198  26.129  54.105  1.00  0.00     0.094 A 
BRANCH   7  10
HETATM   10  C   UNL     1       7.661  22.619  54.077  1.00  0.00     0.017 A 
HETATM   11  C   UNL     1       8.072  21.782  53.030  1.00  0.00     0.016 A 
HETATM   12  C   UNL     1       8.506  20.477  53.286  1.00  0.00     0.001 A 
HETATM   13  C   UNL     1       8.533  19.993  54.592  1.00  0.00     0.000 A 
HETATM   14  C   UNL     1       8.126  20.811  55.644  1.00  0.00     0.001 A 
HETATM   15  C   UNL     1       7.692  22.115  55.388  1.00  0.00     0.016 A 
ENDBRANCH   7  10
BRANCH   9  16
HETATM   16  C   UNL     1       7.496  27.501  54.683  1.00  0.00     0.046 A 
HETATM   17  C   UNL     1       6.493  28.092  55.652  1.00  0.00     0.012 A 
HETATM   18  C   UNL     1       7.797  27.591  56.166  1.00  0.00     0.012 A 
ENDBRANCH   9  16
ENDBRANCH   2   5
BRANCH   1  19
HETATM   19  N   UNL     1       5.428  27.637  50.013  1.00  0.00    -0.263 N 
HETATM   20  C   UNL     1       4.481  27.260  49.087  1.00  0.00     0.270 C 
HETATM   21  O   UNL     1       4.054  26.115  48.978  1.00  0.00    -0.266 OA
HETATM   22  H   UNL     1       5.673  28.607  50.208  1.00  0.00     0.190 HD
BRANCH  20  23
HETATM   23  C   UNL     1       3.978  28.354  48.211  1.00  0.00     0.033 A 
HETATM   24  C   UNL     1       2.790  28.217  47.480  1.00  0.00     0.020 A 
HETATM   25  C   UNL     1       2.335  29.263  46.668  1.00  0.00     0.038 A 
HETATM   26  C   UNL     1       3.056  30.454  46.588  1.00  0.00     0.068 A 
HETATM   27  C   UNL     1       4.237  30.591  47.324  1.00  0.00     0.038 A 
HETATM   28  C   UNL     1       4.695  29.551  48.140  1.00  0.00     0.020 A 
BRANCH  26  29
HETATM   29  O   UNL     1       2.716  31.547  45.838  1.00  0.00    -0.352 OA
BRANCH  29  30
HETATM   30  C   UNL     1       3.781  32.252  45.199  1.00  0.00     0.171 C 
HETATM   31  C   UNL     1       3.954  31.683  43.803  1.00  0.00     0.034 C 
ENDBRANCH  29  30
ENDBRANCH  26  29
ENDBRANCH  20  23
ENDBRANCH   1  19
TORSDOF 7
ENDMDL
MODEL 7
REMARK VINA RESULT:      -8.3      1.874      4.119
REMARK  7 active torsions:
REMARK  status: ('A' for Active; 'I' for Inactive)
REMARK    1  A    between atoms: C_2  and  O_3 
REMARK    2  A    between atoms: O_3  and  C_4 
REMARK    3  A    between atoms: C_7  and  C_8 
REMARK       I    between atoms: C_8  and  N_9 
REMARK    4  A    between atoms: N_9  and  N_10 
REMARK       I    between atoms: N_10  and  C_11 
REMARK    5  A    between atoms: C_11  and  C_12 
REMARK    6  A    between atoms: C_14  and  C_15 
REMARK    7  A    between atoms: C_22  and  C_23 
ROOT
HETATM    1  N   UNL     1       6.782  29.196  56.823  1.00  0.00    -0.262 N 
HETATM    2  C   UNL     1       5.513  28.868  56.389  1.00  0.00     0.291 C 
HETATM    3  O   UNL     1       4.509  29.184  57.029  1.00  0.00    -0.264 OA
HETATM    4  H   UNL     1       7.618  28.869  56.338  1.00  0.00     0.190 HD
ENDROOT
BRANCH   2   5
HETATM    5  C   UNL     1       5.488  28.116  55.145  1.00  0.00     0.159 A 
HETATM    6  N   UNL     1       5.254  28.706  53.906  1.00  0.00    -0.216 NA
HETATM    7  C   UNL     1       5.346  27.706  53.049  1.00  0.00     0.180 A 
HETATM    8  O   UNL     1       5.615  26.498  53.631  1.00  0.00    -0.293 OA
HETATM    9  C   UNL     1       5.706  26.762  54.969  1.00  0.00     0.094 A 
BRANCH   7  10
HETATM   10  C   UNL     1       5.220  27.710  51.593  1.00  0.00     0.017 A 
HETATM   11  C   UNL     1       4.890  26.528  50.916  1.00  0.00     0.016 A 
HETATM   12  C   UNL     1       4.755  26.513  49.525  1.00  0.00     0.001 A 
HETATM   13  C   UNL     1       4.950  27.683  48.792  1.00  0.00     0.000 A 
HETATM   14  C   UNL     1       5.280  28.866  49.448  1.00  0.00     0.001 A 
HETATM   15  C   UNL     1       5.415  28.880  50.839  1.00  0.00     0.016 A 
ENDBRANCH   7  10
BRANCH   9  16
HETATM   16  C   UNL     1       6.002  25.707  56.020  1.00  0.00     0.046 A 
HETATM   17  C   UNL     1       6.656  24.419  55.564  1.00  0.00     0.012 A 
HETATM   18  C   UNL     1       7.455  25.412  56.333  1.00  0.00     0.012 A 
ENDBRANCH   9  16
ENDBRANCH   2   5
BRANCH   1  19
HETATM   19  N   UNL     1       6.918  29.761  58.093  1.00  0.00    -0.263 N 
HETATM   20  C   UNL     1       8.135  30.274  58.487  1.00  0.00     0.270 C 
HETATM   21  O   UNL     1       9.128  30.297  57.767  1.00  0.00    -0.266 OA
HETATM   22  H   UNL     1       6.058  29.875  58.626  1.00  0.00     0.190 HD
BRANCH  20  23
HETATM   23  C   UNL     1       8.173  30.827  59.868  1.00  0.00     0.033 A 
HETATM   24  C   UNL     1       9.270  30.608  60.712  1.00  0.00     0.020 A 
HETATM   25  C   UNL     1       9.285  31.144  62.006  1.00  0.00     0.038 A 
HETATM   26  C   UNL     1       8.211  31.911  62.460  1.00  0.00     0.068 A 
HETATM   27  C   UNL     1       7.122  32.134  61.613  1.00  0.00     0.038 A 
HETATM   28  C   UNL     1       7.102  31.604  60.318  1.00  0.00     0.020 A 
BRANCH  26  29
HETATM   29  O   UNL     1       8.109  32.491  63.694  1.00  0.00    -0.352 OA
BRANCH  29  30
HETATM   30  C   UNL     1       7.012  33.381  63.903  1.00  0.00     0.171 C 
HETATM   31  C   UNL     1       7.032  33.825  65.354  1.00  0.00     0.034 C 
ENDBRANCH  29  30
ENDBRANCH  26  29
ENDBRANCH  20  23
ENDBRANCH   1  19
TORSDOF 7
ENDMDL
MODEL 8
REMARK VINA RESULT:      -8.1      2.755     10.440
REMARK  7 active torsions:
REMARK  status: ('A' for Active; 'I' for Inactive)
REMARK    1  A    between atoms: C_2  and  O_3 
REMARK    2  A    between atoms: O_3  and  C_4 
REMARK    3  A    between atoms: C_7  and  C_8 
REMARK       I    between atoms: C_8  and  N_9 
REMARK    4  A    between atoms: N_9  and  N_10 
REMARK       I    between atoms: N_10  and  C_11 
REMARK    5  A    between atoms: C_11  and  C_12 
REMARK    6  A    between atoms: C_14  and  C_15 
REMARK    7  A    between atoms: C_22  and  C_23 
ROOT
HETATM    1  N   UNL     1       6.680  28.971  57.812  1.00  0.00    -0.262 N 
HETATM    2  C   UNL     1       7.578  29.942  58.210  1.00  0.00     0.291 C 
HETATM    3  O   UNL     1       8.789  29.819  58.018  1.00  0.00    -0.264 OA
HETATM    4  H   UNL     1       5.687  29.032  58.038  1.00  0.00     0.190 HD
ENDROOT
BRANCH   2   5
HETATM    5  C   UNL     1       6.965  31.078  58.878  1.00  0.00     0.159 A 
HETATM    6  N   UNL     1       5.926  31.816  58.319  1.00  0.00    -0.216 NA
HETATM    7  C   UNL     1       5.639  32.720  59.239  1.00  0.00     0.180 A 
HETATM    8  O   UNL     1       6.419  32.638  60.359  1.00  0.00    -0.293 OA
HETATM    9  C   UNL     1       7.264  31.589  60.128  1.00  0.00     0.094 A 
BRANCH   7  10
HETATM   10  C   UNL     1       4.616  33.763  59.234  1.00  0.00     0.017 A 
HETATM   11  C   UNL     1       3.728  33.876  60.314  1.00  0.00     0.016 A 
HETATM   12  C   UNL     1       2.749  34.874  60.333  1.00  0.00     0.001 A 
HETATM   13  C   UNL     1       2.645  35.771  59.272  1.00  0.00     0.000 A 
HETATM   14  C   UNL     1       3.518  35.672  58.191  1.00  0.00     0.001 A 
HETATM   15  C   UNL     1       4.497  34.675  58.172  1.00  0.00     0.016 A 
ENDBRANCH   7  10
BRANCH   9  16
HETATM   16  C   UNL     1       8.318  31.119  61.114  1.00  0.00     0.046 A 
HETATM   17  C   UNL     1       9.606  31.911  61.203  1.00  0.00     0.012 A 
HETATM   18  C   UNL     1       8.612  32.006  62.307  1.00  0.00     0.012 A 
ENDBRANCH   9  16
ENDBRANCH   2   5
BRANCH   1  19
HETATM   19  N   UNL     1       7.187  27.766  57.323  1.00  0.00    -0.263 N 
HETATM   20  C   UNL     1       6.321  26.781  56.900  1.00  0.00     0.270 C 
HETATM   21  O   UNL     1       5.101  26.904  56.894  1.00  0.00    -0.266 OA
HETATM   22  H   UNL     1       8.196  27.726  57.190  1.00  0.00     0.190 HD
BRANCH  20  23
HETATM   23  C   UNL     1       6.969  25.528  56.423  1.00  0.00     0.033 A 
HETATM   24  C   UNL     1       6.479  24.830  55.310  1.00  0.00     0.020 A 
HETATM   25  C   UNL     1       7.109  23.658  54.878  1.00  0.00     0.038 A 
HETATM   26  C   UNL     1       8.238  23.179  55.546  1.00  0.00     0.068 A 
HETATM   27  C   UNL     1       8.728  23.881  56.651  1.00  0.00     0.038 A 
HETATM   28  C   UNL     1       8.105  25.056  57.086  1.00  0.00     0.020 A 
BRANCH  26  29
HETATM   29  O   UNL     1       8.943  22.054  55.219  1.00  0.00    -0.352 OA
BRANCH  29  30
HETATM   30  C   UNL     1       9.106  21.772  53.829  1.00  0.00     0.171 C 
HETATM   31  C   UNL     1       8.380  20.475  53.521  1.00  0.00     0.034 C 
ENDBRANCH  29  30
ENDBRANCH  26  29
ENDBRANCH  20  23
ENDBRANCH   1  19
TORSDOF 7
ENDMDL
MODEL 9
REMARK VINA RESULT:      -7.8      3.122      3.869
REMARK  7 active torsions:
REMARK  status: ('A' for Active; 'I' for Inactive)
REMARK    1  A    between atoms: C_2  and  O_3 
REMARK    2  A    between atoms: O_3  and  C_4 
REMARK    3  A    between atoms: C_7  and  C_8 
REMARK       I    between atoms: C_8  and  N_9 
REMARK    4  A    between atoms: N_9  and  N_10 
REMARK       I    between atoms: N_10  and  C_11 
REMARK    5  A    between atoms: C_11  and  C_12 
REMARK    6  A    between atoms: C_14  and  C_15 
REMARK    7  A    between atoms: C_22  and  C_23 
ROOT
HETATM    1  N   UNL     1       6.123  28.969  54.659  1.00  0.00    -0.262 N 
HETATM    2  C   UNL     1       5.098  28.143  54.242  1.00  0.00     0.291 C 
HETATM    3  O   UNL     1       3.917  28.486  54.321  1.00  0.00    -0.264 OA
HETATM    4  H   UNL     1       7.094  28.658  54.668  1.00  0.00     0.190 HD
ENDROOT
BRANCH   2   5
HETATM    5  C   UNL     1       5.544  26.855  53.735  1.00  0.00     0.159 A 
HETATM    6  N   UNL     1       6.255  25.941  54.507  1.00  0.00    -0.216 NA
HETATM    7  C   UNL     1       6.436  24.909  53.703  1.00  0.00     0.180 A 
HETATM    8  O   UNL     1       5.906  25.079  52.454  1.00  0.00    -0.293 OA
HETATM    9  C   UNL     1       5.336  26.322  52.476  1.00  0.00     0.094 A 
BRANCH   7  10
HETATM   10  C   UNL     1       7.096  23.631  53.959  1.00  0.00     0.017 A 
HETATM   11  C   UNL     1       7.209  23.154  55.273  1.00  0.00     0.016 A 
HETATM   12  C   UNL     1       7.828  21.929  55.538  1.00  0.00     0.001 A 
HETATM   13  C   UNL     1       8.343  21.165  54.492  1.00  0.00     0.000 A 
HETATM   14  C   UNL     1       8.241  21.625  53.182  1.00  0.00     0.001 A 
HETATM   15  C   UNL     1       7.622  22.850  52.917  1.00  0.00     0.016 A 
ENDBRANCH   7  10
BRANCH   9  16
HETATM   16  C   UNL     1       4.614  26.942  51.293  1.00  0.00     0.046 A 
HETATM   17  C   UNL     1       5.410  27.847  50.375  1.00  0.00     0.012 A 
HETATM   18  C   UNL     1       5.018  26.489  49.905  1.00  0.00     0.012 A 
ENDBRANCH   9  16
ENDBRANCH   2   5
BRANCH   1  19
HETATM   19  N   UNL     1       5.787  30.150  55.323  1.00  0.00    -0.263 N 
HETATM   20  C   UNL     1       5.881  30.214  56.696  1.00  0.00     0.270 C 
HETATM   21  O   UNL     1       6.281  29.288  57.394  1.00  0.00    -0.266 OA
HETATM   22  H   UNL     1       5.601  30.959  54.732  1.00  0.00     0.190 HD
BRANCH  20  23
HETATM   23  C   UNL     1       5.474  31.512  57.301  1.00  0.00     0.033 A 
HETATM   24  C   UNL     1       4.900  32.530  56.528  1.00  0.00     0.020 A 
HETATM   25  C   UNL     1       4.520  33.740  57.121  1.00  0.00     0.038 A 
HETATM   26  C   UNL     1       4.700  33.937  58.491  1.00  0.00     0.068 A 
HETATM   27  C   UNL     1       5.265  32.917  59.261  1.00  0.00     0.038 A 
HETATM   28  C   UNL     1       5.644  31.704  58.675  1.00  0.00     0.020 A 
BRANCH  26  29
HETATM   29  O   UNL     1       4.366  35.066  59.187  1.00  0.00    -0.352 OA
BRANCH  29  30
HETATM   30  C   UNL     1       3.976  36.207  58.423  1.00  0.00     0.171 C 
HETATM   31  C   UNL     1       2.550  36.566  58.801  1.00  0.00     0.034 C 
ENDBRANCH  29  30
ENDBRANCH  26  29
ENDBRANCH  20  23
ENDBRANCH   1  19
TORSDOF 7
ENDMDL
MODEL 10
REMARK VINA RESULT:      -7.8      2.623      4.398
REMARK  7 active torsions:
REMARK  status: ('A' for Active; 'I' for Inactive)
REMARK    1  A    between atoms: C_2  and  O_3 
REMARK    2  A    between atoms: O_3  and  C_4 
REMARK    3  A    between atoms: C_7  and  C_8 
REMARK       I    between atoms: C_8  and  N_9 
REMARK    4  A    between atoms: N_9  and  N_10 
REMARK       I    between atoms: N_10  and  C_11 
REMARK    5  A    between atoms: C_11  and  C_12 
REMARK    6  A    between atoms: C_14  and  C_15 
REMARK    7  A    between atoms: C_22  and  C_23 
ROOT
HETATM    1  N   UNL     1       6.219  31.198  59.605  1.00  0.00    -0.262 N 
HETATM    2  C   UNL     1       6.146  31.529  58.266  1.00  0.00     0.291 C 
HETATM    3  O   UNL     1       5.987  32.693  57.895  1.00  0.00    -0.264 OA
HETATM    4  H   UNL     1       6.271  30.228  59.917  1.00  0.00     0.190 HD
ENDROOT
BRANCH   2   5
HETATM    5  C   UNL     1       6.252  30.390  57.368  1.00  0.00     0.159 A 
HETATM    6  N   UNL     1       6.959  29.234  57.688  1.00  0.00    -0.216 NA
HETATM    7  C   UNL     1       6.784  28.448  56.642  1.00  0.00     0.180 A 
HETATM    8  O   UNL     1       6.022  29.002  55.651  1.00  0.00    -0.293 OA
HETATM    9  C   UNL     1       5.682  30.242  56.116  1.00  0.00     0.094 A 
BRANCH   7  10
HETATM   10  C   UNL     1       7.267  27.089  56.406  1.00  0.00     0.017 A 
HETATM   11  C   UNL     1       6.949  26.433  55.209  1.00  0.00     0.016 A 
HETATM   12  C   UNL     1       7.410  25.136  54.959  1.00  0.00     0.001 A 
HETATM   13  C   UNL     1       8.195  24.480  55.905  1.00  0.00     0.000 A 
HETATM   14  C   UNL     1       8.519  25.116  57.101  1.00  0.00     0.001 A 
HETATM   15  C   UNL     1       8.058  26.412  57.350  1.00  0.00     0.016 A 
ENDBRANCH   7  10
BRANCH   9  16
HETATM   16  C   UNL     1       4.824  31.228  55.345  1.00  0.00     0.046 A 
HETATM   17  C   UNL     1       3.883  30.675  54.295  1.00  0.00     0.012 A 
HETATM   18  C   UNL     1       3.327  31.191  55.577  1.00  0.00     0.012 A 
ENDBRANCH   9  16
ENDBRANCH   2   5
BRANCH   1  19
HETATM   19  N   UNL     1       5.950  32.195  60.545  1.00  0.00    -0.263 N 
HETATM   20  C   UNL     1       6.597  32.180  61.762  1.00  0.00     0.270 C 
HETATM   21  O   UNL     1       7.438  31.344  62.074  1.00  0.00    -0.266 OA
HETATM   22  H   UNL     1       5.367  32.966  60.225  1.00  0.00     0.190 HD
BRANCH  20  23
HETATM   23  C   UNL     1       6.216  33.274  62.696  1.00  0.00     0.033 A 
HETATM   24  C   UNL     1       6.766  33.361  63.982  1.00  0.00     0.020 A 
HETATM   25  C   UNL     1       6.397  34.403  64.841  1.00  0.00     0.038 A 
HETATM   26  C   UNL     1       5.483  35.370  64.418  1.00  0.00     0.068 A 
HETATM   27  C   UNL     1       4.942  35.285  63.133  1.00  0.00     0.038 A 
HETATM   28  C   UNL     1       5.310  34.248  62.268  1.00  0.00     0.020 A 
BRANCH  26  29
HETATM   29  O   UNL     1       5.048  36.435  65.157  1.00  0.00    -0.352 OA
BRANCH  29  30
HETATM   30  C   UNL     1       4.656  36.173  66.505  1.00  0.00     0.171 C 
HETATM   31  C   UNL     1       3.318  35.457  66.479  1.00  0.00     0.034 C 
ENDBRANCH  29  30
ENDBRANCH  26  29
ENDBRANCH  20  23
ENDBRANCH   1  19
TORSDOF 7
ENDMDL
