MODEL 1
REMARK VINA RESULT:     -10.4      0.000      0.000
REMARK  3 active torsions:
REMARK  status: ('A' for Active; 'I' for Inactive)
REMARK    1  A    between atoms: C_9  and  C_10 
REMARK       I    between atoms: C_10  and  N_11 
REMARK    2  A    between atoms: N_11  and  C_12 
REMARK    3  A    between atoms: C_12  and  C_13 
ROOT
HETATM    1  C   UNL     1       7.276  25.509  55.683  1.00  0.00     0.273 C 
HETATM    2  N   UNL     1       7.986  26.598  56.137  1.00  0.00    -0.347 N 
HETATM    3  O   UNL     1       6.380  25.583  54.846  1.00  0.00    -0.266 OA
HETATM    4  H   UNL     1       8.629  26.406  56.899  1.00  0.00     0.163 HD
ENDROOT
BRANCH   2   5
HETATM    5  C   UNL     1       7.717  27.953  55.712  1.00  0.00     0.114 C 
HETATM    6  C   UNL     1       8.170  28.155  54.265  1.00  0.00     0.037 C 
BRANCH   5   7
HETATM    7  C   UNL     1       8.359  28.958  56.653  1.00  0.00    -0.034 A 
HETATM    8  C   UNL     1       7.727  29.272  57.868  1.00  0.00     0.041 A 
HETATM    9  C   UNL     1       8.279  30.225  58.727  1.00  0.00     0.069 A 
HETATM   10  C   UNL     1       9.474  30.864  58.398  1.00  0.00     0.096 A 
HETATM   11  N   UNL     1       7.634  30.519  59.928  1.00  0.00    -0.323 N 
HETATM   12  O   UNL     1      10.091  31.784  59.199  1.00  0.00    -0.340 OA
HETATM   13  C   UNL     1      10.130  30.532  57.215  1.00  0.00     0.040 A 
HETATM   14  C   UNL     1       9.271  32.309  60.232  1.00  0.00     0.278 C 
HETATM   15  C   UNL     1       8.088  31.500  60.763  1.00  0.00     0.246 C 
HETATM   16  O   UNL     1       7.529  31.747  61.829  1.00  0.00    -0.271 OA
HETATM   17  C   UNL     1       9.576  29.588  56.346  1.00  0.00     0.012 A 
HETATM   18  H   UNL     1       6.813  30.006  60.220  1.00  0.00     0.169 HD
ENDBRANCH   5   7
ENDBRANCH   2   5
BRANCH   1  19
HETATM   19  C   UNL     1       7.724  24.244  56.290  1.00  0.00     0.157 A 
HETATM   20  C   UNL     1       7.916  22.988  55.641  1.00  0.00     0.029 A 
HETATM   21  C   UNL     1       7.757  22.484  54.334  1.00  0.00     0.023 A 
HETATM   22  C   UNL     1       8.382  22.135  56.634  1.00  0.00     0.063 A 
HETATM   23  C   UNL     1       8.069  21.140  54.068  1.00  0.00    -0.061 A 
HETATM   24  C   UNL     1       7.909  20.582  52.683  1.00  0.00     0.048 C 
HETATM   25  C   UNL     1       8.546  20.319  55.097  1.00  0.00     0.009 A 
HETATM   26  C   UNL     1       8.712  20.798  56.402  1.00  0.00     0.032 A 
HETATM   27  N   UNL     1       8.425  22.895  57.771  1.00  0.00    -0.277 N 
HETATM   28  H   UNL     1       8.721  22.597  58.693  1.00  0.00     0.189 HD
HETATM   29  N   UNL     1       8.030  24.170  57.606  1.00  0.00    -0.168 NA
ENDBRANCH   1  19
TORSDOF 3
ENDMDL
MODEL 2
REMARK VINA RESULT:     -10.3      2.250      3.610
REMARK  3 active torsions:
REMARK  status: ('A' for Active; 'I' for Inactive)
REMARK    1  A    between atoms: C_9  and  C_10 
REMARK       I    between atoms: C_10  and  N_11 
REMARK    2  A    between atoms: N_11  and  C_12 
REMARK    3  A    between atoms: C_12  and  C_13 
ROOT
HETATM    1  C   UNL     1       7.967  28.630  56.842  1.00  0.00     0.273 C 
HETATM    2  N   UNL     1       8.779  29.122  57.840  1.00  0.00    -0.347 N 
HETATM    3  O   UNL     1       7.514  29.321  55.933  1.00  0.00    -0.266 OA
HETATM    4  H   UNL     1       8.999  28.461  58.580  1.00  0.00     0.163 HD
ENDROOT
BRANCH   2   5
HETATM    5  C   UNL     1       9.142  30.515  57.952  1.00  0.00     0.114 C 
HETATM    6  C   UNL     1      10.583  30.727  57.484  1.00  0.00     0.037 C 
BRANCH   5   7
HETATM    7  C   UNL     1       8.924  31.025  59.366  1.00  0.00    -0.034 A 
HETATM    8  C   UNL     1       7.630  31.016  59.915  1.00  0.00     0.041 A 
HETATM    9  C   UNL     1       7.402  31.519  61.197  1.00  0.00     0.069 A 
HETATM   10  C   UNL     1       8.458  32.022  61.956  1.00  0.00     0.096 A 
HETATM   11  N   UNL     1       6.109  31.499  61.721  1.00  0.00    -0.323 N 
HETATM   12  O   UNL     1       8.319  32.504  63.228  1.00  0.00    -0.340 OA
HETATM   13  C   UNL     1       9.751  32.000  61.439  1.00  0.00     0.040 A 
HETATM   14  C   UNL     1       6.981  32.783  63.610  1.00  0.00     0.278 C 
HETATM   15  C   UNL     1       5.820  32.053  62.935  1.00  0.00     0.246 C 
HETATM   16  O   UNL     1       4.684  32.018  63.403  1.00  0.00    -0.271 OA
HETATM   17  C   UNL     1       9.984  31.509  60.151  1.00  0.00     0.012 A 
HETATM   18  H   UNL     1       5.348  31.063  61.218  1.00  0.00     0.169 HD
ENDBRANCH   5   7
ENDBRANCH   2   5
BRANCH   1  19
HETATM   19  C   UNL     1       7.722  27.183  56.967  1.00  0.00     0.157 A 
HETATM   20  C   UNL     1       7.578  26.231  55.915  1.00  0.00     0.029 A 
HETATM   21  C   UNL     1       7.580  26.266  54.506  1.00  0.00     0.023 A 
HETATM   22  C   UNL     1       7.408  25.009  56.553  1.00  0.00     0.063 A 
HETATM   23  C   UNL     1       7.408  25.072  53.783  1.00  0.00    -0.061 A 
HETATM   24  C   UNL     1       7.409  25.084  52.282  1.00  0.00     0.048 C 
HETATM   25  C   UNL     1       7.252  23.861  54.468  1.00  0.00     0.009 A 
HETATM   26  C   UNL     1       7.248  23.803  55.867  1.00  0.00     0.032 A 
HETATM   27  N   UNL     1       7.446  25.292  57.891  1.00  0.00    -0.277 N 
HETATM   28  H   UNL     1       7.357  24.635  58.657  1.00  0.00     0.189 HD
HETATM   29  N   UNL     1       7.627  26.593  58.182  1.00  0.00    -0.168 NA
ENDBRANCH   1  19
TORSDOF 3
ENDMDL
MODEL 3
REMARK VINA RESULT:     -10.1      4.324      7.336
REMARK  3 active torsions:
REMARK  status: ('A' for Active; 'I' for Inactive)
REMARK    1  A    between atoms: C_9  and  C_10 
REMARK       I    between atoms: C_10  and  N_11 
REMARK    2  A    between atoms: N_11  and  C_12 
REMARK    3  A    between atoms: C_12  and  C_13 
ROOT
HETATM    1  C   UNL     1       7.798  31.481  59.291  1.00  0.00     0.273 C 
HETATM    2  N   UNL     1       7.587  31.023  60.573  1.00  0.00    -0.347 N 
HETATM    3  O   UNL     1       8.684  32.276  58.991  1.00  0.00    -0.266 OA
HETATM    4  H   UNL     1       6.760  30.447  60.693  1.00  0.00     0.163 HD
ENDROOT
BRANCH   2   5
HETATM    5  C   UNL     1       8.356  31.471  61.711  1.00  0.00     0.114 C 
HETATM    6  C   UNL     1       9.098  30.294  62.347  1.00  0.00     0.037 C 
BRANCH   5   7
HETATM    7  C   UNL     1       7.475  32.196  62.714  1.00  0.00    -0.034 A 
HETATM    8  C   UNL     1       6.090  32.277  62.490  1.00  0.00     0.041 A 
HETATM    9  C   UNL     1       5.269  32.976  63.377  1.00  0.00     0.069 A 
HETATM   10  C   UNL     1       5.811  33.586  64.508  1.00  0.00     0.096 A 
HETATM   11  N   UNL     1       3.898  33.042  63.134  1.00  0.00    -0.323 N 
HETATM   12  O   UNL     1       5.070  34.261  65.437  1.00  0.00    -0.340 OA
HETATM   13  C   UNL     1       7.176  33.479  64.762  1.00  0.00     0.040 A 
HETATM   14  C   UNL     1       3.759  34.601  65.012  1.00  0.00     0.278 C 
HETATM   15  C   UNL     1       3.064  33.779  63.926  1.00  0.00     0.246 C 
HETATM   16  O   UNL     1       1.854  33.823  63.721  1.00  0.00    -0.271 OA
HETATM   17  C   UNL     1       8.005  32.792  63.871  1.00  0.00     0.012 A 
HETATM   18  H   UNL     1       3.478  32.536  62.365  1.00  0.00     0.169 HD
ENDBRANCH   5   7
ENDBRANCH   2   5
BRANCH   1  19
HETATM   19  C   UNL     1       6.864  30.893  58.315  1.00  0.00     0.157 A 
HETATM   20  C   UNL     1       6.866  29.562  57.801  1.00  0.00     0.029 A 
HETATM   21  C   UNL     1       7.664  28.412  57.962  1.00  0.00     0.023 A 
HETATM   22  C   UNL     1       5.766  29.500  56.955  1.00  0.00     0.063 A 
HETATM   23  C   UNL     1       7.333  27.237  57.266  1.00  0.00    -0.061 A 
HETATM   24  C   UNL     1       8.167  25.998  57.424  1.00  0.00     0.048 C 
HETATM   25  C   UNL     1       6.208  27.215  56.433  1.00  0.00     0.009 A 
HETATM   26  C   UNL     1       5.402  28.346  56.258  1.00  0.00     0.032 A 
HETATM   27  N   UNL     1       5.204  30.746  57.000  1.00  0.00    -0.277 N 
HETATM   28  H   UNL     1       4.379  31.063  56.505  1.00  0.00     0.189 HD
HETATM   29  N   UNL     1       5.840  31.617  57.804  1.00  0.00    -0.168 NA
ENDBRANCH   1  19
TORSDOF 3
ENDMDL
MODEL 4
REMARK VINA RESULT:     -10.1      2.592      8.869
REMARK  3 active torsions:
REMARK  status: ('A' for Active; 'I' for Inactive)
REMARK    1  A    between atoms: C_9  and  C_10 
REMARK       I    between atoms: C_10  and  N_11 
REMARK    2  A    between atoms: N_11  and  C_12 
REMARK    3  A    between atoms: C_12  and  C_13 
ROOT
HETATM    1  C   UNL     1       8.307  28.469  55.767  1.00  0.00     0.273 C 
HETATM    2  N   UNL     1       7.646  27.473  56.451  1.00  0.00    -0.347 N 
HETATM    3  O   UNL     1       8.199  28.648  54.556  1.00  0.00    -0.266 OA
HETATM    4  H   UNL     1       7.904  27.379  57.429  1.00  0.00     0.163 HD
ENDROOT
BRANCH   2   5
HETATM    5  C   UNL     1       6.794  26.500  55.808  1.00  0.00     0.114 C 
HETATM    6  C   UNL     1       5.383  26.559  56.397  1.00  0.00     0.037 C 
BRANCH   5   7
HETATM    7  C   UNL     1       7.389  25.106  55.900  1.00  0.00    -0.034 A 
HETATM    8  C   UNL     1       7.352  24.260  54.779  1.00  0.00     0.041 A 
HETATM    9  C   UNL     1       7.855  22.960  54.856  1.00  0.00     0.069 A 
HETATM   10  C   UNL     1       8.418  22.491  56.042  1.00  0.00     0.096 A 
HETATM   11  N   UNL     1       7.808  22.140  53.729  1.00  0.00    -0.323 N 
HETATM   12  O   UNL     1       8.958  21.243  56.187  1.00  0.00    -0.340 OA
HETATM   13  C   UNL     1       8.497  23.333  57.149  1.00  0.00     0.040 A 
HETATM   14  C   UNL     1       8.607  20.326  55.161  1.00  0.00     0.278 C 
HETATM   15  C   UNL     1       8.212  20.836  53.775  1.00  0.00     0.246 C 
HETATM   16  O   UNL     1       8.187  20.119  52.778  1.00  0.00    -0.271 OA
HETATM   17  C   UNL     1       7.983  24.631  57.082  1.00  0.00     0.012 A 
HETATM   18  H   UNL     1       7.480  22.491  52.839  1.00  0.00     0.169 HD
ENDBRANCH   5   7
ENDBRANCH   2   5
BRANCH   1  19
HETATM   19  C   UNL     1       9.136  29.311  56.645  1.00  0.00     0.157 A 
HETATM   20  C   UNL     1       8.692  30.227  57.645  1.00  0.00     0.029 A 
HETATM   21  C   UNL     1       7.447  30.675  58.131  1.00  0.00     0.023 A 
HETATM   22  C   UNL     1       9.854  30.732  58.215  1.00  0.00     0.063 A 
HETATM   23  C   UNL     1       7.410  31.618  59.173  1.00  0.00    -0.061 A 
HETATM   24  C   UNL     1       6.096  32.108  59.709  1.00  0.00     0.048 C 
HETATM   25  C   UNL     1       8.606  32.091  59.726  1.00  0.00     0.009 A 
HETATM   26  C   UNL     1       9.853  31.660  59.259  1.00  0.00     0.032 A 
HETATM   27  N   UNL     1      10.879  30.125  57.542  1.00  0.00    -0.277 N 
HETATM   28  H   UNL     1      11.872  30.255  57.696  1.00  0.00     0.189 HD
HETATM   29  N   UNL     1      10.488  29.266  56.584  1.00  0.00    -0.168 NA
ENDBRANCH   1  19
TORSDOF 3
ENDMDL
MODEL 5
REMARK VINA RESULT:     -10.0      1.741      2.403
REMARK  3 active torsions:
REMARK  status: ('A' for Active; 'I' for Inactive)
REMARK    1  A    between atoms: C_9  and  C_10 
REMARK       I    between atoms: C_10  and  N_11 
REMARK    2  A    between atoms: N_11  and  C_12 
REMARK    3  A    between atoms: C_12  and  C_13 
ROOT
HETATM    1  C   UNL     1       6.340  25.367  55.294  1.00  0.00     0.273 C 
HETATM    2  N   UNL     1       6.272  26.692  54.924  1.00  0.00    -0.347 N 
HETATM    3  O   UNL     1       5.965  24.947  56.386  1.00  0.00    -0.266 OA
HETATM    4  H   UNL     1       6.707  26.913  54.034  1.00  0.00     0.163 HD
ENDROOT
BRANCH   2   5
HETATM    5  C   UNL     1       5.798  27.737  55.802  1.00  0.00     0.114 C 
HETATM    6  C   UNL     1       4.825  28.655  55.059  1.00  0.00     0.037 C 
BRANCH   5   7
HETATM    7  C   UNL     1       6.958  28.510  56.406  1.00  0.00    -0.034 A 
HETATM    8  C   UNL     1       6.848  29.018  57.712  1.00  0.00     0.041 A 
HETATM    9  C   UNL     1       7.885  29.768  58.270  1.00  0.00     0.069 A 
HETATM   10  C   UNL     1       9.052  30.007  57.545  1.00  0.00     0.096 A 
HETATM   11  N   UNL     1       7.753  30.261  59.568  1.00  0.00    -0.323 N 
HETATM   12  O   UNL     1      10.121  30.705  58.032  1.00  0.00    -0.340 OA
HETATM   13  C   UNL     1       9.189  29.476  56.264  1.00  0.00     0.040 A 
HETATM   14  C   UNL     1       9.845  31.469  59.196  1.00  0.00     0.278 C 
HETATM   15  C   UNL     1       8.702  31.067  60.128  1.00  0.00     0.246 C 
HETATM   16  O   UNL     1       8.593  31.486  61.278  1.00  0.00    -0.271 OA
HETATM   17  C   UNL     1       8.149  28.735  55.696  1.00  0.00     0.012 A 
HETATM   18  H   UNL     1       6.950  30.027  60.137  1.00  0.00     0.169 HD
ENDBRANCH   5   7
ENDBRANCH   2   5
BRANCH   1  19
HETATM   19  C   UNL     1       6.886  24.506  54.232  1.00  0.00     0.157 A 
HETATM   20  C   UNL     1       7.374  23.171  54.359  1.00  0.00     0.029 A 
HETATM   21  C   UNL     1       7.543  22.247  55.409  1.00  0.00     0.023 A 
HETATM   22  C   UNL     1       7.731  22.793  53.071  1.00  0.00     0.063 A 
HETATM   23  C   UNL     1       8.069  20.973  55.132  1.00  0.00    -0.061 A 
HETATM   24  C   UNL     1       8.257  19.971  56.234  1.00  0.00     0.048 C 
HETATM   25  C   UNL     1       8.406  20.630  53.817  1.00  0.00     0.009 A 
HETATM   26  C   UNL     1       8.245  21.532  52.759  1.00  0.00     0.032 A 
HETATM   27  N   UNL     1       7.461  23.881  52.287  1.00  0.00    -0.277 N 
HETATM   28  H   UNL     1       7.598  23.962  51.286  1.00  0.00     0.189 HD
HETATM   29  N   UNL     1       6.956  24.936  52.950  1.00  0.00    -0.168 NA
ENDBRANCH   1  19
TORSDOF 3
ENDMDL
MODEL 6
REMARK VINA RESULT:     -10.0      2.698      8.163
REMARK  3 active torsions:
REMARK  status: ('A' for Active; 'I' for Inactive)
REMARK    1  A    between atoms: C_9  and  C_10 
REMARK       I    between atoms: C_10  and  N_11 
REMARK    2  A    between atoms: N_11  and  C_12 
REMARK    3  A    between atoms: C_12  and  C_13 
ROOT
HETATM    1  C   UNL     1       6.923  27.758  54.632  1.00  0.00     0.273 C 
HETATM    2  N   UNL     1       6.109  26.653  54.521  1.00  0.00    -0.347 N 
HETATM    3  O   UNL     1       7.664  28.149  53.733  1.00  0.00    -0.266 OA
HETATM    4  H   UNL     1       5.625  26.388  55.374  1.00  0.00     0.163 HD
ENDROOT
BRANCH   2   5
HETATM    5  C   UNL     1       6.079  25.805  53.352  1.00  0.00     0.114 C 
HETATM    6  C   UNL     1       4.635  25.580  52.897  1.00  0.00     0.037 C 
BRANCH   5   7
HETATM    7  C   UNL     1       6.803  24.494  53.608  1.00  0.00    -0.034 A 
HETATM    8  C   UNL     1       6.931  24.018  54.924  1.00  0.00     0.041 A 
HETATM    9  C   UNL     1       7.630  22.838  55.185  1.00  0.00     0.069 A 
HETATM   10  C   UNL     1       8.195  22.107  54.141  1.00  0.00     0.096 A 
HETATM   11  N   UNL     1       7.743  22.385  56.499  1.00  0.00    -0.323 N 
HETATM   12  O   UNL     1       8.867  20.929  54.313  1.00  0.00    -0.340 OA
HETATM   13  C   UNL     1       8.041  22.548  52.828  1.00  0.00     0.040 A 
HETATM   14  C   UNL     1       9.257  20.662  55.651  1.00  0.00     0.278 C 
HETATM   15  C   UNL     1       8.484  21.283  56.816  1.00  0.00     0.246 C 
HETATM   16  O   UNL     1       8.568  20.874  57.971  1.00  0.00    -0.271 OA
HETATM   17  C   UNL     1       7.353  23.735  52.562  1.00  0.00     0.012 A 
HETATM   18  H   UNL     1       7.270  22.858  57.258  1.00  0.00     0.169 HD
ENDBRANCH   5   7
ENDBRANCH   2   5
BRANCH   1  19
HETATM   19  C   UNL     1       6.791  28.436  55.933  1.00  0.00     0.157 A 
HETATM   20  C   UNL     1       7.823  29.047  56.704  1.00  0.00     0.029 A 
HETATM   21  C   UNL     1       9.217  29.216  56.584  1.00  0.00     0.023 A 
HETATM   22  C   UNL     1       7.179  29.576  57.816  1.00  0.00     0.063 A 
HETATM   23  C   UNL     1       9.920  29.909  57.585  1.00  0.00    -0.061 A 
HETATM   24  C   UNL     1      11.405  30.103  57.477  1.00  0.00     0.048 C 
HETATM   25  C   UNL     1       9.229  30.437  58.682  1.00  0.00     0.009 A 
HETATM   26  C   UNL     1       7.844  30.281  58.822  1.00  0.00     0.032 A 
HETATM   27  N   UNL     1       5.860  29.253  57.656  1.00  0.00    -0.277 N 
HETATM   28  H   UNL     1       5.095  29.482  58.280  1.00  0.00     0.189 HD
HETATM   29  N   UNL     1       5.586  28.560  56.537  1.00  0.00    -0.168 NA
ENDBRANCH   1  19
TORSDOF 3
ENDMDL
MODEL 7
REMARK VINA RESULT:      -9.6      4.634      7.364
REMARK  3 active torsions:
REMARK  status: ('A' for Active; 'I' for Inactive)
REMARK    1  A    between atoms: C_9  and  C_10 
REMARK       I    between atoms: C_10  and  N_11 
REMARK    2  A    between atoms: N_11  and  C_12 
REMARK    3  A    between atoms: C_12  and  C_13 
ROOT
HETATM    1  C   UNL     1       8.114  30.605  58.964  1.00  0.00     0.273 C 
HETATM    2  N   UNL     1       7.978  30.508  60.331  1.00  0.00    -0.347 N 
HETATM    3  O   UNL     1       8.726  31.512  58.405  1.00  0.00    -0.266 OA
HETATM    4  H   UNL     1       7.365  29.764  60.650  1.00  0.00     0.163 HD
ENDROOT
BRANCH   2   5
HETATM    5  C   UNL     1       8.498  31.493  61.251  1.00  0.00     0.114 C 
HETATM    6  C   UNL     1       9.649  30.901  62.067  1.00  0.00     0.037 C 
BRANCH   5   7
HETATM    7  C   UNL     1       7.397  32.044  62.140  1.00  0.00    -0.034 A 
HETATM    8  C   UNL     1       7.726  32.604  63.386  1.00  0.00     0.041 A 
HETATM    9  C   UNL     1       6.725  33.077  64.237  1.00  0.00     0.069 A 
HETATM   10  C   UNL     1       5.386  33.018  63.852  1.00  0.00     0.096 A 
HETATM   11  N   UNL     1       7.077  33.629  65.468  1.00  0.00    -0.323 N 
HETATM   12  O   UNL     1       4.354  33.487  64.615  1.00  0.00    -0.340 OA
HETATM   13  C   UNL     1       5.050  32.501  62.603  1.00  0.00     0.040 A 
HETATM   14  C   UNL     1       4.687  33.730  65.974  1.00  0.00     0.278 C 
HETATM   15  C   UNL     1       6.133  34.031  66.369  1.00  0.00     0.246 C 
HETATM   16  O   UNL     1       6.444  34.534  67.446  1.00  0.00    -0.271 OA
HETATM   17  C   UNL     1       6.046  32.014  61.753  1.00  0.00     0.012 A 
HETATM   18  H   UNL     1       8.047  33.756  65.727  1.00  0.00     0.169 HD
ENDBRANCH   5   7
ENDBRANCH   2   5
BRANCH   1  19
HETATM   19  C   UNL     1       7.471  29.491  58.247  1.00  0.00     0.157 A 
HETATM   20  C   UNL     1       6.234  29.512  57.537  1.00  0.00     0.029 A 
HETATM   21  C   UNL     1       5.227  30.464  57.279  1.00  0.00     0.023 A 
HETATM   22  C   UNL     1       6.097  28.234  57.010  1.00  0.00     0.063 A 
HETATM   23  C   UNL     1       4.114  30.101  56.501  1.00  0.00    -0.061 A 
HETATM   24  C   UNL     1       3.030  31.098  56.211  1.00  0.00     0.048 C 
HETATM   25  C   UNL     1       4.023  28.805  55.979  1.00  0.00     0.009 A 
HETATM   26  C   UNL     1       5.011  27.844  56.223  1.00  0.00     0.032 A 
HETATM   27  N   UNL     1       7.205  27.551  57.428  1.00  0.00    -0.277 N 
HETATM   28  H   UNL     1       7.440  26.586  57.227  1.00  0.00     0.189 HD
HETATM   29  N   UNL     1       8.055  28.271  58.181  1.00  0.00    -0.168 NA
ENDBRANCH   1  19
TORSDOF 3
ENDMDL
MODEL 8
REMARK VINA RESULT:      -9.5      3.886      6.957
REMARK  3 active torsions:
REMARK  status: ('A' for Active; 'I' for Inactive)
REMARK    1  A    between atoms: C_9  and  C_10 
REMARK       I    between atoms: C_10  and  N_11 
REMARK    2  A    between atoms: N_11  and  C_12 
REMARK    3  A    between atoms: C_12  and  C_13 
ROOT
HETATM    1  C   UNL     1       8.014  30.862  58.932  1.00  0.00     0.273 C 
HETATM    2  N   UNL     1       7.476  30.878  60.200  1.00  0.00    -0.347 N 
HETATM    3  O   UNL     1       9.120  31.319  58.658  1.00  0.00    -0.266 OA
HETATM    4  H   UNL     1       6.515  30.556  60.263  1.00  0.00     0.163 HD
ENDROOT
BRANCH   2   5
HETATM    5  C   UNL     1       8.138  31.480  61.334  1.00  0.00     0.114 C 
HETATM    6  C   UNL     1       9.037  30.455  62.029  1.00  0.00     0.037 C 
BRANCH   5   7
HETATM    7  C   UNL     1       7.131  32.093  62.292  1.00  0.00    -0.034 A 
HETATM    8  C   UNL     1       7.564  32.577  63.538  1.00  0.00     0.041 A 
HETATM    9  C   UNL     1       6.648  33.105  64.450  1.00  0.00     0.069 A 
HETATM   10  C   UNL     1       5.293  33.176  64.128  1.00  0.00     0.096 A 
HETATM   11  N   UNL     1       7.102  33.579  65.680  1.00  0.00    -0.323 N 
HETATM   12  O   UNL     1       4.341  33.706  64.954  1.00  0.00    -0.340 OA
HETATM   13  C   UNL     1       4.856  32.736  62.880  1.00  0.00     0.040 A 
HETATM   14  C   UNL     1       4.755  33.870  66.302  1.00  0.00     0.278 C 
HETATM   15  C   UNL     1       6.238  34.030  66.637  1.00  0.00     0.246 C 
HETATM   16  O   UNL     1       6.640  34.464  67.714  1.00  0.00    -0.271 OA
HETATM   17  C   UNL     1       5.767  32.195  61.968  1.00  0.00     0.012 A 
HETATM   18  H   UNL     1       8.089  33.612  65.896  1.00  0.00     0.169 HD
ENDBRANCH   5   7
ENDBRANCH   2   5
BRANCH   1  19
HETATM   19  C   UNL     1       7.131  30.216  57.946  1.00  0.00     0.157 A 
HETATM   20  C   UNL     1       7.150  28.855  57.521  1.00  0.00     0.029 A 
HETATM   21  C   UNL     1       7.928  27.714  57.801  1.00  0.00     0.023 A 
HETATM   22  C   UNL     1       6.098  28.742  56.621  1.00  0.00     0.063 A 
HETATM   23  C   UNL     1       7.627  26.496  57.166  1.00  0.00    -0.061 A 
HETATM   24  C   UNL     1       8.441  25.267  57.450  1.00  0.00     0.048 C 
HETATM   25  C   UNL     1       6.550  26.425  56.274  1.00  0.00     0.009 A 
HETATM   26  C   UNL     1       5.763  27.546  55.981  1.00  0.00     0.032 A 
HETATM   27  N   UNL     1       5.545  29.991  56.553  1.00  0.00    -0.277 N 
HETATM   28  H   UNL     1       4.751  30.278  55.993  1.00  0.00     0.189 HD
HETATM   29  N   UNL     1       6.143  30.910  57.333  1.00  0.00    -0.168 NA
ENDBRANCH   1  19
TORSDOF 3
ENDMDL
MODEL 9
REMARK VINA RESULT:      -9.5      4.780      8.537
REMARK  3 active torsions:
REMARK  status: ('A' for Active; 'I' for Inactive)
REMARK    1  A    between atoms: C_9  and  C_10 
REMARK       I    between atoms: C_10  and  N_11 
REMARK    2  A    between atoms: N_11  and  C_12 
REMARK    3  A    between atoms: C_12  and  C_13 
ROOT
HETATM    1  C   UNL     1       5.314  27.881  52.426  1.00  0.00     0.273 C 
HETATM    2  N   UNL     1       6.565  27.629  52.944  1.00  0.00    -0.347 N 
HETATM    3  O   UNL     1       4.270  27.670  53.038  1.00  0.00    -0.266 OA
HETATM    4  H   UNL     1       7.333  27.758  52.293  1.00  0.00     0.163 HD
ENDROOT
BRANCH   2   5
HETATM    5  C   UNL     1       6.780  27.041  54.246  1.00  0.00     0.114 C 
HETATM    6  C   UNL     1       7.757  27.893  55.058  1.00  0.00     0.037 C 
BRANCH   5   7
HETATM    7  C   UNL     1       7.248  25.601  54.123  1.00  0.00    -0.034 A 
HETATM    8  C   UNL     1       7.371  24.811  55.279  1.00  0.00     0.041 A 
HETATM    9  C   UNL     1       7.840  23.499  55.193  1.00  0.00     0.069 A 
HETATM   10  C   UNL     1       8.176  22.949  53.956  1.00  0.00     0.096 A 
HETATM   11  N   UNL     1       7.953  22.734  56.354  1.00  0.00    -0.323 N 
HETATM   12  O   UNL     1       8.614  21.665  53.787  1.00  0.00    -0.340 OA
HETATM   13  C   UNL     1       8.022  23.709  52.799  1.00  0.00     0.040 A 
HETATM   14  C   UNL     1       9.035  21.024  54.981  1.00  0.00     0.278 C 
HETATM   15  C   UNL     1       8.483  21.475  56.333  1.00  0.00     0.246 C 
HETATM   16  O   UNL     1       8.565  20.796  57.354  1.00  0.00    -0.271 OA
HETATM   17  C   UNL     1       7.564  25.027  52.880  1.00  0.00     0.012 A 
HETATM   18  H   UNL     1       7.635  23.088  57.246  1.00  0.00     0.169 HD
ENDBRANCH   5   7
ENDBRANCH   2   5
BRANCH   1  19
HETATM   19  C   UNL     1       5.363  28.455  51.071  1.00  0.00     0.157 A 
HETATM   20  C   UNL     1       4.877  27.874  49.862  1.00  0.00     0.029 A 
HETATM   21  C   UNL     1       4.255  26.664  49.494  1.00  0.00     0.023 A 
HETATM   22  C   UNL     1       5.122  28.826  48.880  1.00  0.00     0.063 A 
HETATM   23  C   UNL     1       3.902  26.447  48.151  1.00  0.00    -0.061 A 
HETATM   24  C   UNL     1       3.237  25.167  47.736  1.00  0.00     0.048 C 
HETATM   25  C   UNL     1       4.158  27.438  47.196  1.00  0.00     0.009 A 
HETATM   26  C   UNL     1       4.774  28.647  47.538  1.00  0.00     0.032 A 
HETATM   27  N   UNL     1       5.726  29.867  49.528  1.00  0.00    -0.277 N 
HETATM   28  H   UNL     1       6.044  30.739  49.121  1.00  0.00     0.189 HD
HETATM   29  N   UNL     1       5.895  29.680  50.849  1.00  0.00    -0.168 NA
ENDBRANCH   1  19
TORSDOF 3
ENDMDL
MODEL 10
REMARK VINA RESULT:      -9.5      4.212      7.193
REMARK  3 active torsions:
REMARK  status: ('A' for Active; 'I' for Inactive)
REMARK    1  A    between atoms: C_9  and  C_10 
REMARK       I    between atoms: C_10  and  N_11 
REMARK    2  A    between atoms: N_11  and  C_12 
REMARK    3  A    between atoms: C_12  and  C_13 
ROOT
HETATM    1  C   UNL     1       7.423  27.165  55.770  1.00  0.00     0.273 C 
HETATM    2  N   UNL     1       6.263  27.074  55.034  1.00  0.00    -0.347 N 
HETATM    3  O   UNL     1       8.101  28.186  55.846  1.00  0.00    -0.266 OA
HETATM    4  H   UNL     1       5.859  26.143  54.981  1.00  0.00     0.163 HD
ENDROOT
BRANCH   2   5
HETATM    5  C   UNL     1       5.747  28.157  54.230  1.00  0.00     0.114 C 
HETATM    6  C   UNL     1       4.544  28.804  54.920  1.00  0.00     0.037 C 
BRANCH   5   7
HETATM    7  C   UNL     1       5.409  27.684  52.827  1.00  0.00    -0.034 A 
HETATM    8  C   UNL     1       4.374  28.311  52.114  1.00  0.00     0.041 A 
HETATM    9  C   UNL     1       4.019  27.863  50.840  1.00  0.00     0.069 A 
HETATM   10  C   UNL     1       4.701  26.799  50.251  1.00  0.00     0.096 A 
HETATM   11  N   UNL     1       2.988  28.502  50.151  1.00  0.00    -0.323 N 
HETATM   12  O   UNL     1       4.433  26.323  48.998  1.00  0.00    -0.340 OA
HETATM   13  C   UNL     1       5.756  26.194  50.931  1.00  0.00     0.040 A 
HETATM   14  C   UNL     1       3.191  26.749  48.458  1.00  0.00     0.278 C 
HETATM   15  C   UNL     1       2.550  28.051  48.939  1.00  0.00     0.246 C 
HETATM   16  O   UNL     1       1.654  28.625  48.325  1.00  0.00    -0.271 OA
HETATM   17  C   UNL     1       6.107  26.630  52.212  1.00  0.00     0.012 A 
HETATM   18  H   UNL     1       2.540  29.326  50.528  1.00  0.00     0.169 HD
ENDBRANCH   5   7
ENDBRANCH   2   5
BRANCH   1  19
HETATM   19  C   UNL     1       7.749  25.915  56.477  1.00  0.00     0.157 A 
HETATM   20  C   UNL     1       7.882  24.609  55.919  1.00  0.00     0.029 A 
HETATM   21  C   UNL     1       7.749  24.032  54.640  1.00  0.00     0.023 A 
HETATM   22  C   UNL     1       8.237  23.793  56.986  1.00  0.00     0.063 A 
HETATM   23  C   UNL     1       7.975  22.655  54.474  1.00  0.00    -0.061 A 
HETATM   24  C   UNL     1       7.842  22.019  53.121  1.00  0.00     0.048 C 
HETATM   25  C   UNL     1       8.343  21.872  55.576  1.00  0.00     0.009 A 
HETATM   26  C   UNL     1       8.481  22.424  56.855  1.00  0.00     0.032 A 
HETATM   27  N   UNL     1       8.281  24.621  58.074  1.00  0.00    -0.277 N 
HETATM   28  H   UNL     1       8.510  24.366  59.027  1.00  0.00     0.189 HD
HETATM   29  N   UNL     1       7.987  25.907  57.810  1.00  0.00    -0.168 NA
ENDBRANCH   1  19
TORSDOF 3
ENDMDL
