MODEL 1
REMARK VINA RESULT:     -10.4      0.000      0.000
REMARK  7 active torsions:
REMARK  status: ('A' for Active; 'I' for Inactive)
REMARK    1  A    between atoms: C_9  and  C_10 
REMARK       I    between atoms: C_10  and  N_11 
REMARK    2  A    between atoms: N_11  and  C_12 
REMARK    3  A    between atoms: C_12  and  C_13 
REMARK    4  A    between atoms: C_12  and  C_22 
REMARK       I    between atoms: C_13  and  N_14 
REMARK    5  A    between atoms: N_14  and  C_15 
REMARK    6  A    between atoms: C_15  and  C_16 
REMARK    7  A    between atoms: C_22  and  C_23 
ROOT
HETATM    1  C   UNL     1       6.292  25.658  56.288  1.00  0.00     0.180 C 
ENDROOT
BRANCH   1   2
HETATM    2  N   UNL     1       5.372  25.712  55.131  1.00  0.00    -0.346 N 
HETATM    3  C   UNL     1       5.712  26.268  53.933  1.00  0.00     0.249 C 
HETATM    4  O   UNL     1       6.777  26.860  53.747  1.00  0.00    -0.271 OA
HETATM    5  H   UNL     1       4.548  25.123  55.249  1.00  0.00     0.163 HD
BRANCH   3   6
HETATM    6  C   UNL     1       4.648  26.253  52.812  1.00  0.00     0.281 C 
HETATM    7  N   UNL     1       3.428  27.061  53.225  1.00  0.00    -0.058 N 
HETATM    8  C   UNL     1       3.676  28.530  53.284  1.00  0.00     0.272 C 
HETATM    9  H   UNL     1       2.640  26.870  52.597  1.00  0.00     0.278 HD
HETATM   10  H   UNL     1       3.167  26.758  54.175  1.00  0.00     0.278 HD
HETATM   11  C   UNL     1       4.400  29.058  52.081  1.00  0.00    -0.026 A 
HETATM   12  C   UNL     1       5.122  28.203  51.228  1.00  0.00    -0.048 A 
HETATM   13  C   UNL     1       4.403  30.439  51.831  1.00  0.00     0.009 A 
HETATM   14  C   UNL     1       5.805  28.740  50.127  1.00  0.00     0.008 A 
HETATM   15  C   UNL     1       5.112  26.708  51.426  1.00  0.00     0.082 C 
HETATM   16  C   UNL     1       5.790  30.112  49.886  1.00  0.00     0.001 A 
HETATM   17  C   UNL     1       5.091  30.961  50.737  1.00  0.00     0.001 A 
ENDBRANCH   3   6
ENDBRANCH   1   2
BRANCH   1  18
HETATM   18  C   UNL     1       6.238  27.080  56.891  1.00  0.00     0.241 C 
HETATM   19  N   UNL     1       7.419  27.603  57.336  1.00  0.00    -0.353 N 
HETATM   20  H   UNL     1       8.303  27.189  57.057  1.00  0.00     0.162 HD
HETATM   21  O   UNL     1       5.154  27.662  57.001  1.00  0.00    -0.271 OA
BRANCH  19  22
HETATM   22  C   UNL     1       7.512  28.897  57.978  1.00  0.00     0.187 C 
BRANCH  22  23
HETATM   23  C   UNL     1       8.834  29.505  57.691  1.00  0.00     0.070 A 
HETATM   24  O   UNL     1       9.537  28.992  56.640  1.00  0.00    -0.325 OA
HETATM   25  C   UNL     1      10.710  29.673  56.576  1.00  0.00     0.142 A 
HETATM   26  C   UNL     1      10.779  30.607  57.582  1.00  0.00     0.027 A 
HETATM   27  C   UNL     1       9.566  30.501  58.305  1.00  0.00     0.036 A 
ENDBRANCH  22  23
ENDBRANCH  19  22
ENDBRANCH   1  18
BRANCH   1  28
HETATM   28  C   UNL     1       7.698  25.249  55.833  1.00  0.00     0.075 C 
BRANCH  28  29
HETATM   29  C   UNL     1       8.009  23.789  55.965  1.00  0.00    -0.028 A 
HETATM   30  C   UNL     1       8.011  22.822  54.906  1.00  0.00    -0.002 A 
HETATM   31  C   UNL     1       8.313  21.582  55.471  1.00  0.00     0.042 A 
HETATM   32  C   UNL     1       7.769  22.881  53.518  1.00  0.00     0.014 A 
HETATM   33  C   UNL     1       8.386  20.402  54.721  1.00  0.00     0.030 A 
HETATM   34  N   UNL     1       8.490  21.783  56.819  1.00  0.00    -0.365 N 
HETATM   35  C   UNL     1       8.136  20.490  53.349  1.00  0.00     0.002 A 
HETATM   36  C   UNL     1       7.831  21.710  52.754  1.00  0.00     0.001 A 
HETATM   37  H   UNL     1       8.706  21.049  57.481  1.00  0.00     0.165 HD
HETATM   38  C   UNL     1       8.296  23.103  57.130  1.00  0.00     0.096 A 
ENDBRANCH  28  29
ENDBRANCH   1  28
TORSDOF 7
ENDMDL
MODEL 2
REMARK VINA RESULT:     -10.4      2.424      3.078
REMARK  7 active torsions:
REMARK  status: ('A' for Active; 'I' for Inactive)
REMARK    1  A    between atoms: C_9  and  C_10 
REMARK       I    between atoms: C_10  and  N_11 
REMARK    2  A    between atoms: N_11  and  C_12 
REMARK    3  A    between atoms: C_12  and  C_13 
REMARK    4  A    between atoms: C_12  and  C_22 
REMARK       I    between atoms: C_13  and  N_14 
REMARK    5  A    between atoms: N_14  and  C_15 
REMARK    6  A    between atoms: C_15  and  C_16 
REMARK    7  A    between atoms: C_22  and  C_23 
ROOT
HETATM    1  C   UNL     1       6.229  26.594  53.588  1.00  0.00     0.180 C 
ENDROOT
BRANCH   1   2
HETATM    2  N   UNL     1       6.113  27.465  52.398  1.00  0.00    -0.346 N 
HETATM    3  C   UNL     1       4.923  27.958  51.948  1.00  0.00     0.249 C 
HETATM    4  O   UNL     1       3.838  27.637  52.435  1.00  0.00    -0.271 OA
HETATM    5  H   UNL     1       7.012  27.820  52.075  1.00  0.00     0.163 HD
BRANCH   3   6
HETATM    6  C   UNL     1       4.954  28.857  50.692  1.00  0.00     0.281 C 
HETATM    7  N   UNL     1       5.765  28.200  49.586  1.00  0.00    -0.058 N 
HETATM    8  C   UNL     1       5.106  27.001  48.993  1.00  0.00     0.272 C 
HETATM    9  H   UNL     1       5.979  28.877  48.846  1.00  0.00     0.278 HD
HETATM   10  H   UNL     1       6.652  27.884  50.004  1.00  0.00     0.278 HD
HETATM   11  C   UNL     1       3.659  27.223  48.662  1.00  0.00    -0.026 A 
HETATM   12  C   UNL     1       2.930  28.278  49.240  1.00  0.00    -0.048 A 
HETATM   13  C   UNL     1       3.006  26.327  47.802  1.00  0.00     0.009 A 
HETATM   14  C   UNL     1       1.574  28.436  48.924  1.00  0.00     0.008 A 
HETATM   15  C   UNL     1       3.597  29.294  50.133  1.00  0.00     0.082 C 
HETATM   16  C   UNL     1       0.940  27.545  48.059  1.00  0.00     0.001 A 
HETATM   17  C   UNL     1       1.655  26.491  47.499  1.00  0.00     0.001 A 
ENDBRANCH   3   6
ENDBRANCH   1   2
BRANCH   1  18
HETATM   18  C   UNL     1       6.112  27.560  54.788  1.00  0.00     0.241 C 
HETATM   19  N   UNL     1       7.079  28.518  54.901  1.00  0.00    -0.353 N 
HETATM   20  H   UNL     1       7.683  28.735  54.114  1.00  0.00     0.162 HD
HETATM   21  O   UNL     1       5.207  27.409  55.616  1.00  0.00    -0.271 OA
BRANCH  19  22
HETATM   22  C   UNL     1       7.134  29.453  56.005  1.00  0.00     0.187 C 
BRANCH  22  23
HETATM   23  C   UNL     1       8.538  29.619  56.452  1.00  0.00     0.070 A 
HETATM   24  O   UNL     1       8.733  30.080  57.721  1.00  0.00    -0.325 OA
HETATM   25  C   UNL     1      10.075  30.176  57.907  1.00  0.00     0.142 A 
HETATM   26  C   UNL     1      10.746  29.799  56.769  1.00  0.00     0.027 A 
HETATM   27  C   UNL     1       9.754  29.438  55.825  1.00  0.00     0.036 A 
ENDBRANCH  22  23
ENDBRANCH  19  22
ENDBRANCH   1  18
BRANCH   1  28
HETATM   28  C   UNL     1       7.554  25.824  53.560  1.00  0.00     0.075 C 
BRANCH  28  29
HETATM   29  C   UNL     1       7.647  24.681  54.526  1.00  0.00    -0.028 A 
HETATM   30  C   UNL     1       7.762  23.292  54.189  1.00  0.00    -0.002 A 
HETATM   31  C   UNL     1       7.778  22.571  55.383  1.00  0.00     0.042 A 
HETATM   32  C   UNL     1       7.840  22.577  52.976  1.00  0.00     0.014 A 
HETATM   33  C   UNL     1       7.868  21.174  55.427  1.00  0.00     0.030 A 
HETATM   34  N   UNL     1       7.678  23.481  56.408  1.00  0.00    -0.365 N 
HETATM   35  C   UNL     1       7.938  20.491  54.211  1.00  0.00     0.002 A 
HETATM   36  C   UNL     1       7.924  21.179  53.001  1.00  0.00     0.001 A 
HETATM   37  H   UNL     1       7.652  23.234  57.389  1.00  0.00     0.165 HD
HETATM   38  C   UNL     1       7.585  24.752  55.904  1.00  0.00     0.096 A 
ENDBRANCH  28  29
ENDBRANCH   1  28
TORSDOF 7
ENDMDL
MODEL 3
REMARK VINA RESULT:     -10.0      2.583      3.409
REMARK  7 active torsions:
REMARK  status: ('A' for Active; 'I' for Inactive)
REMARK    1  A    between atoms: C_9  and  C_10 
REMARK       I    between atoms: C_10  and  N_11 
REMARK    2  A    between atoms: N_11  and  C_12 
REMARK    3  A    between atoms: C_12  and  C_13 
REMARK    4  A    between atoms: C_12  and  C_22 
REMARK       I    between atoms: C_13  and  N_14 
REMARK    5  A    between atoms: N_14  and  C_15 
REMARK    6  A    between atoms: C_15  and  C_16 
REMARK    7  A    between atoms: C_22  and  C_23 
ROOT
HETATM    1  C   UNL     1       5.653  27.846  54.303  1.00  0.00     0.180 C 
ENDROOT
BRANCH   1   2
HETATM    2  N   UNL     1       5.525  28.624  53.051  1.00  0.00    -0.346 N 
HETATM    3  C   UNL     1       4.333  28.824  52.417  1.00  0.00     0.249 C 
HETATM    4  O   UNL     1       3.283  28.291  52.780  1.00  0.00    -0.271 OA
HETATM    5  H   UNL     1       6.364  29.155  52.823  1.00  0.00     0.163 HD
BRANCH   3   6
HETATM    6  C   UNL     1       4.349  29.657  51.116  1.00  0.00     0.281 C 
HETATM    7  N   UNL     1       5.474  29.198  50.202  1.00  0.00    -0.058 N 
HETATM    8  C   UNL     1       5.247  27.849  49.606  1.00  0.00     0.272 C 
HETATM    9  H   UNL     1       5.634  29.882  49.455  1.00  0.00     0.278 HD
HETATM   10  H   UNL     1       6.329  29.137  50.775  1.00  0.00     0.278 HD
HETATM   11  C   UNL     1       3.869  27.676  49.040  1.00  0.00    -0.026 A 
HETATM   12  C   UNL     1       2.812  28.524  49.416  1.00  0.00    -0.048 A 
HETATM   13  C   UNL     1       3.616  26.613  48.159  1.00  0.00     0.009 A 
HETATM   14  C   UNL     1       1.532  28.313  48.882  1.00  0.00     0.008 A 
HETATM   15  C   UNL     1       3.041  29.708  50.322  1.00  0.00     0.082 C 
HETATM   16  C   UNL     1       1.298  27.260  48.000  1.00  0.00     0.001 A 
HETATM   17  C   UNL     1       2.339  26.410  47.639  1.00  0.00     0.001 A 
ENDBRANCH   3   6
ENDBRANCH   1   2
BRANCH   1  18
HETATM   18  C   UNL     1       5.217  28.827  55.413  1.00  0.00     0.241 C 
HETATM   19  N   UNL     1       6.028  29.904  55.633  1.00  0.00    -0.353 N 
HETATM   20  H   UNL     1       6.726  30.172  54.947  1.00  0.00     0.162 HD
HETATM   21  O   UNL     1       4.209  28.588  56.088  1.00  0.00    -0.271 OA
BRANCH  19  22
HETATM   22  C   UNL     1       5.779  30.874  56.680  1.00  0.00     0.187 C 
BRANCH  22  23
HETATM   23  C   UNL     1       6.789  30.721  57.755  1.00  0.00     0.070 A 
HETATM   24  O   UNL     1       7.084  31.831  58.491  1.00  0.00    -0.325 OA
HETATM   25  C   UNL     1       8.036  31.471  59.390  1.00  0.00     0.142 A 
HETATM   26  C   UNL     1       8.371  30.148  59.232  1.00  0.00     0.027 A 
HETATM   27  C   UNL     1       7.565  29.659  58.174  1.00  0.00     0.036 A 
ENDBRANCH  22  23
ENDBRANCH  19  22
ENDBRANCH   1  18
BRANCH   1  28
HETATM   28  C   UNL     1       7.091  27.342  54.473  1.00  0.00     0.075 C 
BRANCH  28  29
HETATM   29  C   UNL     1       7.221  26.005  55.139  1.00  0.00    -0.028 A 
HETATM   30  C   UNL     1       7.449  24.749  54.486  1.00  0.00    -0.002 A 
HETATM   31  C   UNL     1       7.464  23.762  55.470  1.00  0.00     0.042 A 
HETATM   32  C   UNL     1       7.631  24.357  53.143  1.00  0.00     0.014 A 
HETATM   33  C   UNL     1       7.650  22.404  55.182  1.00  0.00     0.030 A 
HETATM   34  N   UNL     1       7.255  24.386  56.676  1.00  0.00    -0.365 N 
HETATM   35  C   UNL     1       7.822  22.043  53.844  1.00  0.00     0.002 A 
HETATM   36  C   UNL     1       7.812  23.003  52.836  1.00  0.00     0.001 A 
HETATM   37  H   UNL     1       7.203  23.907  57.565  1.00  0.00     0.165 HD
HETATM   38  C   UNL     1       7.094  25.735  56.488  1.00  0.00     0.096 A 
ENDBRANCH  28  29
ENDBRANCH   1  28
TORSDOF 7
ENDMDL
MODEL 4
REMARK VINA RESULT:     -10.0      2.216      7.113
REMARK  7 active torsions:
REMARK  status: ('A' for Active; 'I' for Inactive)
REMARK    1  A    between atoms: C_9  and  C_10 
REMARK       I    between atoms: C_10  and  N_11 
REMARK    2  A    between atoms: N_11  and  C_12 
REMARK    3  A    between atoms: C_12  and  C_13 
REMARK    4  A    between atoms: C_12  and  C_22 
REMARK       I    between atoms: C_13  and  N_14 
REMARK    5  A    between atoms: N_14  and  C_15 
REMARK    6  A    between atoms: C_15  and  C_16 
REMARK    7  A    between atoms: C_22  and  C_23 
ROOT
HETATM    1  C   UNL     1       6.910  25.612  56.918  1.00  0.00     0.180 C 
ENDROOT
BRANCH   1   2
HETATM    2  N   UNL     1       7.400  26.927  56.450  1.00  0.00    -0.346 N 
HETATM    3  C   UNL     1       7.894  27.881  57.290  1.00  0.00     0.249 C 
HETATM    4  O   UNL     1       7.880  27.766  58.517  1.00  0.00    -0.271 OA
HETATM    5  H   UNL     1       7.520  26.971  55.438  1.00  0.00     0.163 HD
BRANCH   3   6
HETATM    6  C   UNL     1       8.371  29.209  56.660  1.00  0.00     0.281 C 
HETATM    7  N   UNL     1       7.181  30.082  56.293  1.00  0.00    -0.058 N 
HETATM    8  C   UNL     1       6.460  30.637  57.475  1.00  0.00     0.272 C 
HETATM    9  H   UNL     1       7.473  30.848  55.677  1.00  0.00     0.278 HD
HETATM   10  H   UNL     1       6.513  29.489  55.780  1.00  0.00     0.278 HD
HETATM   11  C   UNL     1       7.376  31.227  58.505  1.00  0.00    -0.026 A 
HETATM   12  C   UNL     1       8.744  30.902  58.539  1.00  0.00    -0.048 A 
HETATM   13  C   UNL     1       6.847  32.076  59.490  1.00  0.00     0.009 A 
HETATM   14  C   UNL     1       9.563  31.457  59.534  1.00  0.00     0.008 A 
HETATM   15  C   UNL     1       9.370  30.032  57.478  1.00  0.00     0.082 C 
HETATM   16  C   UNL     1       9.026  32.307  60.499  1.00  0.00     0.001 A 
HETATM   17  C   UNL     1       7.670  32.616  60.477  1.00  0.00     0.001 A 
ENDBRANCH   3   6
ENDBRANCH   1   2
BRANCH   1  18
HETATM   18  C   UNL     1       8.127  24.672  56.775  1.00  0.00     0.241 C 
HETATM   19  N   UNL     1       8.258  24.014  55.585  1.00  0.00    -0.353 N 
HETATM   20  H   UNL     1       7.735  24.317  54.769  1.00  0.00     0.162 HD
HETATM   21  O   UNL     1       8.894  24.505  57.730  1.00  0.00    -0.271 OA
BRANCH  19  22
HETATM   22  C   UNL     1       9.313  23.057  55.328  1.00  0.00     0.187 C 
BRANCH  22  23
HETATM   23  C   UNL     1       8.827  22.014  54.392  1.00  0.00     0.070 A 
HETATM   24  O   UNL     1       9.192  20.726  54.656  1.00  0.00    -0.325 OA
HETATM   25  C   UNL     1       8.662  19.954  53.672  1.00  0.00     0.142 A 
HETATM   26  C   UNL     1       7.977  20.730  52.768  1.00  0.00     0.027 A 
HETATM   27  C   UNL     1       8.082  22.064  53.232  1.00  0.00     0.036 A 
ENDBRANCH  22  23
ENDBRANCH  19  22
ENDBRANCH   1  18
BRANCH   1  28
HETATM   28  C   UNL     1       5.702  25.166  56.087  1.00  0.00     0.075 C 
BRANCH  28  29
HETATM   29  C   UNL     1       5.180  26.189  55.124  1.00  0.00    -0.028 A 
HETATM   30  C   UNL     1       5.305  26.152  53.696  1.00  0.00    -0.002 A 
HETATM   31  C   UNL     1       4.716  27.314  53.194  1.00  0.00     0.042 A 
HETATM   32  C   UNL     1       5.877  25.245  52.781  1.00  0.00     0.014 A 
HETATM   33  C   UNL     1       4.672  27.613  51.827  1.00  0.00     0.030 A 
HETATM   34  N   UNL     1       4.250  28.030  54.269  1.00  0.00    -0.365 N 
HETATM   35  C   UNL     1       5.252  26.700  50.944  1.00  0.00     0.002 A 
HETATM   36  C   UNL     1       5.847  25.532  51.411  1.00  0.00     0.001 A 
HETATM   37  H   UNL     1       3.787  28.927  54.200  1.00  0.00     0.165 HD
HETATM   38  C   UNL     1       4.534  27.370  55.437  1.00  0.00     0.096 A 
ENDBRANCH  28  29
ENDBRANCH   1  28
TORSDOF 7
ENDMDL
MODEL 5
REMARK VINA RESULT:      -9.9      3.035      4.071
REMARK  7 active torsions:
REMARK  status: ('A' for Active; 'I' for Inactive)
REMARK    1  A    between atoms: C_9  and  C_10 
REMARK       I    between atoms: C_10  and  N_11 
REMARK    2  A    between atoms: N_11  and  C_12 
REMARK    3  A    between atoms: C_12  and  C_13 
REMARK    4  A    between atoms: C_12  and  C_22 
REMARK       I    between atoms: C_13  and  N_14 
REMARK    5  A    between atoms: N_14  and  C_15 
REMARK    6  A    between atoms: C_15  and  C_16 
REMARK    7  A    between atoms: C_22  and  C_23 
ROOT
HETATM    1  C   UNL     1       5.732  26.483  52.289  1.00  0.00     0.180 C 
ENDROOT
BRANCH   1   2
HETATM    2  N   UNL     1       5.843  26.684  50.827  1.00  0.00    -0.346 N 
HETATM    3  C   UNL     1       5.154  27.650  50.154  1.00  0.00     0.249 C 
HETATM    4  O   UNL     1       4.309  28.368  50.691  1.00  0.00    -0.271 OA
HETATM    5  H   UNL     1       6.621  26.174  50.412  1.00  0.00     0.163 HD
BRANCH   3   6
HETATM    6  C   UNL     1       5.368  27.745  48.627  1.00  0.00     0.281 C 
HETATM    7  N   UNL     1       5.137  26.392  47.971  1.00  0.00    -0.058 N 
HETATM    8  C   UNL     1       3.708  25.962  47.976  1.00  0.00     0.272 C 
HETATM    9  H   UNL     1       5.493  26.391  47.011  1.00  0.00     0.278 HD
HETATM   10  H   UNL     1       5.665  25.694  48.515  1.00  0.00     0.278 HD
HETATM   11  C   UNL     1       2.763  27.042  47.537  1.00  0.00    -0.026 A 
HETATM   12  C   UNL     1       3.146  28.395  47.543  1.00  0.00    -0.048 A 
HETATM   13  C   UNL     1       1.454  26.700  47.165  1.00  0.00     0.009 A 
HETATM   14  C   UNL     1       2.225  29.376  47.148  1.00  0.00     0.008 A 
HETATM   15  C   UNL     1       4.554  28.811  47.888  1.00  0.00     0.082 C 
HETATM   16  C   UNL     1       0.931  29.021  46.771  1.00  0.00     0.001 A 
HETATM   17  C   UNL     1       0.545  27.684  46.780  1.00  0.00     0.001 A 
ENDBRANCH   3   6
ENDBRANCH   1   2
BRANCH   1  18
HETATM   18  C   UNL     1       7.100  26.938  52.846  1.00  0.00     0.241 C 
HETATM   19  N   UNL     1       7.082  27.950  53.763  1.00  0.00    -0.353 N 
HETATM   20  H   UNL     1       6.218  28.207  54.230  1.00  0.00     0.162 HD
HETATM   21  O   UNL     1       8.141  26.427  52.419  1.00  0.00    -0.271 OA
BRANCH  19  22
HETATM   22  C   UNL     1       8.288  28.520  54.327  1.00  0.00     0.187 C 
BRANCH  22  23
HETATM   23  C   UNL     1       8.148  28.635  55.799  1.00  0.00     0.070 A 
HETATM   24  O   UNL     1       7.085  28.000  56.372  1.00  0.00    -0.325 OA
HETATM   25  C   UNL     1       7.141  28.255  57.704  1.00  0.00     0.142 A 
HETATM   26  C   UNL     1       8.215  29.060  57.996  1.00  0.00     0.027 A 
HETATM   27  C   UNL     1       8.870  29.307  56.764  1.00  0.00     0.036 A 
ENDBRANCH  22  23
ENDBRANCH  19  22
ENDBRANCH   1  18
BRANCH   1  28
HETATM   28  C   UNL     1       5.410  25.018  52.603  1.00  0.00     0.075 C 
BRANCH  28  29
HETATM   29  C   UNL     1       6.047  24.480  53.849  1.00  0.00    -0.028 A 
HETATM   30  C   UNL     1       7.021  23.429  53.920  1.00  0.00    -0.002 A 
HETATM   31  C   UNL     1       7.313  23.219  55.267  1.00  0.00     0.042 A 
HETATM   32  C   UNL     1       7.672  22.626  52.961  1.00  0.00     0.014 A 
HETATM   33  C   UNL     1       8.221  22.246  55.705  1.00  0.00     0.030 A 
HETATM   34  N   UNL     1       6.551  24.103  55.991  1.00  0.00    -0.365 N 
HETATM   35  C   UNL     1       8.848  21.461  54.735  1.00  0.00     0.002 A 
HETATM   36  C   UNL     1       8.579  21.645  53.382  1.00  0.00     0.001 A 
HETATM   37  H   UNL     1       6.551  24.163  57.001  1.00  0.00     0.165 HD
HETATM   38  C   UNL     1       5.776  24.858  55.150  1.00  0.00     0.096 A 
ENDBRANCH  28  29
ENDBRANCH   1  28
TORSDOF 7
ENDMDL
MODEL 6
REMARK VINA RESULT:      -9.9      2.253      6.296
REMARK  7 active torsions:
REMARK  status: ('A' for Active; 'I' for Inactive)
REMARK    1  A    between atoms: C_9  and  C_10 
REMARK       I    between atoms: C_10  and  N_11 
REMARK    2  A    between atoms: N_11  and  C_12 
REMARK    3  A    between atoms: C_12  and  C_13 
REMARK    4  A    between atoms: C_12  and  C_22 
REMARK       I    between atoms: C_13  and  N_14 
REMARK    5  A    between atoms: N_14  and  C_15 
REMARK    6  A    between atoms: C_15  and  C_16 
REMARK    7  A    between atoms: C_22  and  C_23 
ROOT
HETATM    1  C   UNL     1       6.751  26.349  52.807  1.00  0.00     0.180 C 
ENDROOT
BRANCH   1   2
HETATM    2  N   UNL     1       6.088  26.449  54.126  1.00  0.00    -0.346 N 
HETATM    3  C   UNL     1       5.629  27.625  54.642  1.00  0.00     0.249 C 
HETATM    4  O   UNL     1       5.818  28.715  54.099  1.00  0.00    -0.271 OA
HETATM    5  H   UNL     1       5.830  25.542  54.513  1.00  0.00     0.163 HD
BRANCH   3   6
HETATM    6  C   UNL     1       4.957  27.579  56.033  1.00  0.00     0.281 C 
HETATM    7  N   UNL     1       5.812  26.791  57.013  1.00  0.00    -0.058 N 
HETATM    8  C   UNL     1       7.076  27.485  57.394  1.00  0.00     0.272 C 
HETATM    9  H   UNL     1       5.276  26.564  57.856  1.00  0.00     0.278 HD
HETATM   10  H   UNL     1       6.077  25.910  56.549  1.00  0.00     0.278 HD
HETATM   11  C   UNL     1       6.875  28.927  57.755  1.00  0.00    -0.026 A 
HETATM   12  C   UNL     1       5.719  29.625  57.363  1.00  0.00    -0.048 A 
HETATM   13  C   UNL     1       7.887  29.609  58.450  1.00  0.00     0.009 A 
HETATM   14  C   UNL     1       5.581  30.979  57.700  1.00  0.00     0.008 A 
HETATM   15  C   UNL     1       4.584  28.927  56.655  1.00  0.00     0.082 C 
HETATM   16  C   UNL     1       6.588  31.641  58.400  1.00  0.00     0.001 A 
HETATM   17  C   UNL     1       7.740  30.957  58.774  1.00  0.00     0.001 A 
ENDBRANCH   3   6
ENDBRANCH   1   2
BRANCH   1  18
HETATM   18  C   UNL     1       5.651  25.821  51.860  1.00  0.00     0.241 C 
HETATM   19  N   UNL     1       5.619  26.350  50.601  1.00  0.00    -0.353 N 
HETATM   20  H   UNL     1       6.415  26.864  50.238  1.00  0.00     0.162 HD
HETATM   21  O   UNL     1       4.823  25.001  52.273  1.00  0.00    -0.271 OA
BRANCH  19  22
HETATM   22  C   UNL     1       4.609  25.996  49.626  1.00  0.00     0.187 C 
BRANCH  22  23
HETATM   23  C   UNL     1       4.212  27.200  48.856  1.00  0.00     0.070 A 
HETATM   24  O   UNL     1       3.200  27.958  49.369  1.00  0.00    -0.325 OA
HETATM   25  C   UNL     1       2.991  28.981  48.502  1.00  0.00     0.142 A 
HETATM   26  C   UNL     1       3.843  28.884  47.427  1.00  0.00     0.027 A 
HETATM   27  C   UNL     1       4.634  27.731  47.654  1.00  0.00     0.036 A 
ENDBRANCH  22  23
ENDBRANCH  19  22
ENDBRANCH   1  18
BRANCH   1  28
HETATM   28  C   UNL     1       7.970  25.424  52.891  1.00  0.00     0.075 C 
BRANCH  28  29
HETATM   29  C   UNL     1       7.954  24.452  54.032  1.00  0.00    -0.028 A 
HETATM   30  C   UNL     1       7.944  23.022  53.930  1.00  0.00    -0.002 A 
HETATM   31  C   UNL     1       7.889  22.510  55.226  1.00  0.00     0.042 A 
HETATM   32  C   UNL     1       7.963  22.113  52.852  1.00  0.00     0.014 A 
HETATM   33  C   UNL     1       7.851  21.137  55.499  1.00  0.00     0.030 A 
HETATM   34  N   UNL     1       7.867  23.581  56.086  1.00  0.00    -0.365 N 
HETATM   35  C   UNL     1       7.865  20.258  54.413  1.00  0.00     0.002 A 
HETATM   36  C   UNL     1       7.919  20.736  53.107  1.00  0.00     0.001 A 
HETATM   37  H   UNL     1       7.814  23.503  57.093  1.00  0.00     0.165 HD
HETATM   38  C   UNL     1       7.892  24.755  55.379  1.00  0.00     0.096 A 
ENDBRANCH  28  29
ENDBRANCH   1  28
TORSDOF 7
ENDMDL
MODEL 7
REMARK VINA RESULT:      -9.8      2.650      8.213
REMARK  7 active torsions:
REMARK  status: ('A' for Active; 'I' for Inactive)
REMARK    1  A    between atoms: C_9  and  C_10 
REMARK       I    between atoms: C_10  and  N_11 
REMARK    2  A    between atoms: N_11  and  C_12 
REMARK    3  A    between atoms: C_12  and  C_13 
REMARK    4  A    between atoms: C_12  and  C_22 
REMARK       I    between atoms: C_13  and  N_14 
REMARK    5  A    between atoms: N_14  and  C_15 
REMARK    6  A    between atoms: C_15  and  C_16 
REMARK    7  A    between atoms: C_22  and  C_23 
ROOT
HETATM    1  C   UNL     1       4.231  27.304  53.094  1.00  0.00     0.180 C 
ENDROOT
BRANCH   1   2
HETATM    2  N   UNL     1       5.652  26.904  53.190  1.00  0.00    -0.346 N 
HETATM    3  C   UNL     1       6.091  25.640  52.924  1.00  0.00     0.249 C 
HETATM    4  O   UNL     1       5.327  24.704  52.681  1.00  0.00    -0.271 OA
HETATM    5  H   UNL     1       6.286  27.698  53.274  1.00  0.00     0.163 HD
BRANCH   3   6
HETATM    6  C   UNL     1       7.604  25.366  53.065  1.00  0.00     0.281 C 
HETATM    7  N   UNL     1       8.039  25.506  54.516  1.00  0.00    -0.058 N 
HETATM    8  C   UNL     1       7.527  24.419  55.400  1.00  0.00     0.272 C 
HETATM    9  H   UNL     1       9.060  25.552  54.583  1.00  0.00     0.278 HD
HETATM   10  H   UNL     1       7.650  26.393  54.868  1.00  0.00     0.278 HD
HETATM   11  C   UNL     1       7.709  23.048  54.821  1.00  0.00    -0.026 A 
HETATM   12  C   UNL     1       7.936  22.859  53.445  1.00  0.00    -0.048 A 
HETATM   13  C   UNL     1       7.597  21.927  55.658  1.00  0.00     0.009 A 
HETATM   14  C   UNL     1       8.077  21.559  52.939  1.00  0.00     0.008 A 
HETATM   15  C   UNL     1       8.111  24.031  52.512  1.00  0.00     0.082 C 
HETATM   16  C   UNL     1       7.974  20.456  53.784  1.00  0.00     0.001 A 
HETATM   17  C   UNL     1       7.734  20.639  55.142  1.00  0.00     0.001 A 
ENDBRANCH   3   6
ENDBRANCH   1   2
BRANCH   1  18
HETATM   18  C   UNL     1       4.181  28.269  51.889  1.00  0.00     0.241 C 
HETATM   19  N   UNL     1       2.967  28.439  51.288  1.00  0.00    -0.353 N 
HETATM   20  H   UNL     1       2.115  28.148  51.758  1.00  0.00     0.162 HD
HETATM   21  O   UNL     1       5.220  28.802  51.481  1.00  0.00    -0.271 OA
BRANCH  19  22
HETATM   22  C   UNL     1       2.779  29.264  50.113  1.00  0.00     0.187 C 
BRANCH  22  23
HETATM   23  C   UNL     1       2.226  28.444  49.008  1.00  0.00     0.070 A 
HETATM   24  O   UNL     1       2.794  27.221  48.800  1.00  0.00    -0.325 OA
HETATM   25  C   UNL     1       2.156  26.662  47.740  1.00  0.00     0.142 A 
HETATM   26  C   UNL     1       1.197  27.515  47.251  1.00  0.00     0.027 A 
HETATM   27  C   UNL     1       1.240  28.670  48.070  1.00  0.00     0.036 A 
ENDBRANCH  22  23
ENDBRANCH  19  22
ENDBRANCH   1  18
BRANCH   1  28
HETATM   28  C   UNL     1       3.769  27.951  54.405  1.00  0.00     0.075 C 
BRANCH  28  29
HETATM   29  C   UNL     1       4.725  28.943  54.996  1.00  0.00    -0.028 A 
HETATM   30  C   UNL     1       5.717  28.674  55.996  1.00  0.00    -0.002 A 
HETATM   31  C   UNL     1       6.356  29.879  56.287  1.00  0.00     0.042 A 
HETATM   32  C   UNL     1       6.124  27.517  56.693  1.00  0.00     0.014 A 
HETATM   33  C   UNL     1       7.378  29.987  57.238  1.00  0.00     0.030 A 
HETATM   34  N   UNL     1       5.780  30.845  55.498  1.00  0.00    -0.365 N 
HETATM   35  C   UNL     1       7.757  28.827  57.918  1.00  0.00     0.002 A 
HETATM   36  C   UNL     1       7.140  27.608  57.652  1.00  0.00     0.001 A 
HETATM   37  H   UNL     1       6.041  31.823  55.511  1.00  0.00     0.165 HD
HETATM   38  C   UNL     1       4.789  30.297  54.727  1.00  0.00     0.096 A 
ENDBRANCH  28  29
ENDBRANCH   1  28
TORSDOF 7
ENDMDL
MODEL 8
REMARK VINA RESULT:      -9.7      1.793      2.709
REMARK  7 active torsions:
REMARK  status: ('A' for Active; 'I' for Inactive)
REMARK    1  A    between atoms: C_9  and  C_10 
REMARK       I    between atoms: C_10  and  N_11 
REMARK    2  A    between atoms: N_11  and  C_12 
REMARK    3  A    between atoms: C_12  and  C_13 
REMARK    4  A    between atoms: C_12  and  C_22 
REMARK       I    between atoms: C_13  and  N_14 
REMARK    5  A    between atoms: N_14  and  C_15 
REMARK    6  A    between atoms: C_15  and  C_16 
REMARK    7  A    between atoms: C_22  and  C_23 
ROOT
HETATM    1  C   UNL     1       6.247  26.636  53.192  1.00  0.00     0.180 C 
ENDROOT
BRANCH   1   2
HETATM    2  N   UNL     1       5.903  27.162  51.853  1.00  0.00    -0.346 N 
HETATM    3  C   UNL     1       5.126  26.481  50.962  1.00  0.00     0.249 C 
HETATM    4  O   UNL     1       4.730  25.331  51.160  1.00  0.00    -0.271 OA
HETATM    5  H   UNL     1       6.130  28.149  51.741  1.00  0.00     0.163 HD
BRANCH   3   6
HETATM    6  C   UNL     1       4.849  27.153  49.598  1.00  0.00     0.281 C 
HETATM    7  N   UNL     1       3.372  27.490  49.460  1.00  0.00    -0.058 N 
HETATM    8  C   UNL     1       2.925  28.596  50.354  1.00  0.00     0.272 C 
HETATM    9  H   UNL     1       3.145  27.720  48.487  1.00  0.00     0.278 HD
HETATM   10  H   UNL     1       2.840  26.649  49.728  1.00  0.00     0.278 HD
HETATM   11  C   UNL     1       3.844  29.783  50.333  1.00  0.00    -0.026 A 
HETATM   12  C   UNL     1       5.166  29.676  49.865  1.00  0.00    -0.048 A 
HETATM   13  C   UNL     1       3.392  31.010  50.842  1.00  0.00     0.009 A 
HETATM   14  C   UNL     1       6.000  30.803  49.885  1.00  0.00     0.008 A 
HETATM   15  C   UNL     1       5.684  28.392  49.266  1.00  0.00     0.082 C 
HETATM   16  C   UNL     1       5.535  32.019  50.384  1.00  0.00     0.001 A 
HETATM   17  C   UNL     1       4.233  32.122  50.862  1.00  0.00     0.001 A 
ENDBRANCH   3   6
ENDBRANCH   1   2
BRANCH   1  18
HETATM   18  C   UNL     1       6.087  27.848  54.136  1.00  0.00     0.241 C 
HETATM   19  N   UNL     1       7.006  27.971  55.138  1.00  0.00    -0.353 N 
HETATM   20  H   UNL     1       7.875  27.446  55.108  1.00  0.00     0.162 HD
HETATM   21  O   UNL     1       5.129  28.618  53.996  1.00  0.00    -0.271 OA
BRANCH  19  22
HETATM   22  C   UNL     1       6.948  29.021  56.134  1.00  0.00     0.187 C 
BRANCH  22  23
HETATM   23  C   UNL     1       8.321  29.386  56.559  1.00  0.00     0.070 A 
HETATM   24  O   UNL     1       9.277  29.436  55.587  1.00  0.00    -0.325 OA
HETATM   25  C   UNL     1      10.446  29.763  56.196  1.00  0.00     0.142 A 
HETATM   26  C   UNL     1      10.259  29.908  57.550  1.00  0.00     0.027 A 
HETATM   27  C   UNL     1       8.884  29.665  57.788  1.00  0.00     0.036 A 
ENDBRANCH  22  23
ENDBRANCH  19  22
ENDBRANCH   1  18
BRANCH   1  28
HETATM   28  C   UNL     1       7.666  26.057  53.190  1.00  0.00     0.075 C 
BRANCH  28  29
HETATM   29  C   UNL     1       7.747  24.572  53.380  1.00  0.00    -0.028 A 
HETATM   30  C   UNL     1       7.958  23.885  54.621  1.00  0.00    -0.002 A 
HETATM   31  C   UNL     1       8.005  22.519  54.341  1.00  0.00     0.042 A 
HETATM   32  C   UNL     1       8.128  24.299  55.958  1.00  0.00     0.014 A 
HETATM   33  C   UNL     1       8.214  21.548  55.328  1.00  0.00     0.030 A 
HETATM   34  N   UNL     1       7.830  22.376  52.986  1.00  0.00    -0.365 N 
HETATM   35  C   UNL     1       8.385  21.986  56.643  1.00  0.00     0.002 A 
HETATM   36  C   UNL     1       8.343  23.342  56.957  1.00  0.00     0.001 A 
HETATM   37  H   UNL     1       7.833  21.488  52.501  1.00  0.00     0.165 HD
HETATM   38  C   UNL     1       7.687  23.604  52.395  1.00  0.00     0.096 A 
ENDBRANCH  28  29
ENDBRANCH   1  28
TORSDOF 7
ENDMDL
MODEL 9
REMARK VINA RESULT:      -9.6      2.886      3.962
REMARK  7 active torsions:
REMARK  status: ('A' for Active; 'I' for Inactive)
REMARK    1  A    between atoms: C_9  and  C_10 
REMARK       I    between atoms: C_10  and  N_11 
REMARK    2  A    between atoms: N_11  and  C_12 
REMARK    3  A    between atoms: C_12  and  C_13 
REMARK    4  A    between atoms: C_12  and  C_22 
REMARK       I    between atoms: C_13  and  N_14 
REMARK    5  A    between atoms: N_14  and  C_15 
REMARK    6  A    between atoms: C_15  and  C_16 
REMARK    7  A    between atoms: C_22  and  C_23 
ROOT
HETATM    1  C   UNL     1       6.455  26.927  53.241  1.00  0.00     0.180 C 
ENDROOT
BRANCH   1   2
HETATM    2  N   UNL     1       6.270  27.700  51.994  1.00  0.00    -0.346 N 
HETATM    3  C   UNL     1       5.060  28.183  51.588  1.00  0.00     0.249 C 
HETATM    4  O   UNL     1       4.007  27.930  52.176  1.00  0.00    -0.271 OA
HETATM    5  H   UNL     1       7.150  28.005  51.579  1.00  0.00     0.163 HD
BRANCH   3   6
HETATM    6  C   UNL     1       5.016  28.974  50.262  1.00  0.00     0.281 C 
HETATM    7  N   UNL     1       5.792  28.241  49.178  1.00  0.00    -0.058 N 
HETATM    8  C   UNL     1       5.131  26.986  48.717  1.00  0.00     0.272 C 
HETATM    9  H   UNL     1       5.959  28.857  48.376  1.00  0.00     0.278 HD
HETATM   10  H   UNL     1       6.703  27.976  49.580  1.00  0.00     0.278 HD
HETATM   11  C   UNL     1       3.667  27.155  48.436  1.00  0.00    -0.026 A 
HETATM   12  C   UNL     1       2.943  28.242  48.957  1.00  0.00    -0.048 A 
HETATM   13  C   UNL     1       2.995  26.179  47.683  1.00  0.00     0.009 A 
HETATM   14  C   UNL     1       1.571  28.351  48.691  1.00  0.00     0.008 A 
HETATM   15  C   UNL     1       3.628  29.341  49.732  1.00  0.00     0.082 C 
HETATM   16  C   UNL     1       0.918  27.380  47.934  1.00  0.00     0.001 A 
HETATM   17  C   UNL     1       1.629  26.295  47.431  1.00  0.00     0.001 A 
ENDBRANCH   3   6
ENDBRANCH   1   2
BRANCH   1  18
HETATM   18  C   UNL     1       7.079  27.935  54.232  1.00  0.00     0.241 C 
HETATM   19  N   UNL     1       6.270  28.391  55.234  1.00  0.00    -0.353 N 
HETATM   20  H   UNL     1       5.405  27.908  55.457  1.00  0.00     0.162 HD
HETATM   21  O   UNL     1       8.238  28.331  54.063  1.00  0.00    -0.271 OA
BRANCH  19  22
HETATM   22  C   UNL     1       6.697  29.382  56.199  1.00  0.00     0.187 C 
BRANCH  22  23
HETATM   23  C   UNL     1       5.512  30.040  56.800  1.00  0.00     0.070 A 
HETATM   24  O   UNL     1       5.746  31.065  57.670  1.00  0.00    -0.325 OA
HETATM   25  C   UNL     1       4.537  31.498  58.109  1.00  0.00     0.142 A 
HETATM   26  C   UNL     1       3.527  30.755  57.548  1.00  0.00     0.027 A 
HETATM   27  C   UNL     1       4.155  29.811  56.699  1.00  0.00     0.036 A 
ENDBRANCH  22  23
ENDBRANCH  19  22
ENDBRANCH   1  18
BRANCH   1  28
HETATM   28  C   UNL     1       7.344  25.705  52.985  1.00  0.00     0.075 C 
BRANCH  28  29
HETATM   29  C   UNL     1       7.359  24.688  54.087  1.00  0.00    -0.028 A 
HETATM   30  C   UNL     1       7.619  23.285  53.944  1.00  0.00    -0.002 A 
HETATM   31  C   UNL     1       7.495  22.705  55.207  1.00  0.00     0.042 A 
HETATM   32  C   UNL     1       7.934  22.448  52.853  1.00  0.00     0.014 A 
HETATM   33  C   UNL     1       7.670  21.334  55.434  1.00  0.00     0.030 A 
HETATM   34  N   UNL     1       7.174  23.711  56.086  1.00  0.00    -0.365 N 
HETATM   35  C   UNL     1       7.976  20.529  54.335  1.00  0.00     0.002 A 
HETATM   36  C   UNL     1       8.106  21.075  53.062  1.00  0.00     0.001 A 
HETATM   37  H   UNL     1       7.011  23.574  57.075  1.00  0.00     0.165 HD
HETATM   38  C   UNL     1       7.077  24.906  55.422  1.00  0.00     0.096 A 
ENDBRANCH  28  29
ENDBRANCH   1  28
TORSDOF 7
ENDMDL
MODEL 10
REMARK VINA RESULT:      -9.3      2.583      3.795
REMARK  7 active torsions:
REMARK  status: ('A' for Active; 'I' for Inactive)
REMARK    1  A    between atoms: C_9  and  C_10 
REMARK       I    between atoms: C_10  and  N_11 
REMARK    2  A    between atoms: N_11  and  C_12 
REMARK    3  A    between atoms: C_12  and  C_13 
REMARK    4  A    between atoms: C_12  and  C_22 
REMARK       I    between atoms: C_13  and  N_14 
REMARK    5  A    between atoms: N_14  and  C_15 
REMARK    6  A    between atoms: C_15  and  C_16 
REMARK    7  A    between atoms: C_22  and  C_23 
ROOT
HETATM    1  C   UNL     1       5.191  27.494  53.988  1.00  0.00     0.180 C 
ENDROOT
BRANCH   1   2
HETATM    2  N   UNL     1       5.210  28.202  52.689  1.00  0.00    -0.346 N 
HETATM    3  C   UNL     1       4.123  28.848  52.175  1.00  0.00     0.249 C 
HETATM    4  O   UNL     1       3.011  28.810  52.703  1.00  0.00    -0.271 OA
HETATM    5  H   UNL     1       6.151  28.331  52.318  1.00  0.00     0.163 HD
BRANCH   3   6
HETATM    6  C   UNL     1       4.289  29.545  50.806  1.00  0.00     0.281 C 
HETATM    7  N   UNL     1       5.434  28.920  50.025  1.00  0.00    -0.058 N 
HETATM    8  C   UNL     1       5.145  27.538  49.544  1.00  0.00     0.272 C 
HETATM    9  H   UNL     1       5.695  29.513  49.231  1.00  0.00     0.278 HD
HETATM   10  H   UNL     1       6.242  28.857  50.662  1.00  0.00     0.278 HD
HETATM   11  C   UNL     1       3.798  27.406  48.896  1.00  0.00    -0.026 A 
HETATM   12  C   UNL     1       2.786  28.358  49.113  1.00  0.00    -0.048 A 
HETATM   13  C   UNL     1       3.525  26.280  48.103  1.00  0.00     0.009 A 
HETATM   14  C   UNL     1       1.533  28.184  48.508  1.00  0.00     0.008 A 
HETATM   15  C   UNL     1       3.044  29.607  49.917  1.00  0.00     0.082 C 
HETATM   16  C   UNL     1       1.278  27.067  47.715  1.00  0.00     0.001 A 
HETATM   17  C   UNL     1       2.273  26.116  47.513  1.00  0.00     0.001 A 
ENDBRANCH   3   6
ENDBRANCH   1   2
BRANCH   1  18
HETATM   18  C   UNL     1       6.565  27.808  54.619  1.00  0.00     0.241 C 
HETATM   19  N   UNL     1       6.680  27.612  55.966  1.00  0.00    -0.353 N 
HETATM   20  H   UNL     1       5.990  27.060  56.467  1.00  0.00     0.162 HD
HETATM   21  O   UNL     1       7.476  28.266  53.920  1.00  0.00    -0.271 OA
BRANCH  19  22
HETATM   22  C   UNL     1       7.887  27.920  56.705  1.00  0.00     0.187 C 
BRANCH  22  23
HETATM   23  C   UNL     1       7.669  29.127  57.539  1.00  0.00     0.070 A 
HETATM   24  O   UNL     1       6.663  29.969  57.161  1.00  0.00    -0.325 OA
HETATM   25  C   UNL     1       6.660  31.003  58.040  1.00  0.00     0.142 A 
HETATM   26  C   UNL     1       7.660  30.849  58.969  1.00  0.00     0.027 A 
HETATM   27  C   UNL     1       8.315  29.635  58.647  1.00  0.00     0.036 A 
ENDBRANCH  22  23
ENDBRANCH  19  22
ENDBRANCH   1  18
BRANCH   1  28
HETATM   28  C   UNL     1       4.953  25.995  53.775  1.00  0.00     0.075 C 
BRANCH  28  29
HETATM   29  C   UNL     1       6.155  25.216  53.334  1.00  0.00    -0.028 A 
HETATM   30  C   UNL     1       6.921  24.308  54.137  1.00  0.00    -0.002 A 
HETATM   31  C   UNL     1       7.971  23.836  53.350  1.00  0.00     0.042 A 
HETATM   32  C   UNL     1       6.827  23.853  55.469  1.00  0.00     0.014 A 
HETATM   33  C   UNL     1       8.931  22.933  53.825  1.00  0.00     0.030 A 
HETATM   34  N   UNL     1       7.853  24.428  52.116  1.00  0.00    -0.365 N 
HETATM   35  C   UNL     1       8.817  22.503  55.149  1.00  0.00     0.002 A 
HETATM   36  C   UNL     1       7.782  22.956  55.962  1.00  0.00     0.001 A 
HETATM   37  H   UNL     1       8.492  24.277  51.347  1.00  0.00     0.165 HD
HETATM   38  C   UNL     1       6.772  25.272  52.098  1.00  0.00     0.096 A 
ENDBRANCH  28  29
ENDBRANCH   1  28
TORSDOF 7
ENDMDL
