MODEL 1
REMARK VINA RESULT:      -8.3      0.000      0.000
REMARK  4 active torsions:
REMARK  status: ('A' for Active; 'I' for Inactive)
REMARK    1  A    between atoms: C_3  and  N_4 
REMARK    2  A    between atoms: C_5  and  C_6 
REMARK    3  A    between atoms: C_13  and  N_14 
REMARK       I    between atoms: N_14  and  C_15 
REMARK    4  A    between atoms: C_15  and  C_16 
ROOT
HETATM    1  C   UNL     1       5.136  27.563  56.071  1.00  0.00     0.005 A 
HETATM    2  C   UNL     1       5.944  28.263  56.967  1.00  0.00     0.031 A 
HETATM    3  C   UNL     1       7.142  27.710  57.420  1.00  0.00     0.058 A 
HETATM    4  C   UNL     1       7.537  26.449  56.946  1.00  0.00     0.061 A 
HETATM    5  C   UNL     1       6.730  25.731  56.060  1.00  0.00     0.037 A 
HETATM    6  C   UNL     1       5.529  26.302  55.621  1.00  0.00     0.029 A 
ENDROOT
BRANCH   5   7
HETATM    7  N   UNL     1       7.052  24.455  55.561  1.00  0.00    -0.321 N 
HETATM    8  C   UNL     1       7.635  24.130  54.348  1.00  0.00     0.279 C 
HETATM    9  O   UNL     1       8.006  24.933  53.498  1.00  0.00    -0.265 OA
HETATM   10  H   UNL     1       6.865  23.660  56.164  1.00  0.00     0.169 HD
BRANCH   8  11
HETATM   11  C   UNL     1       7.796  22.696  54.174  1.00  0.00     0.142 A 
HETATM   12  O   UNL     1       7.774  21.875  55.274  1.00  0.00    -0.317 OA
HETATM   13  C   UNL     1       7.938  20.604  54.826  1.00  0.00     0.143 A 
HETATM   14  C   UNL     1       8.072  20.585  53.458  1.00  0.00     0.027 A 
HETATM   15  C   UNL     1       7.981  21.934  53.036  1.00  0.00     0.045 A 
ENDBRANCH   8  11
ENDBRANCH   5   7
BRANCH   3  16
HETATM   16  N   UNL     1       7.946  28.466  58.288  1.00  0.00    -0.259 NA
HETATM   17  C   UNL     1       7.575  29.684  58.521  1.00  0.00     0.146 C 
BRANCH  17  18
HETATM   18  C   UNL     1       8.355  30.499  59.413  1.00  0.00     0.049 A 
HETATM   19  N   UNL     1       8.223  30.463  60.782  1.00  0.00    -0.365 N 
HETATM   20  H   UNL     1       7.566  29.862  61.264  1.00  0.00     0.165 HD
HETATM   21  C   UNL     1       9.096  31.346  61.360  1.00  0.00     0.088 A 
HETATM   22  C   UNL     1       9.798  31.967  60.351  1.00  0.00     0.019 A 
HETATM   23  C   UNL     1       9.331  31.434  59.124  1.00  0.00     0.032 A 
ENDBRANCH  17  18
ENDBRANCH   3  16
TORSDOF 4
ENDMDL
MODEL 2
REMARK VINA RESULT:      -8.2      2.443      8.503
REMARK  4 active torsions:
REMARK  status: ('A' for Active; 'I' for Inactive)
REMARK    1  A    between atoms: C_3  and  N_4 
REMARK    2  A    between atoms: C_5  and  C_6 
REMARK    3  A    between atoms: C_13  and  N_14 
REMARK       I    between atoms: N_14  and  C_15 
REMARK    4  A    between atoms: C_15  and  C_16 
ROOT
HETATM    1  C   UNL     1       5.134  27.252  56.025  1.00  0.00     0.005 A 
HETATM    2  C   UNL     1       5.771  26.082  55.615  1.00  0.00     0.031 A 
HETATM    3  C   UNL     1       7.058  25.782  56.066  1.00  0.00     0.058 A 
HETATM    4  C   UNL     1       7.695  26.662  56.954  1.00  0.00     0.061 A 
HETATM    5  C   UNL     1       7.074  27.845  57.361  1.00  0.00     0.037 A 
HETATM    6  C   UNL     1       5.785  28.129  56.894  1.00  0.00     0.029 A 
ENDROOT
BRANCH   5   7
HETATM    7  N   UNL     1       7.661  28.782  58.231  1.00  0.00    -0.321 N 
HETATM    8  C   UNL     1       8.644  29.716  57.951  1.00  0.00     0.279 C 
HETATM    9  O   UNL     1       9.156  29.902  56.852  1.00  0.00    -0.265 OA
HETATM   10  H   UNL     1       7.313  28.812  59.184  1.00  0.00     0.169 HD
BRANCH   8  11
HETATM   11  C   UNL     1       9.014  30.502  59.115  1.00  0.00     0.142 A 
HETATM   12  O   UNL     1       8.725  30.028  60.371  1.00  0.00    -0.317 OA
HETATM   13  C   UNL     1       9.181  30.948  61.260  1.00  0.00     0.143 A 
HETATM   14  C   UNL     1       9.755  32.011  60.604  1.00  0.00     0.027 A 
HETATM   15  C   UNL     1       9.648  31.725  59.221  1.00  0.00     0.045 A 
ENDBRANCH   8  11
ENDBRANCH   5   7
BRANCH   3  16
HETATM   16  N   UNL     1       7.646  24.572  55.662  1.00  0.00    -0.259 NA
HETATM   17  C   UNL     1       6.944  23.805  54.893  1.00  0.00     0.146 C 
BRANCH  17  18
HETATM   18  C   UNL     1       7.503  22.560  54.439  1.00  0.00     0.049 A 
HETATM   19  N   UNL     1       7.778  21.503  55.276  1.00  0.00    -0.365 N 
HETATM   20  H   UNL     1       7.608  21.523  56.275  1.00  0.00     0.165 HD
HETATM   21  C   UNL     1       8.300  20.461  54.559  1.00  0.00     0.088 A 
HETATM   22  C   UNL     1       8.373  20.850  53.240  1.00  0.00     0.019 A 
HETATM   23  C   UNL     1       7.870  22.173  53.164  1.00  0.00     0.032 A 
ENDBRANCH  17  18
ENDBRANCH   3  16
TORSDOF 4
ENDMDL
MODEL 3
REMARK VINA RESULT:      -8.1      2.297      4.112
REMARK  4 active torsions:
REMARK  status: ('A' for Active; 'I' for Inactive)
REMARK    1  A    between atoms: C_3  and  N_4 
REMARK    2  A    between atoms: C_5  and  C_6 
REMARK    3  A    between atoms: C_13  and  N_14 
REMARK       I    between atoms: N_14  and  C_15 
REMARK    4  A    between atoms: C_15  and  C_16 
ROOT
HETATM    1  C   UNL     1      10.769  30.285  57.399  1.00  0.00     0.005 A 
HETATM    2  C   UNL     1      10.097  31.014  58.380  1.00  0.00     0.031 A 
HETATM    3  C   UNL     1       8.807  30.653  58.770  1.00  0.00     0.058 A 
HETATM    4  C   UNL     1       8.201  29.534  58.179  1.00  0.00     0.061 A 
HETATM    5  C   UNL     1       8.857  28.803  57.185  1.00  0.00     0.037 A 
HETATM    6  C   UNL     1      10.149  29.185  56.805  1.00  0.00     0.029 A 
ENDROOT
BRANCH   5   7
HETATM    7  N   UNL     1       8.302  27.685  56.535  1.00  0.00    -0.321 N 
HETATM    8  C   UNL     1       7.905  26.480  57.090  1.00  0.00     0.279 C 
HETATM    9  O   UNL     1       7.945  26.198  58.283  1.00  0.00    -0.265 OA
HETATM   10  H   UNL     1       8.140  27.762  55.536  1.00  0.00     0.169 HD
BRANCH   8  11
HETATM   11  C   UNL     1       7.394  25.551  56.096  1.00  0.00     0.142 A 
HETATM   12  O   UNL     1       6.211  25.828  55.457  1.00  0.00    -0.317 OA
HETATM   13  C   UNL     1       5.979  24.811  54.588  1.00  0.00     0.143 A 
HETATM   14  C   UNL     1       6.986  23.877  54.655  1.00  0.00     0.027 A 
HETATM   15  C   UNL     1       7.899  24.354  55.627  1.00  0.00     0.045 A 
ENDBRANCH   8  11
ENDBRANCH   5   7
BRANCH   3  16
HETATM   16  N   UNL     1       8.183  31.388  59.791  1.00  0.00    -0.259 NA
HETATM   17  C   UNL     1       8.218  30.886  60.983  1.00  0.00     0.146 C 
BRANCH  17  18
HETATM   18  C   UNL     1       7.607  31.604  62.067  1.00  0.00     0.049 A 
HETATM   19  N   UNL     1       6.249  31.629  62.290  1.00  0.00    -0.365 N 
HETATM   20  H   UNL     1       5.579  31.145  61.704  1.00  0.00     0.165 HD
HETATM   21  C   UNL     1       5.968  32.392  63.392  1.00  0.00     0.088 A 
HETATM   22  C   UNL     1       7.159  32.873  63.887  1.00  0.00     0.019 A 
HETATM   23  C   UNL     1       8.192  32.377  63.053  1.00  0.00     0.032 A 
ENDBRANCH  17  18
ENDBRANCH   3  16
TORSDOF 4
ENDMDL
MODEL 4
REMARK VINA RESULT:      -8.0      3.843      9.307
REMARK  4 active torsions:
REMARK  status: ('A' for Active; 'I' for Inactive)
REMARK    1  A    between atoms: C_3  and  N_4 
REMARK    2  A    between atoms: C_5  and  C_6 
REMARK    3  A    between atoms: C_13  and  N_14 
REMARK       I    between atoms: N_14  and  C_15 
REMARK    4  A    between atoms: C_15  and  C_16 
ROOT
HETATM    1  C   UNL     1      10.467  30.549  57.596  1.00  0.00     0.005 A 
HETATM    2  C   UNL     1       9.877  29.469  56.940  1.00  0.00     0.031 A 
HETATM    3  C   UNL     1       8.681  28.924  57.408  1.00  0.00     0.058 A 
HETATM    4  C   UNL     1       8.066  29.489  58.535  1.00  0.00     0.061 A 
HETATM    5  C   UNL     1       8.653  30.562  59.211  1.00  0.00     0.037 A 
HETATM    6  C   UNL     1       9.856  31.092  58.727  1.00  0.00     0.029 A 
ENDROOT
BRANCH   5   7
HETATM    7  N   UNL     1       8.104  31.164  60.358  1.00  0.00    -0.321 N 
HETATM    8  C   UNL     1       8.441  30.951  61.684  1.00  0.00     0.279 C 
HETATM    9  O   UNL     1       9.326  30.201  62.082  1.00  0.00    -0.265 OA
HETATM   10  H   UNL     1       7.386  31.867  60.215  1.00  0.00     0.169 HD
BRANCH   8  11
HETATM   11  C   UNL     1       7.637  31.746  62.598  1.00  0.00     0.142 A 
HETATM   12  O   UNL     1       6.269  31.662  62.543  1.00  0.00    -0.317 OA
HETATM   13  C   UNL     1       5.778  32.493  63.498  1.00  0.00     0.143 A 
HETATM   14  C   UNL     1       6.803  33.119  64.168  1.00  0.00     0.027 A 
HETATM   15  C   UNL     1       8.003  32.638  63.588  1.00  0.00     0.045 A 
ENDBRANCH   8  11
ENDBRANCH   5   7
BRANCH   3  16
HETATM   16  N   UNL     1       8.101  27.864  56.693  1.00  0.00    -0.259 NA
HETATM   17  C   UNL     1       8.381  26.665  57.087  1.00  0.00     0.146 C 
BRANCH  17  18
HETATM   18  C   UNL     1       7.803  25.544  56.398  1.00  0.00     0.049 A 
HETATM   19  N   UNL     1       7.022  25.667  55.271  1.00  0.00    -0.365 N 
HETATM   20  H   UNL     1       6.795  26.557  54.844  1.00  0.00     0.165 HD
HETATM   21  C   UNL     1       6.619  24.431  54.842  1.00  0.00     0.088 A 
HETATM   22  C   UNL     1       7.139  23.494  55.707  1.00  0.00     0.019 A 
HETATM   23  C   UNL     1       7.885  24.194  56.687  1.00  0.00     0.032 A 
ENDBRANCH  17  18
ENDBRANCH   3  16
TORSDOF 4
ENDMDL
MODEL 5
REMARK VINA RESULT:      -7.7      2.557      8.243
REMARK  4 active torsions:
REMARK  status: ('A' for Active; 'I' for Inactive)
REMARK    1  A    between atoms: C_3  and  N_4 
REMARK    2  A    between atoms: C_5  and  C_6 
REMARK    3  A    between atoms: C_13  and  N_14 
REMARK       I    between atoms: N_14  and  C_15 
REMARK    4  A    between atoms: C_15  and  C_16 
ROOT
HETATM    1  C   UNL     1       4.860  27.486  53.932  1.00  0.00     0.005 A 
HETATM    2  C   UNL     1       5.156  26.136  53.747  1.00  0.00     0.031 A 
HETATM    3  C   UNL     1       6.311  25.582  54.300  1.00  0.00     0.058 A 
HETATM    4  C   UNL     1       7.161  26.394  55.065  1.00  0.00     0.061 A 
HETATM    5  C   UNL     1       6.885  27.752  55.247  1.00  0.00     0.037 A 
HETATM    6  C   UNL     1       5.723  28.289  54.679  1.00  0.00     0.029 A 
ENDROOT
BRANCH   5   7
HETATM    7  N   UNL     1       7.702  28.630  55.982  1.00  0.00    -0.321 N 
HETATM    8  C   UNL     1       8.050  28.560  57.321  1.00  0.00     0.279 C 
HETATM    9  O   UNL     1       7.713  27.673  58.098  1.00  0.00    -0.265 OA
HETATM   10  H   UNL     1       8.122  29.404  55.479  1.00  0.00     0.169 HD
BRANCH   8  11
HETATM   11  C   UNL     1       8.901  29.663  57.733  1.00  0.00     0.142 A 
HETATM   12  O   UNL     1      10.124  29.834  57.133  1.00  0.00    -0.317 OA
HETATM   13  C   UNL     1      10.696  30.928  57.698  1.00  0.00     0.143 A 
HETATM   14  C   UNL     1       9.870  31.466  58.656  1.00  0.00     0.027 A 
HETATM   15  C   UNL     1       8.712  30.651  58.680  1.00  0.00     0.045 A 
ENDBRANCH   8  11
ENDBRANCH   5   7
BRANCH   3  16
HETATM   16  N   UNL     1       6.548  24.209  54.124  1.00  0.00    -0.259 NA
HETATM   17  C   UNL     1       7.778  23.812  54.185  1.00  0.00     0.146 C 
BRANCH  17  18
HETATM   18  C   UNL     1       8.075  22.415  54.024  1.00  0.00     0.049 A 
HETATM   19  N   UNL     1       8.555  21.620  55.041  1.00  0.00    -0.365 N 
HETATM   20  H   UNL     1       8.735  21.961  55.977  1.00  0.00     0.165 HD
HETATM   21  C   UNL     1       8.741  20.342  54.588  1.00  0.00     0.088 A 
HETATM   22  C   UNL     1       8.384  20.308  53.258  1.00  0.00     0.019 A 
HETATM   23  C   UNL     1       7.965  21.614  52.903  1.00  0.00     0.032 A 
ENDBRANCH  17  18
ENDBRANCH   3  16
TORSDOF 4
ENDMDL
MODEL 6
REMARK VINA RESULT:      -7.7      4.577      7.725
REMARK  4 active torsions:
REMARK  status: ('A' for Active; 'I' for Inactive)
REMARK    1  A    between atoms: C_3  and  N_4 
REMARK    2  A    between atoms: C_5  and  C_6 
REMARK    3  A    between atoms: C_13  and  N_14 
REMARK       I    between atoms: N_14  and  C_15 
REMARK    4  A    between atoms: C_15  and  C_16 
ROOT
HETATM    1  C   UNL     1       7.115  27.887  53.906  1.00  0.00     0.005 A 
HETATM    2  C   UNL     1       6.203  27.989  52.857  1.00  0.00     0.031 A 
HETATM    3  C   UNL     1       5.582  26.849  52.346  1.00  0.00     0.058 A 
HETATM    4  C   UNL     1       5.869  25.599  52.914  1.00  0.00     0.061 A 
HETATM    5  C   UNL     1       6.793  25.480  53.957  1.00  0.00     0.037 A 
HETATM    6  C   UNL     1       7.408  26.636  54.452  1.00  0.00     0.029 A 
ENDROOT
BRANCH   5   7
HETATM    7  N   UNL     1       7.144  24.258  54.560  1.00  0.00    -0.321 N 
HETATM    8  C   UNL     1       7.825  23.190  54.001  1.00  0.00     0.279 C 
HETATM    9  O   UNL     1       8.273  23.149  52.859  1.00  0.00    -0.265 OA
HETATM   10  H   UNL     1       6.901  24.136  55.537  1.00  0.00     0.169 HD
BRANCH   8  11
HETATM   11  C   UNL     1       7.988  22.086  54.931  1.00  0.00     0.142 A 
HETATM   12  O   UNL     1       8.381  22.341  56.221  1.00  0.00    -0.317 OA
HETATM   13  C   UNL     1       8.446  21.145  56.863  1.00  0.00     0.143 A 
HETATM   14  C   UNL     1       8.107  20.120  56.012  1.00  0.00     0.027 A 
HETATM   15  C   UNL     1       7.812  20.725  54.766  1.00  0.00     0.045 A 
ENDBRANCH   8  11
ENDBRANCH   5   7
BRANCH   3  16
HETATM   16  N   UNL     1       4.638  27.002  51.317  1.00  0.00    -0.259 NA
HETATM   17  C   UNL     1       4.935  26.494  50.165  1.00  0.00     0.146 C 
BRANCH  17  18
HETATM   18  C   UNL     1       3.999  26.611  49.081  1.00  0.00     0.049 A 
HETATM   19  N   UNL     1       2.844  27.356  49.154  1.00  0.00    -0.365 N 
HETATM   20  H   UNL     1       2.566  27.875  49.978  1.00  0.00     0.165 HD
HETATM   21  C   UNL     1       2.159  27.277  47.971  1.00  0.00     0.088 A 
HETATM   22  C   UNL     1       2.877  26.464  47.121  1.00  0.00     0.019 A 
HETATM   23  C   UNL     1       4.036  26.045  47.820  1.00  0.00     0.032 A 
ENDBRANCH  17  18
ENDBRANCH   3  16
TORSDOF 4
ENDMDL
MODEL 7
REMARK VINA RESULT:      -7.5      5.461      8.615
REMARK  4 active torsions:
REMARK  status: ('A' for Active; 'I' for Inactive)
REMARK    1  A    between atoms: C_3  and  N_4 
REMARK    2  A    between atoms: C_5  and  C_6 
REMARK    3  A    between atoms: C_13  and  N_14 
REMARK       I    between atoms: N_14  and  C_15 
REMARK    4  A    between atoms: C_15  and  C_16 
ROOT
HETATM    1  C   UNL     1       6.568  28.133  53.203  1.00  0.00     0.005 A 
HETATM    2  C   UNL     1       7.258  26.969  53.541  1.00  0.00     0.031 A 
HETATM    3  C   UNL     1       6.974  25.765  52.895  1.00  0.00     0.058 A 
HETATM    4  C   UNL     1       6.002  25.744  51.884  1.00  0.00     0.061 A 
HETATM    5  C   UNL     1       5.292  26.899  51.545  1.00  0.00     0.037 A 
HETATM    6  C   UNL     1       5.589  28.096  52.209  1.00  0.00     0.029 A 
ENDROOT
BRANCH   5   7
HETATM    7  N   UNL     1       4.290  26.946  50.558  1.00  0.00    -0.321 N 
HETATM    8  C   UNL     1       4.365  27.485  49.285  1.00  0.00     0.279 C 
HETATM    9  O   UNL     1       5.361  27.997  48.786  1.00  0.00    -0.265 OA
HETATM   10  H   UNL     1       3.401  26.511  50.779  1.00  0.00     0.169 HD
BRANCH   8  11
HETATM   11  C   UNL     1       3.114  27.363  48.555  1.00  0.00     0.142 A 
HETATM   12  O   UNL     1       3.087  26.674  47.369  1.00  0.00    -0.317 OA
HETATM   13  C   UNL     1       1.808  26.712  46.914  1.00  0.00     0.143 A 
HETATM   14  C   UNL     1       1.007  27.417  47.780  1.00  0.00     0.027 A 
HETATM   15  C   UNL     1       1.847  27.838  48.839  1.00  0.00     0.045 A 
ENDBRANCH   8  11
ENDBRANCH   5   7
BRANCH   3  16
HETATM   16  N   UNL     1       7.722  24.627  53.237  1.00  0.00    -0.259 NA
HETATM   17  C   UNL     1       7.064  23.535  53.457  1.00  0.00     0.146 C 
BRANCH  17  18
HETATM   18  C   UNL     1       7.782  22.337  53.799  1.00  0.00     0.049 A 
HETATM   19  N   UNL     1       8.470  22.176  54.979  1.00  0.00    -0.365 N 
HETATM   20  H   UNL     1       8.525  22.891  55.695  1.00  0.00     0.165 HD
HETATM   21  C   UNL     1       9.049  20.936  55.019  1.00  0.00     0.088 A 
HETATM   22  C   UNL     1       8.737  20.287  53.846  1.00  0.00     0.019 A 
HETATM   23  C   UNL     1       7.938  21.169  53.076  1.00  0.00     0.032 A 
ENDBRANCH  17  18
ENDBRANCH   3  16
TORSDOF 4
ENDMDL
MODEL 8
REMARK VINA RESULT:      -7.5      5.047      8.027
REMARK  4 active torsions:
REMARK  status: ('A' for Active; 'I' for Inactive)
REMARK    1  A    between atoms: C_3  and  N_4 
REMARK    2  A    between atoms: C_5  and  C_6 
REMARK    3  A    between atoms: C_13  and  N_14 
REMARK       I    between atoms: N_14  and  C_15 
REMARK    4  A    between atoms: C_15  and  C_16 
ROOT
HETATM    1  C   UNL     1       6.942  27.941  53.409  1.00  0.00     0.005 A 
HETATM    2  C   UNL     1       6.010  28.279  52.427  1.00  0.00     0.031 A 
HETATM    3  C   UNL     1       5.457  27.294  51.608  1.00  0.00     0.058 A 
HETATM    4  C   UNL     1       5.833  25.955  51.798  1.00  0.00     0.061 A 
HETATM    5  C   UNL     1       6.776  25.605  52.767  1.00  0.00     0.037 A 
HETATM    6  C   UNL     1       7.322  26.609  53.576  1.00  0.00     0.029 A 
ENDROOT
BRANCH   5   7
HETATM    7  N   UNL     1       7.215  24.288  52.998  1.00  0.00    -0.321 N 
HETATM    8  C   UNL     1       7.140  23.551  54.168  1.00  0.00     0.279 C 
HETATM    9  O   UNL     1       6.634  23.932  55.218  1.00  0.00    -0.265 OA
HETATM   10  H   UNL     1       7.616  23.788  52.211  1.00  0.00     0.169 HD
BRANCH   8  11
HETATM   11  C   UNL     1       7.718  22.225  54.029  1.00  0.00     0.142 A 
HETATM   12  O   UNL     1       7.949  21.466  55.149  1.00  0.00    -0.317 OA
HETATM   13  C   UNL     1       8.480  20.288  54.731  1.00  0.00     0.143 A 
HETATM   14  C   UNL     1       8.602  20.271  53.362  1.00  0.00     0.027 A 
HETATM   15  C   UNL     1       8.111  21.519  52.907  1.00  0.00     0.045 A 
ENDBRANCH   8  11
ENDBRANCH   5   7
BRANCH   3  16
HETATM   16  N   UNL     1       4.492  27.672  50.661  1.00  0.00    -0.259 NA
HETATM   17  C   UNL     1       4.305  26.874  49.660  1.00  0.00     0.146 C 
BRANCH  17  18
HETATM   18  C   UNL     1       3.319  27.207  48.668  1.00  0.00     0.049 A 
HETATM   19  N   UNL     1       2.217  26.427  48.404  1.00  0.00    -0.365 N 
HETATM   20  H   UNL     1       2.019  25.559  48.887  1.00  0.00     0.165 HD
HETATM   21  C   UNL     1       1.464  27.000  47.414  1.00  0.00     0.088 A 
HETATM   22  C   UNL     1       2.091  28.163  47.027  1.00  0.00     0.019 A 
HETATM   23  C   UNL     1       3.260  28.294  47.817  1.00  0.00     0.032 A 
ENDBRANCH  17  18
ENDBRANCH   3  16
TORSDOF 4
ENDMDL
MODEL 9
REMARK VINA RESULT:      -7.4      5.665      8.465
REMARK  4 active torsions:
REMARK  status: ('A' for Active; 'I' for Inactive)
REMARK    1  A    between atoms: C_3  and  N_4 
REMARK    2  A    between atoms: C_5  and  C_6 
REMARK    3  A    between atoms: C_13  and  N_14 
REMARK       I    between atoms: N_14  and  C_15 
REMARK    4  A    between atoms: C_15  and  C_16 
ROOT
HETATM    1  C   UNL     1       4.421  33.192  60.752  1.00  0.00     0.005 A 
HETATM    2  C   UNL     1       4.585  33.240  62.136  1.00  0.00     0.031 A 
HETATM    3  C   UNL     1       5.685  32.629  62.740  1.00  0.00     0.058 A 
HETATM    4  C   UNL     1       6.636  31.983  61.936  1.00  0.00     0.061 A 
HETATM    5  C   UNL     1       6.476  31.914  60.549  1.00  0.00     0.037 A 
HETATM    6  C   UNL     1       5.363  32.530  59.964  1.00  0.00     0.029 A 
ENDROOT
BRANCH   5   7
HETATM    7  N   UNL     1       7.378  31.266  59.684  1.00  0.00    -0.321 N 
HETATM    8  C   UNL     1       8.630  31.693  59.273  1.00  0.00     0.279 C 
HETATM    9  O   UNL     1       9.184  32.725  59.635  1.00  0.00    -0.265 OA
HETATM   10  H   UNL     1       7.105  30.356  59.327  1.00  0.00     0.169 HD
BRANCH   8  11
HETATM   11  C   UNL     1       9.262  30.759  58.356  1.00  0.00     0.142 A 
HETATM   12  O   UNL     1      10.488  31.063  57.821  1.00  0.00    -0.317 OA
HETATM   13  C   UNL     1      10.840  30.027  57.016  1.00  0.00     0.143 A 
HETATM   14  C   UNL     1       9.863  29.060  57.016  1.00  0.00     0.027 A 
HETATM   15  C   UNL     1       8.844  29.531  57.880  1.00  0.00     0.045 A 
ENDBRANCH   8  11
ENDBRANCH   5   7
BRANCH   3  16
HETATM   16  N   UNL     1       5.834  32.738  64.132  1.00  0.00    -0.259 NA
HETATM   17  C   UNL     1       5.547  33.881  64.666  1.00  0.00     0.146 C 
BRANCH  17  18
HETATM   18  C   UNL     1       5.670  34.043  66.089  1.00  0.00     0.049 A 
HETATM   19  N   UNL     1       4.595  34.034  66.949  1.00  0.00    -0.365 N 
HETATM   20  H   UNL     1       3.637  33.913  66.643  1.00  0.00     0.165 HD
HETATM   21  C   UNL     1       5.024  34.210  68.237  1.00  0.00     0.088 A 
HETATM   22  C   UNL     1       6.394  34.343  68.212  1.00  0.00     0.019 A 
HETATM   23  C   UNL     1       6.802  34.238  66.858  1.00  0.00     0.032 A 
ENDBRANCH  17  18
ENDBRANCH   3  16
TORSDOF 4
ENDMDL
MODEL 10
REMARK VINA RESULT:      -7.3      1.516      2.077
REMARK  4 active torsions:
REMARK  status: ('A' for Active; 'I' for Inactive)
REMARK    1  A    between atoms: C_3  and  N_4 
REMARK    2  A    between atoms: C_5  and  C_6 
REMARK    3  A    between atoms: C_13  and  N_14 
REMARK       I    between atoms: N_14  and  C_15 
REMARK    4  A    between atoms: C_15  and  C_16 
ROOT
HETATM    1  C   UNL     1       4.684  27.055  53.560  1.00  0.00     0.005 A 
HETATM    2  C   UNL     1       5.149  27.947  54.525  1.00  0.00     0.031 A 
HETATM    3  C   UNL     1       6.192  27.586  55.379  1.00  0.00     0.058 A 
HETATM    4  C   UNL     1       6.783  26.321  55.240  1.00  0.00     0.061 A 
HETATM    5  C   UNL     1       6.317  25.411  54.288  1.00  0.00     0.037 A 
HETATM    6  C   UNL     1       5.267  25.792  53.444  1.00  0.00     0.029 A 
ENDROOT
BRANCH   5   7
HETATM    7  N   UNL     1       6.848  24.120  54.107  1.00  0.00    -0.321 N 
HETATM    8  C   UNL     1       7.310  23.240  55.071  1.00  0.00     0.279 C 
HETATM    9  O   UNL     1       7.302  23.441  56.281  1.00  0.00    -0.265 OA
HETATM   10  H   UNL     1       6.878  23.759  53.159  1.00  0.00     0.169 HD
BRANCH   8  11
HETATM   11  C   UNL     1       7.805  21.999  54.500  1.00  0.00     0.142 A 
HETATM   12  O   UNL     1       7.707  21.791  53.147  1.00  0.00    -0.317 OA
HETATM   13  C   UNL     1       8.245  20.570  52.891  1.00  0.00     0.143 A 
HETATM   14  C   UNL     1       8.684  19.981  54.053  1.00  0.00     0.027 A 
HETATM   15  C   UNL     1       8.401  20.901  55.091  1.00  0.00     0.045 A 
ENDBRANCH   8  11
ENDBRANCH   5   7
BRANCH   3  16
HETATM   16  N   UNL     1       6.658  28.530  56.308  1.00  0.00    -0.259 NA
HETATM   17  C   UNL     1       7.813  28.307  56.845  1.00  0.00     0.146 C 
BRANCH  17  18
HETATM   18  C   UNL     1       8.343  29.249  57.793  1.00  0.00     0.049 A 
HETATM   19  N   UNL     1       7.714  29.571  58.975  1.00  0.00    -0.365 N 
HETATM   20  H   UNL     1       6.830  29.169  59.263  1.00  0.00     0.165 HD
HETATM   21  C   UNL     1       8.456  30.491  59.665  1.00  0.00     0.088 A 
HETATM   22  C   UNL     1       9.578  30.775  58.918  1.00  0.00     0.019 A 
HETATM   23  C   UNL     1       9.507  29.993  57.739  1.00  0.00     0.032 A 
ENDBRANCH  17  18
ENDBRANCH   3  16
TORSDOF 4
ENDMDL
