MODEL 1
REMARK VINA RESULT:      -9.6      0.000      0.000
REMARK  9 active torsions:
REMARK  status: ('A' for Active; 'I' for Inactive)
REMARK    1  A    between atoms: C_2  and  O_3 
REMARK    2  A    between atoms: O_3  and  C_4 
REMARK    3  A    between atoms: C_5  and  O_6 
REMARK    4  A    between atoms: O_6  and  C_7 
REMARK    5  A    between atoms: C_7  and  C_8 
REMARK       I    between atoms: C_8  and  N_9 
REMARK    6  A    between atoms: N_9  and  C_10 
REMARK    7  A    between atoms: C_19  and  C_20 
REMARK    8  A    between atoms: C_21  and  C_22 
REMARK    9  A    between atoms: C_27  and  C_28 
ROOT
HETATM    1  C   UNL     1       5.199  32.589  63.214  1.00  0.00     0.102 A 
HETATM    2  C   UNL     1       5.630  33.086  64.460  1.00  0.00     0.102 A 
HETATM    3  C   UNL     1       6.996  33.200  64.727  1.00  0.00     0.040 A 
HETATM    4  C   UNL     1       7.932  32.857  63.748  1.00  0.00     0.014 A 
HETATM    5  C   UNL     1       7.514  32.395  62.496  1.00  0.00    -0.033 A 
HETATM    6  C   UNL     1       6.145  32.240  62.245  1.00  0.00     0.051 A 
ENDROOT
BRANCH   2   7
HETATM    7  O   UNL     1       4.634  33.443  65.338  1.00  0.00    -0.339 OA
BRANCH   7   8
HETATM    8  C   UNL     1       4.892  34.503  66.249  1.00  0.00     0.278 C 
BRANCH   8   9
HETATM    9  C   UNL     1       5.111  34.093  67.713  1.00  0.00     0.246 C 
HETATM   10  N   UNL     1       6.415  34.296  68.133  1.00  0.00    -0.325 N 
HETATM   11  H   UNL     1       7.053  34.629  67.415  1.00  0.00     0.169 HD
HETATM   12  O   UNL     1       4.176  33.675  68.391  1.00  0.00    -0.271 OA
BRANCH  10  13
HETATM   13  C   UNL     1       6.978  34.008  69.390  1.00  0.00     0.034 A 
HETATM   14  C   UNL     1       6.506  33.013  70.247  1.00  0.00     0.029 A 
HETATM   15  C   UNL     1       7.129  32.786  71.479  1.00  0.00     0.002 A 
HETATM   16  C   UNL     1       8.228  33.552  71.863  1.00  0.00     0.000 A 
HETATM   17  C   UNL     1       8.705  34.546  71.014  1.00  0.00     0.002 A 
HETATM   18  C   UNL     1       8.083  34.773  69.784  1.00  0.00     0.029 A 
ENDBRANCH  10  13
ENDBRANCH   8   9
ENDBRANCH   7   8
ENDBRANCH   2   7
BRANCH   1  19
HETATM   19  O   UNL     1       3.839  32.530  63.030  1.00  0.00    -0.349 OA
BRANCH  19  20
HETATM   20  C   UNL     1       3.240  33.535  62.215  1.00  0.00     0.171 C 
HETATM   21  C   UNL     1       2.048  34.098  62.968  1.00  0.00     0.034 C 
ENDBRANCH  19  20
ENDBRANCH   1  19
BRANCH   5  22
HETATM   22  C   UNL     1       8.475  32.070  61.439  1.00  0.00     0.014 C 
HETATM   23  C   UNL     1       8.092  31.771  60.185  1.00  0.00     0.035 C 
BRANCH  23  24
HETATM   24  C   UNL     1       8.978  31.393  59.122  1.00  0.00     0.091 A 
HETATM   25  N   UNL     1      10.080  32.090  58.798  1.00  0.00    -0.175 NA
HETATM   26  N   UNL     1      10.628  31.411  57.786  1.00  0.00    -0.288 N 
HETATM   27  H   UNL     1      11.488  31.768  57.380  1.00  0.00     0.188 HD
HETATM   28  C   UNL     1       9.928  30.297  57.438  1.00  0.00     0.126 A 
HETATM   29  C   UNL     1       8.837  30.247  58.284  1.00  0.00     0.049 A 
BRANCH  29  30
HETATM   30  C   UNL     1       7.821  29.216  58.254  1.00  0.00     0.273 C 
HETATM   31  O   UNL     1       8.049  28.011  58.210  1.00  0.00    -0.301 OA
ENDBRANCH  29  30
ENDBRANCH  23  24
ENDBRANCH   5  22
TORSDOF 9
ENDMDL
MODEL 2
REMARK VINA RESULT:      -9.1      5.317      9.106
REMARK  9 active torsions:
REMARK  status: ('A' for Active; 'I' for Inactive)
REMARK    1  A    between atoms: C_2  and  O_3 
REMARK    2  A    between atoms: O_3  and  C_4 
REMARK    3  A    between atoms: C_5  and  O_6 
REMARK    4  A    between atoms: O_6  and  C_7 
REMARK    5  A    between atoms: C_7  and  C_8 
REMARK       I    between atoms: C_8  and  N_9 
REMARK    6  A    between atoms: N_9  and  C_10 
REMARK    7  A    between atoms: C_19  and  C_20 
REMARK    8  A    between atoms: C_21  and  C_22 
REMARK    9  A    between atoms: C_27  and  C_28 
ROOT
HETATM    1  C   UNL     1       5.940  27.789  57.025  1.00  0.00     0.102 A 
HETATM    2  C   UNL     1       7.165  28.238  57.559  1.00  0.00     0.102 A 
HETATM    3  C   UNL     1       8.307  27.444  57.438  1.00  0.00     0.040 A 
HETATM    4  C   UNL     1       8.245  26.226  56.757  1.00  0.00     0.014 A 
HETATM    5  C   UNL     1       7.043  25.787  56.194  1.00  0.00    -0.033 A 
HETATM    6  C   UNL     1       5.888  26.563  56.353  1.00  0.00     0.051 A 
ENDROOT
BRANCH   2   7
HETATM    7  O   UNL     1       7.136  29.471  58.166  1.00  0.00    -0.339 OA
BRANCH   7   8
HETATM    8  C   UNL     1       8.331  30.239  58.181  1.00  0.00     0.278 C 
BRANCH   8   9
HETATM    9  C   UNL     1       8.402  31.352  59.237  1.00  0.00     0.246 C 
HETATM   10  N   UNL     1       7.618  31.083  60.346  1.00  0.00    -0.325 N 
HETATM   11  H   UNL     1       7.068  30.230  60.290  1.00  0.00     0.169 HD
HETATM   12  O   UNL     1       9.129  32.328  59.067  1.00  0.00    -0.271 OA
BRANCH  10  13
HETATM   13  C   UNL     1       7.418  31.886  61.484  1.00  0.00     0.034 A 
HETATM   14  C   UNL     1       8.230  31.849  62.618  1.00  0.00     0.029 A 
HETATM   15  C   UNL     1       7.967  32.688  63.707  1.00  0.00     0.002 A 
HETATM   16  C   UNL     1       6.888  33.569  63.669  1.00  0.00     0.000 A 
HETATM   17  C   UNL     1       6.073  33.613  62.542  1.00  0.00     0.002 A 
HETATM   18  C   UNL     1       6.336  32.776  61.455  1.00  0.00     0.029 A 
ENDBRANCH  10  13
ENDBRANCH   8   9
ENDBRANCH   7   8
ENDBRANCH   2   7
BRANCH   1  19
HETATM   19  O   UNL     1       4.874  28.642  57.172  1.00  0.00    -0.349 OA
BRANCH  19  20
HETATM   20  C   UNL     1       4.077  28.904  56.019  1.00  0.00     0.171 C 
HETATM   21  C   UNL     1       4.653  30.123  55.321  1.00  0.00     0.034 C 
ENDBRANCH  19  20
ENDBRANCH   1  19
BRANCH   5  22
HETATM   22  C   UNL     1       6.962  24.534  55.439  1.00  0.00     0.014 C 
HETATM   23  C   UNL     1       7.976  23.651  55.398  1.00  0.00     0.035 C 
BRANCH  23  24
HETATM   24  C   UNL     1       7.979  22.435  54.636  1.00  0.00     0.091 A 
HETATM   25  N   UNL     1       7.612  22.375  53.345  1.00  0.00    -0.175 NA
HETATM   26  N   UNL     1       7.770  21.091  53.006  1.00  0.00    -0.288 N 
HETATM   27  H   UNL     1       7.546  20.817  52.054  1.00  0.00     0.188 HD
HETATM   28  C   UNL     1       8.227  20.313  54.024  1.00  0.00     0.126 A 
HETATM   29  C   UNL     1       8.375  21.150  55.114  1.00  0.00     0.049 A 
BRANCH  29  30
HETATM   30  C   UNL     1       8.839  20.728  56.419  1.00  0.00     0.273 C 
HETATM   31  O   UNL     1       8.327  21.060  57.482  1.00  0.00    -0.301 OA
ENDBRANCH  29  30
ENDBRANCH  23  24
ENDBRANCH   5  22
TORSDOF 9
ENDMDL
MODEL 3
REMARK VINA RESULT:      -9.0      5.496      9.743
REMARK  9 active torsions:
REMARK  status: ('A' for Active; 'I' for Inactive)
REMARK    1  A    between atoms: C_2  and  O_3 
REMARK    2  A    between atoms: O_3  and  C_4 
REMARK    3  A    between atoms: C_5  and  O_6 
REMARK    4  A    between atoms: O_6  and  C_7 
REMARK    5  A    between atoms: C_7  and  C_8 
REMARK       I    between atoms: C_8  and  N_9 
REMARK    6  A    between atoms: N_9  and  C_10 
REMARK    7  A    between atoms: C_19  and  C_20 
REMARK    8  A    between atoms: C_21  and  C_22 
REMARK    9  A    between atoms: C_27  and  C_28 
ROOT
HETATM    1  C   UNL     1       8.192  28.107  56.969  1.00  0.00     0.102 A 
HETATM    2  C   UNL     1       7.130  28.607  56.189  1.00  0.00     0.102 A 
HETATM    3  C   UNL     1       6.286  27.720  55.517  1.00  0.00     0.040 A 
HETATM    4  C   UNL     1       6.470  26.342  55.648  1.00  0.00     0.014 A 
HETATM    5  C   UNL     1       7.498  25.835  56.447  1.00  0.00    -0.033 A 
HETATM    6  C   UNL     1       8.372  26.724  57.086  1.00  0.00     0.051 A 
ENDROOT
BRANCH   2   7
HETATM    7  O   UNL     1       7.001  29.975  56.162  1.00  0.00    -0.339 OA
BRANCH   7   8
HETATM    8  C   UNL     1       5.909  30.559  56.859  1.00  0.00     0.278 C 
BRANCH   8   9
HETATM    9  C   UNL     1       6.276  31.492  58.022  1.00  0.00     0.246 C 
HETATM   10  N   UNL     1       6.966  30.839  59.029  1.00  0.00    -0.325 N 
HETATM   11  H   UNL     1       7.087  29.839  58.893  1.00  0.00     0.169 HD
HETATM   12  O   UNL     1       5.991  32.686  57.979  1.00  0.00    -0.271 OA
BRANCH  10  13
HETATM   13  C   UNL     1       7.430  31.367  60.248  1.00  0.00     0.034 A 
HETATM   14  C   UNL     1       6.769  32.361  60.970  1.00  0.00     0.029 A 
HETATM   15  C   UNL     1       7.294  32.827  62.181  1.00  0.00     0.002 A 
HETATM   16  C   UNL     1       8.486  32.303  62.677  1.00  0.00     0.000 A 
HETATM   17  C   UNL     1       9.153  31.311  61.963  1.00  0.00     0.002 A 
HETATM   18  C   UNL     1       8.628  30.846  60.755  1.00  0.00     0.029 A 
ENDBRANCH  10  13
ENDBRANCH   8   9
ENDBRANCH   7   8
ENDBRANCH   2   7
BRANCH   1  19
HETATM   19  O   UNL     1       8.959  29.048  57.610  1.00  0.00    -0.349 OA
BRANCH  19  20
HETATM   20  C   UNL     1      10.234  29.353  57.048  1.00  0.00     0.171 C 
HETATM   21  C   UNL     1      10.639  30.735  57.532  1.00  0.00     0.034 C 
ENDBRANCH  19  20
ENDBRANCH   1  19
BRANCH   5  22
HETATM   22  C   UNL     1       7.685  24.394  56.635  1.00  0.00     0.014 C 
HETATM   23  C   UNL     1       8.152  23.596  55.658  1.00  0.00     0.035 C 
BRANCH  23  24
HETATM   24  C   UNL     1       8.307  22.173  55.762  1.00  0.00     0.091 A 
HETATM   25  N   UNL     1       8.495  21.535  56.930  1.00  0.00    -0.175 NA
HETATM   26  N   UNL     1       8.573  20.241  56.602  1.00  0.00    -0.288 N 
HETATM   27  H   UNL     1       8.716  19.567  57.348  1.00  0.00     0.188 HD
HETATM   28  C   UNL     1       8.440  20.010  55.268  1.00  0.00     0.126 A 
HETATM   29  C   UNL     1       8.268  21.247  54.677  1.00  0.00     0.049 A 
BRANCH  29  30
HETATM   30  C   UNL     1       8.092  21.461  53.256  1.00  0.00     0.273 C 
HETATM   31  O   UNL     1       8.240  20.599  52.396  1.00  0.00    -0.301 OA
ENDBRANCH  29  30
ENDBRANCH  23  24
ENDBRANCH   5  22
TORSDOF 9
ENDMDL
MODEL 4
REMARK VINA RESULT:      -8.9      2.136     10.197
REMARK  9 active torsions:
REMARK  status: ('A' for Active; 'I' for Inactive)
REMARK    1  A    between atoms: C_2  and  O_3 
REMARK    2  A    between atoms: O_3  and  C_4 
REMARK    3  A    between atoms: C_5  and  O_6 
REMARK    4  A    between atoms: O_6  and  C_7 
REMARK    5  A    between atoms: C_7  and  C_8 
REMARK       I    between atoms: C_8  and  N_9 
REMARK    6  A    between atoms: N_9  and  C_10 
REMARK    7  A    between atoms: C_19  and  C_20 
REMARK    8  A    between atoms: C_21  and  C_22 
REMARK    9  A    between atoms: C_27  and  C_28 
ROOT
HETATM    1  C   UNL     1       4.724  33.537  64.251  1.00  0.00     0.102 A 
HETATM    2  C   UNL     1       6.020  33.362  63.727  1.00  0.00     0.102 A 
HETATM    3  C   UNL     1       7.133  33.561  64.547  1.00  0.00     0.040 A 
HETATM    4  C   UNL     1       6.961  33.895  65.892  1.00  0.00     0.014 A 
HETATM    5  C   UNL     1       5.679  34.037  66.431  1.00  0.00    -0.033 A 
HETATM    6  C   UNL     1       4.565  33.880  65.598  1.00  0.00     0.051 A 
ENDROOT
BRANCH   2   7
HETATM    7  O   UNL     1       6.085  32.985  62.407  1.00  0.00    -0.339 OA
BRANCH   7   8
HETATM    8  C   UNL     1       6.875  31.852  62.071  1.00  0.00     0.278 C 
BRANCH   8   9
HETATM    9  C   UNL     1       7.209  31.683  60.582  1.00  0.00     0.246 C 
HETATM   10  N   UNL     1       8.031  30.595  60.342  1.00  0.00    -0.325 N 
HETATM   11  H   UNL     1       8.343  30.097  61.172  1.00  0.00     0.169 HD
HETATM   12  O   UNL     1       6.731  32.443  59.744  1.00  0.00    -0.271 OA
BRANCH  10  13
HETATM   13  C   UNL     1       8.560  30.159  59.113  1.00  0.00     0.034 A 
HETATM   14  C   UNL     1       7.948  29.210  58.293  1.00  0.00     0.029 A 
HETATM   15  C   UNL     1       8.537  28.836  57.080  1.00  0.00     0.002 A 
HETATM   16  C   UNL     1       9.742  29.408  56.679  1.00  0.00     0.000 A 
HETATM   17  C   UNL     1      10.360  30.356  57.490  1.00  0.00     0.002 A 
HETATM   18  C   UNL     1       9.771  30.729  58.701  1.00  0.00     0.029 A 
ENDBRANCH  10  13
ENDBRANCH   8   9
ENDBRANCH   7   8
ENDBRANCH   2   7
BRANCH   1  19
HETATM   19  O   UNL     1       3.688  33.301  63.380  1.00  0.00    -0.349 OA
BRANCH  19  20
HETATM   20  C   UNL     1       2.595  34.216  63.394  1.00  0.00     0.171 C 
HETATM   21  C   UNL     1       3.024  35.468  62.649  1.00  0.00     0.034 C 
ENDBRANCH  19  20
ENDBRANCH   1  19
BRANCH   5  22
HETATM   22  C   UNL     1       5.473  34.345  67.849  1.00  0.00     0.014 C 
HETATM   23  C   UNL     1       6.496  34.501  68.708  1.00  0.00     0.035 C 
BRANCH  23  24
HETATM   24  C   UNL     1       6.359  34.750  70.114  1.00  0.00     0.091 A 
HETATM   25  N   UNL     1       5.545  34.038  70.913  1.00  0.00    -0.175 NA
HETATM   26  N   UNL     1       5.717  34.564  72.130  1.00  0.00    -0.288 N 
HETATM   27  H   UNL     1       5.189  34.167  72.901  1.00  0.00     0.188 HD
HETATM   28  C   UNL     1       6.612  35.588  72.157  1.00  0.00     0.126 A 
HETATM   29  C   UNL     1       7.055  35.749  70.858  1.00  0.00     0.049 A 
BRANCH  29  30
HETATM   30  C   UNL     1       8.020  36.742  70.436  1.00  0.00     0.273 C 
HETATM   31  O   UNL     1       8.128  37.862  70.923  1.00  0.00    -0.301 OA
ENDBRANCH  29  30
ENDBRANCH  23  24
ENDBRANCH   5  22
TORSDOF 9
ENDMDL
MODEL 5
REMARK VINA RESULT:      -8.8      5.753      9.952
REMARK  9 active torsions:
REMARK  status: ('A' for Active; 'I' for Inactive)
REMARK    1  A    between atoms: C_2  and  O_3 
REMARK    2  A    between atoms: O_3  and  C_4 
REMARK    3  A    between atoms: C_5  and  O_6 
REMARK    4  A    between atoms: O_6  and  C_7 
REMARK    5  A    between atoms: C_7  and  C_8 
REMARK       I    between atoms: C_8  and  N_9 
REMARK    6  A    between atoms: N_9  and  C_10 
REMARK    7  A    between atoms: C_19  and  C_20 
REMARK    8  A    between atoms: C_21  and  C_22 
REMARK    9  A    between atoms: C_27  and  C_28 
ROOT
HETATM    1  C   UNL     1       7.199  28.148  56.112  1.00  0.00     0.102 A 
HETATM    2  C   UNL     1       6.106  28.815  55.522  1.00  0.00     0.102 A 
HETATM    3  C   UNL     1       5.206  28.103  54.727  1.00  0.00     0.040 A 
HETATM    4  C   UNL     1       5.366  26.727  54.547  1.00  0.00     0.014 A 
HETATM    5  C   UNL     1       6.427  26.050  55.155  1.00  0.00    -0.033 A 
HETATM    6  C   UNL     1       7.354  26.771  55.917  1.00  0.00     0.051 A 
ENDROOT
BRANCH   2   7
HETATM    7  O   UNL     1       6.006  30.158  55.798  1.00  0.00    -0.339 OA
BRANCH   7   8
HETATM    8  C   UNL     1       5.238  30.555  56.926  1.00  0.00     0.278 C 
BRANCH   8   9
HETATM    9  C   UNL     1       5.947  31.474  57.933  1.00  0.00     0.246 C 
HETATM   10  N   UNL     1       6.643  30.767  58.899  1.00  0.00    -0.325 N 
HETATM   11  H   UNL     1       6.548  29.756  58.847  1.00  0.00     0.169 HD
HETATM   12  O   UNL     1       5.892  32.694  57.810  1.00  0.00    -0.271 OA
BRANCH  10  13
HETATM   13  C   UNL     1       7.377  31.274  59.987  1.00  0.00     0.034 A 
HETATM   14  C   UNL     1       6.829  32.066  60.996  1.00  0.00     0.029 A 
HETATM   15  C   UNL     1       7.627  32.525  62.049  1.00  0.00     0.002 A 
HETATM   16  C   UNL     1       8.980  32.195  62.100  1.00  0.00     0.000 A 
HETATM   17  C   UNL     1       9.536  31.406  61.098  1.00  0.00     0.002 A 
HETATM   18  C   UNL     1       8.738  30.948  60.046  1.00  0.00     0.029 A 
ENDBRANCH  10  13
ENDBRANCH   8   9
ENDBRANCH   7   8
ENDBRANCH   2   7
BRANCH   1  19
HETATM   19  O   UNL     1       8.022  28.921  56.894  1.00  0.00    -0.349 OA
BRANCH  19  20
HETATM   20  C   UNL     1       9.381  28.510  57.027  1.00  0.00     0.171 C 
HETATM   21  C   UNL     1      10.263  29.661  56.577  1.00  0.00     0.034 C 
ENDBRANCH  19  20
ENDBRANCH   1  19
BRANCH   5  22
HETATM   22  C   UNL     1       6.592  24.600  55.016  1.00  0.00     0.014 C 
HETATM   23  C   UNL     1       7.627  24.054  54.354  1.00  0.00     0.035 C 
BRANCH  23  24
HETATM   24  C   UNL     1       7.816  22.648  54.138  1.00  0.00     0.091 A 
HETATM   25  N   UNL     1       7.627  22.054  52.947  1.00  0.00    -0.175 NA
HETATM   26  N   UNL     1       7.919  20.767  53.159  1.00  0.00    -0.288 N 
HETATM   27  H   UNL     1       7.843  20.124  52.376  1.00  0.00     0.188 HD
HETATM   28  C   UNL     1       8.292  20.498  54.440  1.00  0.00     0.126 A 
HETATM   29  C   UNL     1       8.236  21.700  55.118  1.00  0.00     0.049 A 
BRANCH  29  30
HETATM   30  C   UNL     1       8.553  21.868  56.521  1.00  0.00     0.273 C 
HETATM   31  O   UNL     1       8.224  21.088  57.409  1.00  0.00    -0.301 OA
ENDBRANCH  29  30
ENDBRANCH  23  24
ENDBRANCH   5  22
TORSDOF 9
ENDMDL
MODEL 6
REMARK VINA RESULT:      -8.6      5.280     12.803
REMARK  9 active torsions:
REMARK  status: ('A' for Active; 'I' for Inactive)
REMARK    1  A    between atoms: C_2  and  O_3 
REMARK    2  A    between atoms: O_3  and  C_4 
REMARK    3  A    between atoms: C_5  and  O_6 
REMARK    4  A    between atoms: O_6  and  C_7 
REMARK    5  A    between atoms: C_7  and  C_8 
REMARK       I    between atoms: C_8  and  N_9 
REMARK    6  A    between atoms: N_9  and  C_10 
REMARK    7  A    between atoms: C_19  and  C_20 
REMARK    8  A    between atoms: C_21  and  C_22 
REMARK    9  A    between atoms: C_27  and  C_28 
ROOT
HETATM    1  C   UNL     1       6.291  27.775  55.973  1.00  0.00     0.102 A 
HETATM    2  C   UNL     1       7.043  27.898  54.787  1.00  0.00     0.102 A 
HETATM    3  C   UNL     1       8.219  28.651  54.786  1.00  0.00     0.040 A 
HETATM    4  C   UNL     1       8.669  29.249  55.966  1.00  0.00     0.014 A 
HETATM    5  C   UNL     1       7.949  29.105  57.155  1.00  0.00    -0.033 A 
HETATM    6  C   UNL     1       6.747  28.387  57.146  1.00  0.00     0.051 A 
ENDROOT
BRANCH   2   7
HETATM    7  O   UNL     1       6.545  27.233  53.692  1.00  0.00    -0.339 OA
BRANCH   7   8
HETATM    8  C   UNL     1       7.359  26.238  53.085  1.00  0.00     0.278 C 
BRANCH   8   9
HETATM    9  C   UNL     1       7.036  24.784  53.460  1.00  0.00     0.246 C 
HETATM   10  N   UNL     1       8.144  24.095  53.922  1.00  0.00    -0.325 N 
HETATM   11  H   UNL     1       9.017  24.616  53.900  1.00  0.00     0.169 HD
HETATM   12  O   UNL     1       5.888  24.357  53.371  1.00  0.00    -0.271 OA
BRANCH  10  13
HETATM   13  C   UNL     1       8.226  22.749  54.322  1.00  0.00     0.034 A 
HETATM   14  C   UNL     1       8.240  22.330  55.653  1.00  0.00     0.029 A 
HETATM   15  C   UNL     1       8.316  20.968  55.967  1.00  0.00     0.002 A 
HETATM   16  C   UNL     1       8.381  20.016  54.951  1.00  0.00     0.000 A 
HETATM   17  C   UNL     1       8.368  20.425  53.621  1.00  0.00     0.002 A 
HETATM   18  C   UNL     1       8.291  21.785  53.308  1.00  0.00     0.029 A 
ENDBRANCH  10  13
ENDBRANCH   8   9
ENDBRANCH   7   8
ENDBRANCH   2   7
BRANCH   1  19
HETATM   19  O   UNL     1       5.161  27.000  55.888  1.00  0.00    -0.349 OA
BRANCH  19  20
HETATM   20  C   UNL     1       4.903  26.092  56.957  1.00  0.00     0.171 C 
HETATM   21  C   UNL     1       5.933  24.979  56.882  1.00  0.00     0.034 C 
ENDBRANCH  19  20
ENDBRANCH   1  19
BRANCH   5  22
HETATM   22  C   UNL     1       8.423  29.688  58.414  1.00  0.00     0.014 C 
HETATM   23  C   UNL     1       7.667  30.520  59.151  1.00  0.00     0.035 C 
BRANCH  23  24
HETATM   24  C   UNL     1       8.091  31.164  60.361  1.00  0.00     0.091 A 
HETATM   25  N   UNL     1       9.326  31.026  60.874  1.00  0.00    -0.175 NA
HETATM   26  N   UNL     1       9.323  31.785  61.975  1.00  0.00    -0.288 N 
HETATM   27  H   UNL     1      10.174  31.829  62.528  1.00  0.00     0.188 HD
HETATM   28  C   UNL     1       8.137  32.413  62.199  1.00  0.00     0.126 A 
HETATM   29  C   UNL     1       7.299  32.032  61.169  1.00  0.00     0.049 A 
BRANCH  29  30
HETATM   30  C   UNL     1       5.926  32.470  61.021  1.00  0.00     0.273 C 
HETATM   31  O   UNL     1       5.033  32.253  61.833  1.00  0.00    -0.301 OA
ENDBRANCH  29  30
ENDBRANCH  23  24
ENDBRANCH   5  22
TORSDOF 9
ENDMDL
MODEL 7
REMARK VINA RESULT:      -8.6      2.751     10.121
REMARK  9 active torsions:
REMARK  status: ('A' for Active; 'I' for Inactive)
REMARK    1  A    between atoms: C_2  and  O_3 
REMARK    2  A    between atoms: O_3  and  C_4 
REMARK    3  A    between atoms: C_5  and  O_6 
REMARK    4  A    between atoms: O_6  and  C_7 
REMARK    5  A    between atoms: C_7  and  C_8 
REMARK       I    between atoms: C_8  and  N_9 
REMARK    6  A    between atoms: N_9  and  C_10 
REMARK    7  A    between atoms: C_19  and  C_20 
REMARK    8  A    between atoms: C_21  and  C_22 
REMARK    9  A    between atoms: C_27  and  C_28 
ROOT
HETATM    1  C   UNL     1       7.253  32.497  60.043  1.00  0.00     0.102 A 
HETATM    2  C   UNL     1       8.452  31.841  59.697  1.00  0.00     0.102 A 
HETATM    3  C   UNL     1       9.399  31.561  60.684  1.00  0.00     0.040 A 
HETATM    4  C   UNL     1       9.144  31.896  62.016  1.00  0.00     0.014 A 
HETATM    5  C   UNL     1       7.944  32.516  62.375  1.00  0.00    -0.033 A 
HETATM    6  C   UNL     1       7.013  32.837  61.379  1.00  0.00     0.051 A 
ENDROOT
BRANCH   2   7
HETATM    7  O   UNL     1       8.589  31.507  58.371  1.00  0.00    -0.339 OA
BRANCH   7   8
HETATM    8  C   UNL     1       9.425  30.407  58.039  1.00  0.00     0.278 C 
BRANCH   8   9
HETATM    9  C   UNL     1       8.782  29.308  57.181  1.00  0.00     0.246 C 
HETATM   10  N   UNL     1       7.887  28.531  57.897  1.00  0.00    -0.325 N 
HETATM   11  H   UNL     1       7.818  28.751  58.887  1.00  0.00     0.169 HD
HETATM   12  O   UNL     1       9.049  29.212  55.986  1.00  0.00    -0.271 OA
BRANCH  10  13
HETATM   13  C   UNL     1       7.143  27.424  57.447  1.00  0.00     0.034 A 
HETATM   14  C   UNL     1       5.883  27.519  56.856  1.00  0.00     0.029 A 
HETATM   15  C   UNL     1       5.212  26.368  56.428  1.00  0.00     0.002 A 
HETATM   16  C   UNL     1       5.797  25.114  56.589  1.00  0.00     0.000 A 
HETATM   17  C   UNL     1       7.054  25.009  57.178  1.00  0.00     0.002 A 
HETATM   18  C   UNL     1       7.723  26.159  57.605  1.00  0.00     0.029 A 
ENDBRANCH  10  13
ENDBRANCH   8   9
ENDBRANCH   7   8
ENDBRANCH   2   7
BRANCH   1  19
HETATM   19  O   UNL     1       6.370  32.715  59.014  1.00  0.00    -0.349 OA
BRANCH  19  20
HETATM   20  C   UNL     1       5.002  32.927  59.353  1.00  0.00     0.171 C 
HETATM   21  C   UNL     1       4.240  31.652  59.038  1.00  0.00     0.034 C 
ENDBRANCH  19  20
ENDBRANCH   1  19
BRANCH   5  22
HETATM   22  C   UNL     1       7.635  32.839  63.770  1.00  0.00     0.014 C 
HETATM   23  C   UNL     1       6.465  33.389  64.140  1.00  0.00     0.035 C 
BRANCH  23  24
HETATM   24  C   UNL     1       6.124  33.777  65.478  1.00  0.00     0.091 A 
HETATM   25  N   UNL     1       7.002  33.765  66.495  1.00  0.00    -0.175 NA
HETATM   26  N   UNL     1       6.308  34.203  67.550  1.00  0.00    -0.288 N 
HETATM   27  H   UNL     1       6.788  34.276  68.442  1.00  0.00     0.188 HD
HETATM   28  C   UNL     1       5.013  34.503  67.261  1.00  0.00     0.126 A 
HETATM   29  C   UNL     1       4.845  34.235  65.916  1.00  0.00     0.049 A 
BRANCH  29  30
HETATM   30  C   UNL     1       3.605  34.413  65.191  1.00  0.00     0.273 C 
HETATM   31  O   UNL     1       3.255  33.735  64.230  1.00  0.00    -0.301 OA
ENDBRANCH  29  30
ENDBRANCH  23  24
ENDBRANCH   5  22
TORSDOF 9
ENDMDL
MODEL 8
REMARK VINA RESULT:      -8.6      3.876     11.792
REMARK  9 active torsions:
REMARK  status: ('A' for Active; 'I' for Inactive)
REMARK    1  A    between atoms: C_2  and  O_3 
REMARK    2  A    between atoms: O_3  and  C_4 
REMARK    3  A    between atoms: C_5  and  O_6 
REMARK    4  A    between atoms: O_6  and  C_7 
REMARK    5  A    between atoms: C_7  and  C_8 
REMARK       I    between atoms: C_8  and  N_9 
REMARK    6  A    between atoms: N_9  and  C_10 
REMARK    7  A    between atoms: C_19  and  C_20 
REMARK    8  A    between atoms: C_21  and  C_22 
REMARK    9  A    between atoms: C_27  and  C_28 
ROOT
HETATM    1  C   UNL     1       7.644  30.789  58.857  1.00  0.00     0.102 A 
HETATM    2  C   UNL     1       6.715  30.737  57.799  1.00  0.00     0.102 A 
HETATM    3  C   UNL     1       5.472  31.359  57.936  1.00  0.00     0.040 A 
HETATM    4  C   UNL     1       5.166  32.063  59.103  1.00  0.00     0.014 A 
HETATM    5  C   UNL     1       6.094  32.149  60.145  1.00  0.00    -0.033 A 
HETATM    6  C   UNL     1       7.323  31.489  60.025  1.00  0.00     0.051 A 
ENDROOT
BRANCH   2   7
HETATM    7  O   UNL     1       7.127  30.064  56.673  1.00  0.00    -0.339 OA
BRANCH   7   8
HETATM    8  C   UNL     1       6.342  28.969  56.222  1.00  0.00     0.278 C 
BRANCH   8   9
HETATM    9  C   UNL     1       7.114  27.687  55.873  1.00  0.00     0.246 C 
HETATM   10  N   UNL     1       6.566  27.015  54.794  1.00  0.00    -0.325 N 
HETATM   11  H   UNL     1       5.713  27.420  54.420  1.00  0.00     0.169 HD
HETATM   12  O   UNL     1       8.122  27.376  56.501  1.00  0.00    -0.271 OA
BRANCH  10  13
HETATM   13  C   UNL     1       6.988  25.801  54.222  1.00  0.00     0.034 A 
HETATM   14  C   UNL     1       6.858  24.558  54.843  1.00  0.00     0.029 A 
HETATM   15  C   UNL     1       7.298  23.395  54.201  1.00  0.00     0.002 A 
HETATM   16  C   UNL     1       7.872  23.467  52.933  1.00  0.00     0.000 A 
HETATM   17  C   UNL     1       8.006  24.702  52.306  1.00  0.00     0.002 A 
HETATM   18  C   UNL     1       7.567  25.863  52.947  1.00  0.00     0.029 A 
ENDBRANCH  10  13
ENDBRANCH   8   9
ENDBRANCH   7   8
ENDBRANCH   2   7
BRANCH   1  19
HETATM   19  O   UNL     1       8.848  30.168  58.628  1.00  0.00    -0.349 OA
BRANCH  19  20
HETATM   20  C   UNL     1       9.964  30.993  58.305  1.00  0.00     0.171 C 
HETATM   21  C   UNL     1      10.781  30.279  57.243  1.00  0.00     0.034 C 
ENDBRANCH  19  20
ENDBRANCH   1  19
BRANCH   5  22
HETATM   22  C   UNL     1       5.812  32.917  61.361  1.00  0.00     0.014 C 
HETATM   23  C   UNL     1       5.467  32.328  62.520  1.00  0.00     0.035 C 
BRANCH  23  24
HETATM   24  C   UNL     1       5.128  33.025  63.728  1.00  0.00     0.091 A 
HETATM   25  N   UNL     1       3.866  33.337  64.068  1.00  0.00    -0.175 NA
HETATM   26  N   UNL     1       3.975  33.954  65.249  1.00  0.00    -0.288 N 
HETATM   27  H   UNL     1       3.125  34.280  65.699  1.00  0.00     0.188 HD
HETATM   28  C   UNL     1       5.257  34.054  65.693  1.00  0.00     0.126 A 
HETATM   29  C   UNL     1       6.048  33.463  64.727  1.00  0.00     0.049 A 
BRANCH  29  30
HETATM   30  C   UNL     1       7.490  33.355  64.797  1.00  0.00     0.273 C 
HETATM   31  O   UNL     1       8.201  32.916  63.899  1.00  0.00    -0.301 OA
ENDBRANCH  29  30
ENDBRANCH  23  24
ENDBRANCH   5  22
TORSDOF 9
ENDMDL
MODEL 9
REMARK VINA RESULT:      -8.5      4.606      8.489
REMARK  9 active torsions:
REMARK  status: ('A' for Active; 'I' for Inactive)
REMARK    1  A    between atoms: C_2  and  O_3 
REMARK    2  A    between atoms: O_3  and  C_4 
REMARK    3  A    between atoms: C_5  and  O_6 
REMARK    4  A    between atoms: O_6  and  C_7 
REMARK    5  A    between atoms: C_7  and  C_8 
REMARK       I    between atoms: C_8  and  N_9 
REMARK    6  A    between atoms: N_9  and  C_10 
REMARK    7  A    between atoms: C_19  and  C_20 
REMARK    8  A    between atoms: C_21  and  C_22 
REMARK    9  A    between atoms: C_27  and  C_28 
ROOT
HETATM    1  C   UNL     1       7.962  28.620  57.359  1.00  0.00     0.102 A 
HETATM    2  C   UNL     1       6.772  29.303  57.681  1.00  0.00     0.102 A 
HETATM    3  C   UNL     1       5.541  28.776  57.287  1.00  0.00     0.040 A 
HETATM    4  C   UNL     1       5.486  27.556  56.608  1.00  0.00     0.014 A 
HETATM    5  C   UNL     1       6.658  26.854  56.314  1.00  0.00    -0.033 A 
HETATM    6  C   UNL     1       7.895  27.404  56.671  1.00  0.00     0.051 A 
ENDROOT
BRANCH   2   7
HETATM    7  O   UNL     1       6.926  30.469  58.393  1.00  0.00    -0.339 OA
BRANCH   7   8
HETATM    8  C   UNL     1       5.800  31.324  58.532  1.00  0.00     0.278 C 
BRANCH   8   9
HETATM    9  C   UNL     1       5.805  32.250  59.757  1.00  0.00     0.246 C 
HETATM   10  N   UNL     1       6.402  31.667  60.862  1.00  0.00    -0.325 N 
HETATM   11  H   UNL     1       6.701  30.704  60.733  1.00  0.00     0.169 HD
HETATM   12  O   UNL     1       5.346  33.387  59.682  1.00  0.00    -0.271 OA
BRANCH  10  13
HETATM   13  C   UNL     1       6.555  32.205  62.152  1.00  0.00     0.034 A 
HETATM   14  C   UNL     1       7.787  32.532  62.720  1.00  0.00     0.029 A 
HETATM   15  C   UNL     1       7.851  33.072  64.010  1.00  0.00     0.002 A 
HETATM   16  C   UNL     1       6.685  33.286  64.741  1.00  0.00     0.000 A 
HETATM   17  C   UNL     1       5.452  32.962  64.183  1.00  0.00     0.002 A 
HETATM   18  C   UNL     1       5.388  32.424  62.895  1.00  0.00     0.029 A 
ENDBRANCH  10  13
ENDBRANCH   8   9
ENDBRANCH   7   8
ENDBRANCH   2   7
BRANCH   1  19
HETATM   19  O   UNL     1       9.125  29.200  57.803  1.00  0.00    -0.349 OA
BRANCH  19  20
HETATM   20  C   UNL     1      10.237  29.213  56.911  1.00  0.00     0.171 C 
HETATM   21  C   UNL     1      11.186  30.309  57.363  1.00  0.00     0.034 C 
ENDBRANCH  19  20
ENDBRANCH   1  19
BRANCH   5  22
HETATM   22  C   UNL     1       6.623  25.552  55.641  1.00  0.00     0.014 C 
HETATM   23  C   UNL     1       7.728  24.970  55.142  1.00  0.00     0.035 C 
BRANCH  23  24
HETATM   24  C   UNL     1       7.753  23.726  54.428  1.00  0.00     0.091 A 
HETATM   25  N   UNL     1       7.684  23.645  53.088  1.00  0.00    -0.175 NA
HETATM   26  N   UNL     1       7.753  22.337  52.822  1.00  0.00    -0.288 N 
HETATM   27  H   UNL     1       7.720  22.044  51.851  1.00  0.00     0.188 HD
HETATM   28  C   UNL     1       7.867  21.562  53.935  1.00  0.00     0.126 A 
HETATM   29  C   UNL     1       7.867  22.429  55.011  1.00  0.00     0.049 A 
BRANCH  29  30
HETATM   30  C   UNL     1       7.966  22.020  56.396  1.00  0.00     0.273 C 
HETATM   31  O   UNL     1       8.490  22.684  57.284  1.00  0.00    -0.301 OA
ENDBRANCH  29  30
ENDBRANCH  23  24
ENDBRANCH   5  22
TORSDOF 9
ENDMDL
MODEL 10
REMARK VINA RESULT:      -8.5      4.307     12.162
REMARK  9 active torsions:
REMARK  status: ('A' for Active; 'I' for Inactive)
REMARK    1  A    between atoms: C_2  and  O_3 
REMARK    2  A    between atoms: O_3  and  C_4 
REMARK    3  A    between atoms: C_5  and  O_6 
REMARK    4  A    between atoms: O_6  and  C_7 
REMARK    5  A    between atoms: C_7  and  C_8 
REMARK       I    between atoms: C_8  and  N_9 
REMARK    6  A    between atoms: N_9  and  C_10 
REMARK    7  A    between atoms: C_19  and  C_20 
REMARK    8  A    between atoms: C_21  and  C_22 
REMARK    9  A    between atoms: C_27  and  C_28 
ROOT
HETATM    1  C   UNL     1       8.175  29.774  57.520  1.00  0.00     0.102 A 
HETATM    2  C   UNL     1       7.051  29.791  56.670  1.00  0.00     0.102 A 
HETATM    3  C   UNL     1       5.936  30.561  57.009  1.00  0.00     0.040 A 
HETATM    4  C   UNL     1       5.950  31.342  58.168  1.00  0.00     0.014 A 
HETATM    5  C   UNL     1       7.073  31.358  59.000  1.00  0.00    -0.033 A 
HETATM    6  C   UNL     1       8.173  30.553  58.683  1.00  0.00     0.051 A 
ENDROOT
BRANCH   2   7
HETATM    7  O   UNL     1       7.152  29.030  55.530  1.00  0.00    -0.339 OA
BRANCH   7   8
HETATM    8  C   UNL     1       6.573  27.733  55.537  1.00  0.00     0.278 C 
BRANCH   8   9
HETATM    9  C   UNL     1       7.289  26.672  54.687  1.00  0.00     0.246 C 
HETATM   10  N   UNL     1       7.192  25.402  55.230  1.00  0.00    -0.325 N 
HETATM   11  H   UNL     1       6.719  25.351  56.129  1.00  0.00     0.169 HD
HETATM   12  O   UNL     1       7.833  26.982  53.631  1.00  0.00    -0.271 OA
BRANCH  10  13
HETATM   13  C   UNL     1       7.748  24.205  54.744  1.00  0.00     0.034 A 
HETATM   14  C   UNL     1       8.724  23.468  55.416  1.00  0.00     0.029 A 
HETATM   15  C   UNL     1       9.220  22.281  54.865  1.00  0.00     0.002 A 
HETATM   16  C   UNL     1       8.743  21.822  53.639  1.00  0.00     0.000 A 
HETATM   17  C   UNL     1       7.770  22.551  52.962  1.00  0.00     0.002 A 
HETATM   18  C   UNL     1       7.275  23.736  53.512  1.00  0.00     0.029 A 
ENDBRANCH  10  13
ENDBRANCH   8   9
ENDBRANCH   7   8
ENDBRANCH   2   7
BRANCH   1  19
HETATM   19  O   UNL     1       9.233  29.006  57.099  1.00  0.00    -0.349 OA
BRANCH  19  20
HETATM   20  C   UNL     1      10.257  29.652  56.347  1.00  0.00     0.171 C 
HETATM   21  C   UNL     1      11.441  29.881  57.270  1.00  0.00     0.034 C 
ENDBRANCH  19  20
ENDBRANCH   1  19
BRANCH   5  22
HETATM   22  C   UNL     1       7.128  32.201  60.197  1.00  0.00     0.014 C 
HETATM   23  C   UNL     1       7.064  31.692  61.440  1.00  0.00     0.035 C 
BRANCH  23  24
HETATM   24  C   UNL     1       7.059  32.466  62.648  1.00  0.00     0.091 A 
HETATM   25  N   UNL     1       8.124  32.569  63.461  1.00  0.00    -0.175 NA
HETATM   26  N   UNL     1       7.722  33.378  64.447  1.00  0.00    -0.288 N 
HETATM   27  H   UNL     1       8.384  33.597  65.185  1.00  0.00     0.188 HD
HETATM   28  C   UNL     1       6.439  33.807  64.308  1.00  0.00     0.126 A 
HETATM   29  C   UNL     1       5.963  33.232  63.145  1.00  0.00     0.049 A 
BRANCH  29  30
HETATM   30  C   UNL     1       4.627  33.422  62.621  1.00  0.00     0.273 C 
HETATM   31  O   UNL     1       3.623  32.859  63.046  1.00  0.00    -0.301 OA
ENDBRANCH  29  30
ENDBRANCH  23  24
ENDBRANCH   5  22
TORSDOF 9
ENDMDL
