MODEL 1
REMARK VINA RESULT:      -9.1      0.000      0.000
REMARK  4 active torsions:
REMARK  status: ('A' for Active; 'I' for Inactive)
REMARK    1  A    between atoms: C_2  and  C_3 
REMARK    2  A    between atoms: C_3  and  C_4 
REMARK    3  A    between atoms: N_7  and  C_8 
REMARK    4  A    between atoms: C_13  and  C_14 
ROOT
HETATM    1  C   UNL     1       6.812  26.329  55.501  1.00  0.00     0.017 A 
HETATM    2  C   UNL     1       7.173  26.081  56.824  1.00  0.00     0.033 A 
HETATM    3  C   UNL     1       7.669  27.111  57.612  1.00  0.00     0.099 A 
HETATM    4  N   UNL     1       7.807  28.371  57.123  1.00  0.00    -0.318 N 
HETATM    5  C   UNL     1       7.474  28.618  55.827  1.00  0.00     0.099 A 
HETATM    6  C   UNL     1       6.961  27.618  55.003  1.00  0.00     0.033 A 
ENDROOT
BRANCH   1   7
HETATM    7  C   UNL     1       6.209  25.216  54.721  1.00  0.00     0.192 C 
HETATM    8  O   UNL     1       5.077  25.372  54.275  1.00  0.00    -0.287 OA
BRANCH   7   9
HETATM    9  C   UNL     1       6.929  23.956  54.437  1.00  0.00     0.015 A 
HETATM   10  C   UNL     1       7.283  23.680  53.112  1.00  0.00     0.017 A 
HETATM   11  C   UNL     1       7.961  22.500  52.801  1.00  0.00     0.025 A 
HETATM   12  C   UNL     1       8.267  21.591  53.814  1.00  0.00     0.034 A 
HETATM   13  C   UNL     1       7.891  21.848  55.132  1.00  0.00     0.025 A 
HETATM   14 CL   UNL     1       9.106  20.139  53.435  1.00  0.00    -0.084 Cl
HETATM   15  C   UNL     1       7.213  23.029  55.448  1.00  0.00     0.017 A 
ENDBRANCH   7   9
ENDBRANCH   1   7
BRANCH   4  16
HETATM   16  C   UNL     1       8.321  29.382  57.960  1.00  0.00     0.135 A 
HETATM   17  N   UNL     1       7.597  29.833  59.039  1.00  0.00    -0.302 N 
HETATM   18  C   UNL     1       8.179  30.818  59.796  1.00  0.00     0.290 A 
HETATM   19  H   UNL     1       6.710  29.464  59.352  1.00  0.00     0.171 HD
HETATM   20  O   UNL     1       7.706  31.325  60.794  1.00  0.00    -0.260 OA
HETATM   21  S   UNL     1       9.734  31.214  59.081  1.00  0.00    -0.022 SA
HETATM   22  C   UNL     1       9.491  30.032  57.829  1.00  0.00     0.092 A 
BRANCH  22  23
HETATM   23  C   UNL     1      10.488  29.950  56.751  1.00  0.00     0.281 C 
HETATM   24  O   UNL     1      11.678  29.789  56.993  1.00  0.00    -0.301 OA
ENDBRANCH  22  23
ENDBRANCH   4  16
TORSDOF 4
ENDMDL
MODEL 2
REMARK VINA RESULT:      -8.9      3.058      3.840
REMARK  4 active torsions:
REMARK  status: ('A' for Active; 'I' for Inactive)
REMARK    1  A    between atoms: C_2  and  C_3 
REMARK    2  A    between atoms: C_3  and  C_4 
REMARK    3  A    between atoms: N_7  and  C_8 
REMARK    4  A    between atoms: C_13  and  C_14 
ROOT
HETATM    1  C   UNL     1       7.267  25.604  56.831  1.00  0.00     0.017 A 
HETATM    2  C   UNL     1       7.784  26.893  56.714  1.00  0.00     0.033 A 
HETATM    3  C   UNL     1       6.927  27.987  56.730  1.00  0.00     0.099 A 
HETATM    4  N   UNL     1       5.584  27.830  56.863  1.00  0.00    -0.318 N 
HETATM    5  C   UNL     1       5.071  26.574  56.958  1.00  0.00     0.099 A 
HETATM    6  C   UNL     1       5.893  25.448  56.960  1.00  0.00     0.033 A 
ENDROOT
BRANCH   1   7
HETATM    7  C   UNL     1       8.228  24.471  56.893  1.00  0.00     0.192 C 
HETATM    8  O   UNL     1       8.984  24.408  57.858  1.00  0.00    -0.287 OA
BRANCH   7   9
HETATM    9  C   UNL     1       8.281  23.409  55.865  1.00  0.00     0.015 A 
HETATM   10  C   UNL     1       8.201  23.786  54.520  1.00  0.00     0.017 A 
HETATM   11  C   UNL     1       8.244  22.814  53.518  1.00  0.00     0.025 A 
HETATM   12  C   UNL     1       8.349  21.467  53.866  1.00  0.00     0.034 A 
HETATM   13  C   UNL     1       8.400  21.085  55.207  1.00  0.00     0.025 A 
HETATM   14 CL   UNL     1       8.406  20.268  52.635  1.00  0.00    -0.084 Cl
HETATM   15  C   UNL     1       8.358  22.055  56.212  1.00  0.00     0.017 A 
ENDBRANCH   7   9
ENDBRANCH   1   7
BRANCH   4  16
HETATM   16  C   UNL     1       4.755  28.969  56.866  1.00  0.00     0.135 A 
HETATM   17  N   UNL     1       4.443  29.606  58.045  1.00  0.00    -0.302 N 
HETATM   18  C   UNL     1       3.631  30.707  57.949  1.00  0.00     0.290 A 
HETATM   19  H   UNL     1       4.804  29.369  58.958  1.00  0.00     0.171 HD
HETATM   20  O   UNL     1       3.266  31.407  58.872  1.00  0.00    -0.260 OA
HETATM   21  S   UNL     1       3.217  30.938  56.257  1.00  0.00    -0.022 SA
HETATM   22  C   UNL     1       4.164  29.550  55.806  1.00  0.00     0.092 A 
BRANCH  22  23
HETATM   23  C   UNL     1       4.129  29.114  54.402  1.00  0.00     0.281 C 
HETATM   24  O   UNL     1       5.147  29.063  53.724  1.00  0.00    -0.301 OA
ENDBRANCH  22  23
ENDBRANCH   4  16
TORSDOF 4
ENDMDL
MODEL 3
REMARK VINA RESULT:      -8.6      1.016      1.781
REMARK  4 active torsions:
REMARK  status: ('A' for Active; 'I' for Inactive)
REMARK    1  A    between atoms: C_2  and  C_3 
REMARK    2  A    between atoms: C_3  and  C_4 
REMARK    3  A    between atoms: N_7  and  C_8 
REMARK    4  A    between atoms: C_13  and  C_14 
ROOT
HETATM    1  C   UNL     1       6.737  27.456  55.504  1.00  0.00     0.017 A 
HETATM    2  C   UNL     1       6.351  28.794  55.551  1.00  0.00     0.033 A 
HETATM    3  C   UNL     1       6.855  29.626  56.542  1.00  0.00     0.099 A 
HETATM    4  N   UNL     1       7.731  29.165  57.474  1.00  0.00    -0.318 N 
HETATM    5  C   UNL     1       8.099  27.856  57.445  1.00  0.00     0.099 A 
HETATM    6  C   UNL     1       7.628  26.987  56.462  1.00  0.00     0.033 A 
ENDROOT
BRANCH   1   7
HETATM    7  C   UNL     1       6.238  26.625  54.377  1.00  0.00     0.192 C 
HETATM    8  O   UNL     1       5.346  27.086  53.671  1.00  0.00    -0.287 OA
BRANCH   7   9
HETATM    9  C   UNL     1       6.794  25.293  54.057  1.00  0.00     0.015 A 
HETATM   10  C   UNL     1       6.726  24.294  55.035  1.00  0.00     0.017 A 
HETATM   11  C   UNL     1       7.243  23.024  54.775  1.00  0.00     0.025 A 
HETATM   12  C   UNL     1       7.842  22.761  53.543  1.00  0.00     0.034 A 
HETATM   13  C   UNL     1       7.938  23.761  52.575  1.00  0.00     0.025 A 
HETATM   14 CL   UNL     1       8.475  21.196  53.217  1.00  0.00    -0.084 Cl
HETATM   15  C   UNL     1       7.421  25.034  52.832  1.00  0.00     0.017 A 
ENDBRANCH   7   9
ENDBRANCH   1   7
BRANCH   4  16
HETATM   16  C   UNL     1       8.209  30.046  58.464  1.00  0.00     0.135 A 
HETATM   17  N   UNL     1       7.441  30.349  59.564  1.00  0.00    -0.302 N 
HETATM   18  C   UNL     1       7.990  31.215  60.474  1.00  0.00     0.290 A 
HETATM   19  H   UNL     1       6.540  29.947  59.785  1.00  0.00     0.171 HD
HETATM   20  O   UNL     1       7.476  31.582  61.511  1.00  0.00    -0.260 OA
HETATM   21  S   UNL     1       9.576  31.695  59.887  1.00  0.00    -0.022 SA
HETATM   22  C   UNL     1       9.385  30.699  58.474  1.00  0.00     0.092 A 
BRANCH  22  23
HETATM   23  C   UNL     1      10.428  30.760  57.439  1.00  0.00     0.281 C 
HETATM   24  O   UNL     1      11.185  29.818  57.238  1.00  0.00    -0.301 OA
ENDBRANCH  22  23
ENDBRANCH   4  16
TORSDOF 4
ENDMDL
MODEL 4
REMARK VINA RESULT:      -8.6      1.690      2.306
REMARK  4 active torsions:
REMARK  status: ('A' for Active; 'I' for Inactive)
REMARK    1  A    between atoms: C_2  and  C_3 
REMARK    2  A    between atoms: C_3  and  C_4 
REMARK    3  A    between atoms: N_7  and  C_8 
REMARK    4  A    between atoms: C_13  and  C_14 
ROOT
HETATM    1  C   UNL     1       6.189  26.945  55.214  1.00  0.00     0.017 A 
HETATM    2  C   UNL     1       7.382  27.661  55.137  1.00  0.00     0.033 A 
HETATM    3  C   UNL     1       7.690  28.600  56.113  1.00  0.00     0.099 A 
HETATM    4  N   UNL     1       6.852  28.837  57.156  1.00  0.00    -0.318 N 
HETATM    5  C   UNL     1       5.677  28.155  57.227  1.00  0.00     0.099 A 
HETATM    6  C   UNL     1       5.332  27.195  56.278  1.00  0.00     0.033 A 
ENDROOT
BRANCH   1   7
HETATM    7  C   UNL     1       5.941  25.892  54.194  1.00  0.00     0.192 C 
HETATM    8  O   UNL     1       5.135  26.133  53.300  1.00  0.00    -0.287 OA
BRANCH   7   9
HETATM    9  C   UNL     1       6.648  24.594  54.196  1.00  0.00     0.015 A 
HETATM   10  C   UNL     1       6.978  24.017  52.965  1.00  0.00     0.017 A 
HETATM   11  C   UNL     1       7.643  22.790  52.923  1.00  0.00     0.025 A 
HETATM   12  C   UNL     1       7.961  22.135  54.113  1.00  0.00     0.034 A 
HETATM   13  C   UNL     1       7.609  22.692  55.343  1.00  0.00     0.025 A 
HETATM   14 CL   UNL     1       8.784  20.627  54.066  1.00  0.00    -0.084 Cl
HETATM   15  C   UNL     1       6.944  23.921  55.388  1.00  0.00     0.017 A 
ENDBRANCH   7   9
ENDBRANCH   1   7
BRANCH   4  16
HETATM   16  C   UNL     1       7.205  29.805  58.117  1.00  0.00     0.135 A 
HETATM   17  N   UNL     1       8.075  29.494  59.136  1.00  0.00    -0.302 N 
HETATM   18  C   UNL     1       8.361  30.500  60.024  1.00  0.00     0.290 A 
HETATM   19  H   UNL     1       8.562  28.616  59.252  1.00  0.00     0.171 HD
HETATM   20  O   UNL     1       9.118  30.424  60.971  1.00  0.00    -0.260 OA
HETATM   21  S   UNL     1       7.451  31.926  59.549  1.00  0.00    -0.022 SA
HETATM   22  C   UNL     1       6.762  31.072  58.200  1.00  0.00     0.092 A 
BRANCH  22  23
HETATM   23  C   UNL     1       5.736  31.755  57.398  1.00  0.00     0.281 C 
HETATM   24  O   UNL     1       5.483  32.942  57.562  1.00  0.00    -0.301 OA
ENDBRANCH  22  23
ENDBRANCH   4  16
TORSDOF 4
ENDMDL
MODEL 5
REMARK VINA RESULT:      -8.5      2.398      3.049
REMARK  4 active torsions:
REMARK  status: ('A' for Active; 'I' for Inactive)
REMARK    1  A    between atoms: C_2  and  C_3 
REMARK    2  A    between atoms: C_3  and  C_4 
REMARK    3  A    between atoms: N_7  and  C_8 
REMARK    4  A    between atoms: C_13  and  C_14 
ROOT
HETATM    1  C   UNL     1       7.109  26.123  53.773  1.00  0.00     0.017 A 
HETATM    2  C   UNL     1       7.944  27.238  53.768  1.00  0.00     0.033 A 
HETATM    3  C   UNL     1       7.622  28.349  54.537  1.00  0.00     0.099 A 
HETATM    4  N   UNL     1       6.504  28.373  55.309  1.00  0.00    -0.318 N 
HETATM    5  C   UNL     1       5.674  27.295  55.306  1.00  0.00     0.099 A 
HETATM    6  C   UNL     1       5.963  26.154  54.559  1.00  0.00     0.033 A 
ENDROOT
BRANCH   1   7
HETATM    7  C   UNL     1       7.537  24.927  53.000  1.00  0.00     0.192 C 
HETATM    8  O   UNL     1       7.668  25.042  51.785  1.00  0.00    -0.287 OA
BRANCH   7   9
HETATM    9  C   UNL     1       7.841  23.629  53.638  1.00  0.00     0.015 A 
HETATM   10  C   UNL     1       8.335  23.634  54.948  1.00  0.00     0.017 A 
HETATM   11  C   UNL     1       8.639  22.430  55.585  1.00  0.00     0.025 A 
HETATM   12  C   UNL     1       8.463  21.225  54.906  1.00  0.00     0.034 A 
HETATM   13  C   UNL     1       7.997  21.215  53.591  1.00  0.00     0.025 A 
HETATM   14 CL   UNL     1       8.831  19.739  55.690  1.00  0.00    -0.084 Cl
HETATM   15  C   UNL     1       7.692  22.419  52.949  1.00  0.00     0.017 A 
ENDBRANCH   7   9
ENDBRANCH   1   7
BRANCH   4  16
HETATM   16  C   UNL     1       6.217  29.525  56.068  1.00  0.00     0.135 A 
HETATM   17  N   UNL     1       5.473  30.550  55.531  1.00  0.00    -0.302 N 
HETATM   18  C   UNL     1       5.243  31.631  56.344  1.00  0.00     0.290 A 
HETATM   19  H   UNL     1       5.037  30.550  54.619  1.00  0.00     0.171 HD
HETATM   20  O   UNL     1       4.595  32.616  56.056  1.00  0.00    -0.260 OA
HETATM   21  S   UNL     1       6.041  31.338  57.882  1.00  0.00    -0.022 SA
HETATM   22  C   UNL     1       6.615  29.795  57.324  1.00  0.00     0.092 A 
BRANCH  22  23
HETATM   23  C   UNL     1       7.523  29.037  58.198  1.00  0.00     0.281 C 
HETATM   24  O   UNL     1       8.680  28.804  57.869  1.00  0.00    -0.301 OA
ENDBRANCH  22  23
ENDBRANCH   4  16
TORSDOF 4
ENDMDL
MODEL 6
REMARK VINA RESULT:      -8.4      4.546      8.690
REMARK  4 active torsions:
REMARK  status: ('A' for Active; 'I' for Inactive)
REMARK    1  A    between atoms: C_2  and  C_3 
REMARK    2  A    between atoms: C_3  and  C_4 
REMARK    3  A    between atoms: N_7  and  C_8 
REMARK    4  A    between atoms: C_13  and  C_14 
ROOT
HETATM    1  C   UNL     1       8.853  30.140  58.176  1.00  0.00     0.017 A 
HETATM    2  C   UNL     1       9.596  29.635  57.111  1.00  0.00     0.033 A 
HETATM    3  C   UNL     1       9.080  28.606  56.334  1.00  0.00     0.099 A 
HETATM    4  N   UNL     1       7.854  28.077  56.584  1.00  0.00    -0.318 N 
HETATM    5  C   UNL     1       7.130  28.553  57.633  1.00  0.00     0.099 A 
HETATM    6  C   UNL     1       7.602  29.593  58.433  1.00  0.00     0.033 A 
ENDROOT
BRANCH   1   7
HETATM    7  C   UNL     1       9.408  31.297  58.928  1.00  0.00     0.192 C 
HETATM    8  O   UNL     1      10.304  31.950  58.402  1.00  0.00    -0.287 OA
BRANCH   7   9
HETATM    9  C   UNL     1       8.902  31.705  60.256  1.00  0.00     0.015 A 
HETATM   10  C   UNL     1       9.375  31.024  61.383  1.00  0.00     0.017 A 
HETATM   11  C   UNL     1       8.919  31.376  62.655  1.00  0.00     0.025 A 
HETATM   12  C   UNL     1       7.980  32.398  62.794  1.00  0.00     0.034 A 
HETATM   13  C   UNL     1       7.484  33.061  61.671  1.00  0.00     0.025 A 
HETATM   14 CL   UNL     1       7.420  32.838  64.359  1.00  0.00    -0.084 Cl
HETATM   15  C   UNL     1       7.938  32.711  60.396  1.00  0.00     0.017 A 
ENDBRANCH   7   9
ENDBRANCH   1   7
BRANCH   4  16
HETATM   16  C   UNL     1       7.377  27.030  55.771  1.00  0.00     0.135 A 
HETATM   17  N   UNL     1       6.551  27.292  54.703  1.00  0.00    -0.302 N 
HETATM   18  C   UNL     1       6.138  26.209  53.969  1.00  0.00     0.290 A 
HETATM   19  H   UNL     1       6.273  28.209  54.381  1.00  0.00     0.171 HD
HETATM   20  O   UNL     1       5.428  26.243  52.984  1.00  0.00    -0.260 OA
HETATM   21  S   UNL     1       6.823  24.762  54.693  1.00  0.00    -0.022 SA
HETATM   22  C   UNL     1       7.611  25.713  55.917  1.00  0.00     0.092 A 
BRANCH  22  23
HETATM   23  C   UNL     1       8.323  25.006  56.992  1.00  0.00     0.281 C 
HETATM   24  O   UNL     1       8.357  25.448  58.134  1.00  0.00    -0.301 OA
ENDBRANCH  22  23
ENDBRANCH   4  16
TORSDOF 4
ENDMDL
MODEL 7
REMARK VINA RESULT:      -8.3      5.971      8.007
REMARK  4 active torsions:
REMARK  status: ('A' for Active; 'I' for Inactive)
REMARK    1  A    between atoms: C_2  and  C_3 
REMARK    2  A    between atoms: C_3  and  C_4 
REMARK    3  A    between atoms: N_7  and  C_8 
REMARK    4  A    between atoms: C_13  and  C_14 
ROOT
HETATM    1  C   UNL     1       6.146  26.730  52.222  1.00  0.00     0.017 A 
HETATM    2  C   UNL     1       5.844  25.839  51.194  1.00  0.00     0.033 A 
HETATM    3  C   UNL     1       4.959  26.212  50.191  1.00  0.00     0.099 A 
HETATM    4  N   UNL     1       4.376  27.440  50.184  1.00  0.00    -0.318 N 
HETATM    5  C   UNL     1       4.652  28.309  51.194  1.00  0.00     0.099 A 
HETATM    6  C   UNL     1       5.544  27.982  52.214  1.00  0.00     0.033 A 
ENDROOT
BRANCH   1   7
HETATM    7  C   UNL     1       7.162  26.318  53.226  1.00  0.00     0.192 C 
HETATM    8  O   UNL     1       7.843  27.194  53.751  1.00  0.00    -0.287 OA
BRANCH   7   9
HETATM    9  C   UNL     1       7.356  24.911  53.637  1.00  0.00     0.015 A 
HETATM   10  C   UNL     1       7.848  24.006  52.690  1.00  0.00     0.017 A 
HETATM   11  C   UNL     1       8.042  22.668  53.037  1.00  0.00     0.025 A 
HETATM   12  C   UNL     1       7.727  22.235  54.325  1.00  0.00     0.034 A 
HETATM   13  C   UNL     1       7.210  23.127  55.264  1.00  0.00     0.025 A 
HETATM   14 CL   UNL     1       7.970  20.589  54.757  1.00  0.00    -0.084 Cl
HETATM   15  C   UNL     1       7.014  24.468  54.921  1.00  0.00     0.017 A 
ENDBRANCH   7   9
ENDBRANCH   1   7
BRANCH   4  16
HETATM   16  C   UNL     1       3.479  27.770  49.148  1.00  0.00     0.135 A 
HETATM   17  N   UNL     1       2.266  27.131  49.043  1.00  0.00    -0.302 N 
HETATM   18  C   UNL     1       1.458  27.519  48.004  1.00  0.00     0.290 A 
HETATM   19  H   UNL     1       1.898  26.449  49.691  1.00  0.00     0.171 HD
HETATM   20  O   UNL     1       0.350  27.088  47.761  1.00  0.00    -0.260 OA
HETATM   21  S   UNL     1       2.301  28.760  47.088  1.00  0.00    -0.022 SA
HETATM   22  C   UNL     1       3.664  28.668  48.164  1.00  0.00     0.092 A 
BRANCH  22  23
HETATM   23  C   UNL     1       4.859  29.461  47.837  1.00  0.00     0.281 C 
HETATM   24  O   UNL     1       5.104  30.514  48.412  1.00  0.00    -0.301 OA
ENDBRANCH  22  23
ENDBRANCH   4  16
TORSDOF 4
ENDMDL
MODEL 8
REMARK VINA RESULT:      -8.1      5.742      7.681
REMARK  4 active torsions:
REMARK  status: ('A' for Active; 'I' for Inactive)
REMARK    1  A    between atoms: C_2  and  C_3 
REMARK    2  A    between atoms: C_3  and  C_4 
REMARK    3  A    between atoms: N_7  and  C_8 
REMARK    4  A    between atoms: C_13  and  C_14 
ROOT
HETATM    1  C   UNL     1       6.579  25.992  52.815  1.00  0.00     0.017 A 
HETATM    2  C   UNL     1       5.829  25.530  53.894  1.00  0.00     0.033 A 
HETATM    3  C   UNL     1       6.227  24.388  54.576  1.00  0.00     0.099 A 
HETATM    4  N   UNL     1       7.346  23.705  54.218  1.00  0.00    -0.318 N 
HETATM    5  C   UNL     1       8.073  24.139  53.154  1.00  0.00     0.099 A 
HETATM    6  C   UNL     1       7.719  25.288  52.448  1.00  0.00     0.033 A 
ENDROOT
BRANCH   1   7
HETATM    7  C   UNL     1       6.162  27.265  52.169  1.00  0.00     0.192 C 
HETATM    8  O   UNL     1       6.516  28.319  52.687  1.00  0.00    -0.287 OA
BRANCH   7   9
HETATM    9  C   UNL     1       5.374  27.305  50.918  1.00  0.00     0.015 A 
HETATM   10  C   UNL     1       5.043  28.556  50.384  1.00  0.00     0.017 A 
HETATM   11  C   UNL     1       4.297  28.638  49.207  1.00  0.00     0.025 A 
HETATM   12  C   UNL     1       3.870  27.470  48.576  1.00  0.00     0.034 A 
HETATM   13  C   UNL     1       4.173  26.221  49.119  1.00  0.00     0.025 A 
HETATM   14 CL   UNL     1       2.956  27.568  47.123  1.00  0.00    -0.084 Cl
HETATM   15  C   UNL     1       4.920  26.135  50.298  1.00  0.00     0.017 A 
ENDBRANCH   7   9
ENDBRANCH   1   7
BRANCH   4  16
HETATM   16  C   UNL     1       7.705  22.547  54.937  1.00  0.00     0.135 A 
HETATM   17  N   UNL     1       7.935  22.607  56.291  1.00  0.00    -0.302 N 
HETATM   18  C   UNL     1       8.279  21.430  56.906  1.00  0.00     0.290 A 
HETATM   19  H   UNL     1       7.817  23.423  56.876  1.00  0.00     0.171 HD
HETATM   20  O   UNL     1       8.499  21.280  58.091  1.00  0.00    -0.260 OA
HETATM   21  S   UNL     1       8.336  20.169  55.683  1.00  0.00    -0.022 SA
HETATM   22  C   UNL     1       7.892  21.309  54.447  1.00  0.00     0.092 A 
BRANCH  22  23
HETATM   23  C   UNL     1       7.878  20.846  53.051  1.00  0.00     0.281 C 
HETATM   24  O   UNL     1       8.646  19.976  52.659  1.00  0.00    -0.301 OA
ENDBRANCH  22  23
ENDBRANCH   4  16
TORSDOF 4
ENDMDL
MODEL 9
REMARK VINA RESULT:      -8.1      5.571      7.785
REMARK  4 active torsions:
REMARK  status: ('A' for Active; 'I' for Inactive)
REMARK    1  A    between atoms: C_2  and  C_3 
REMARK    2  A    between atoms: C_3  and  C_4 
REMARK    3  A    between atoms: N_7  and  C_8 
REMARK    4  A    between atoms: C_13  and  C_14 
ROOT
HETATM    1  C   UNL     1       6.078  26.318  52.390  1.00  0.00     0.017 A 
HETATM    2  C   UNL     1       7.412  25.967  52.187  1.00  0.00     0.033 A 
HETATM    3  C   UNL     1       7.929  24.831  52.797  1.00  0.00     0.099 A 
HETATM    4  N   UNL     1       7.158  24.041  53.590  1.00  0.00    -0.318 N 
HETATM    5  C   UNL     1       5.861  24.387  53.807  1.00  0.00     0.099 A 
HETATM    6  C   UNL     1       5.295  25.511  53.206  1.00  0.00     0.033 A 
ENDROOT
BRANCH   1   7
HETATM    7  C   UNL     1       5.547  27.494  51.652  1.00  0.00     0.192 C 
HETATM    8  O   UNL     1       5.945  28.607  51.977  1.00  0.00    -0.287 OA
BRANCH   7   9
HETATM    9  C   UNL     1       4.593  27.368  50.529  1.00  0.00     0.015 A 
HETATM   10  C   UNL     1       4.700  26.254  49.689  1.00  0.00     0.017 A 
HETATM   11  C   UNL     1       3.822  26.100  48.615  1.00  0.00     0.025 A 
HETATM   12  C   UNL     1       2.849  27.069  48.374  1.00  0.00     0.034 A 
HETATM   13  C   UNL     1       2.755  28.196  49.191  1.00  0.00     0.025 A 
HETATM   14 CL   UNL     1       1.762  26.880  47.056  1.00  0.00    -0.084 Cl
HETATM   15  C   UNL     1       3.633  28.354  50.267  1.00  0.00     0.017 A 
ENDBRANCH   7   9
ENDBRANCH   1   7
BRANCH   4  16
HETATM   16  C   UNL     1       7.730  22.902  54.191  1.00  0.00     0.135 A 
HETATM   17  N   UNL     1       7.937  21.754  53.463  1.00  0.00    -0.302 N 
HETATM   18  C   UNL     1       8.500  20.698  54.133  1.00  0.00     0.290 A 
HETATM   19  H   UNL     1       7.766  21.643  52.473  1.00  0.00     0.171 HD
HETATM   20  O   UNL     1       8.777  19.616  53.656  1.00  0.00    -0.260 OA
HETATM   21  S   UNL     1       8.764  21.184  55.800  1.00  0.00    -0.022 SA
HETATM   22  C   UNL     1       8.108  22.761  55.475  1.00  0.00     0.092 A 
BRANCH  22  23
HETATM   23  C   UNL     1       7.939  23.688  56.604  1.00  0.00     0.281 C 
HETATM   24  O   UNL     1       8.810  24.493  56.905  1.00  0.00    -0.301 OA
ENDBRANCH  22  23
ENDBRANCH   4  16
TORSDOF 4
ENDMDL
MODEL 10
REMARK VINA RESULT:      -8.1      2.914      3.729
REMARK  4 active torsions:
REMARK  status: ('A' for Active; 'I' for Inactive)
REMARK    1  A    between atoms: C_2  and  C_3 
REMARK    2  A    between atoms: C_3  and  C_4 
REMARK    3  A    between atoms: N_7  and  C_8 
REMARK    4  A    between atoms: C_13  and  C_14 
ROOT
HETATM    1  C   UNL     1       7.642  26.550  57.012  1.00  0.00     0.017 A 
HETATM    2  C   UNL     1       6.258  26.695  57.091  1.00  0.00     0.033 A 
HETATM    3  C   UNL     1       5.677  27.936  56.865  1.00  0.00     0.099 A 
HETATM    4  N   UNL     1       6.432  29.024  56.559  1.00  0.00    -0.318 N 
HETATM    5  C   UNL     1       7.785  28.894  56.498  1.00  0.00     0.099 A 
HETATM    6  C   UNL     1       8.410  27.666  56.705  1.00  0.00     0.033 A 
ENDROOT
BRANCH   1   7
HETATM    7  C   UNL     1       8.211  25.187  57.180  1.00  0.00     0.192 C 
HETATM    8  O   UNL     1       8.782  24.925  58.234  1.00  0.00    -0.287 OA
BRANCH   7   9
HETATM    9  C   UNL     1       8.084  24.135  56.148  1.00  0.00     0.015 A 
HETATM   10  C   UNL     1       8.204  22.798  56.547  1.00  0.00     0.017 A 
HETATM   11  C   UNL     1       8.094  21.775  55.604  1.00  0.00     0.025 A 
HETATM   12  C   UNL     1       7.882  22.092  54.262  1.00  0.00     0.034 A 
HETATM   13  C   UNL     1       7.791  23.423  53.855  1.00  0.00     0.025 A 
HETATM   14 CL   UNL     1       7.742  20.834  53.098  1.00  0.00    -0.084 Cl
HETATM   15  C   UNL     1       7.900  24.450  54.797  1.00  0.00     0.017 A 
ENDBRANCH   7   9
ENDBRANCH   1   7
BRANCH   4  16
HETATM   16  C   UNL     1       5.797  30.263  56.344  1.00  0.00     0.135 A 
HETATM   17  N   UNL     1       5.211  30.550  55.133  1.00  0.00    -0.302 N 
HETATM   18  C   UNL     1       4.616  31.781  55.017  1.00  0.00     0.290 A 
HETATM   19  H   UNL     1       5.130  29.916  54.350  1.00  0.00     0.171 HD
HETATM   20  O   UNL     1       4.033  32.203  54.040  1.00  0.00    -0.260 OA
HETATM   21  S   UNL     1       4.835  32.640  56.535  1.00  0.00    -0.022 SA
HETATM   22  C   UNL     1       5.698  31.289  57.208  1.00  0.00     0.092 A 
BRANCH  22  23
HETATM   23  C   UNL     1       6.295  31.445  58.543  1.00  0.00     0.281 C 
HETATM   24  O   UNL     1       7.349  32.047  58.705  1.00  0.00    -0.301 OA
ENDBRANCH  22  23
ENDBRANCH   4  16
TORSDOF 4
ENDMDL
