MODEL 1
REMARK VINA RESULT:      -9.1      0.000      0.000
REMARK  5 active torsions:
REMARK  status: ('A' for Active; 'I' for Inactive)
REMARK    1  A    between atoms: C_6  and  N_7 
REMARK       I    between atoms: N_7  and  C_8 
REMARK    2  A    between atoms: C_8  and  C_9 
REMARK    3  A    between atoms: C_9  and  O_10 
REMARK    4  A    between atoms: O_10  and  C_11 
REMARK    5  A    between atoms: C_19  and  C_20 
ROOT
HETATM    1  C   UNL     1       7.705  21.241  54.688  1.00  0.00     0.073 C 
HETATM    2  C   UNL     1       7.888  22.436  55.548  1.00  0.00     0.065 A 
HETATM    3  N   UNL     1       8.424  22.304  56.769  1.00  0.00    -0.177 NA
HETATM    4  N   UNL     1       8.445  23.560  57.250  1.00  0.00    -0.262 N 
HETATM    5  H   UNL     1       8.808  23.737  58.184  1.00  0.00     0.191 HD
HETATM    6  C   UNL     1       7.932  24.493  56.386  1.00  0.00     0.137 A 
HETATM    7  C   UNL     1       7.566  23.791  55.254  1.00  0.00     0.046 A 
ENDROOT
BRANCH   6   8
HETATM    8  N   UNL     1       7.822  25.840  56.681  1.00  0.00    -0.309 N 
HETATM    9  C   UNL     1       6.636  26.397  57.148  1.00  0.00     0.252 C 
HETATM   10  O   UNL     1       5.614  25.746  57.368  1.00  0.00    -0.270 OA
HETATM   11  H   UNL     1       8.632  26.425  56.510  1.00  0.00     0.170 HD
BRANCH   9  12
HETATM   12  C   UNL     1       6.746  27.918  57.399  1.00  0.00     0.217 C 
HETATM   13  C   UNL     1       5.344  28.518  57.296  1.00  0.00     0.050 C 
BRANCH  12  14
HETATM   14  O   UNL     1       7.566  28.618  56.467  1.00  0.00    -0.337 OA
BRANCH  14  15
HETATM   15  C   UNL     1       8.517  29.409  57.054  1.00  0.00     0.070 A 
HETATM   16  C   UNL     1       9.814  29.310  56.551  1.00  0.00     0.037 A 
HETATM   17  C   UNL     1      10.831  30.100  57.084  1.00  0.00     0.003 A 
HETATM   18  C   UNL     1      10.547  31.003  58.108  1.00  0.00     0.000 A 
HETATM   19  C   UNL     1       9.244  31.123  58.590  1.00  0.00     0.003 A 
HETATM   20  C   UNL     1       8.224  30.333  58.056  1.00  0.00     0.037 A 
ENDBRANCH  14  15
ENDBRANCH  12  14
ENDBRANCH   9  12
ENDBRANCH   6   8
BRANCH   7  21
HETATM   21  C   UNL     1       6.967  24.380  54.073  1.00  0.00    -0.020 A 
HETATM   22  C   UNL     1       5.590  24.638  54.032  1.00  0.00     0.014 A 
HETATM   23  C   UNL     1       5.015  25.203  52.890  1.00  0.00     0.020 A 
HETATM   24  C   UNL     1       5.817  25.514  51.794  1.00  0.00     0.011 A 
HETATM   25 BR   UNL     1       5.039  26.279  50.250  1.00  0.00    -0.051 Br
HETATM   26  C   UNL     1       7.188  25.268  51.827  1.00  0.00     0.020 A 
HETATM   27  C   UNL     1       7.764  24.701  52.968  1.00  0.00     0.014 A 
ENDBRANCH   7  21
TORSDOF 5
ENDMDL
MODEL 2
REMARK VINA RESULT:      -8.8      1.568      2.221
REMARK  5 active torsions:
REMARK  status: ('A' for Active; 'I' for Inactive)
REMARK    1  A    between atoms: C_6  and  N_7 
REMARK       I    between atoms: N_7  and  C_8 
REMARK    2  A    between atoms: C_8  and  C_9 
REMARK    3  A    between atoms: C_9  and  O_10 
REMARK    4  A    between atoms: O_10  and  C_11 
REMARK    5  A    between atoms: C_19  and  C_20 
ROOT
HETATM    1  C   UNL     1       8.521  22.155  55.155  1.00  0.00     0.073 C 
HETATM    2  C   UNL     1       8.191  23.323  56.009  1.00  0.00     0.065 A 
HETATM    3  N   UNL     1       8.579  23.342  57.292  1.00  0.00    -0.177 NA
HETATM    4  N   UNL     1       8.127  24.524  57.748  1.00  0.00    -0.262 N 
HETATM    5  H   UNL     1       8.289  24.786  58.718  1.00  0.00     0.191 HD
HETATM    6  C   UNL     1       7.453  25.260  56.809  1.00  0.00     0.137 A 
HETATM    7  C   UNL     1       7.485  24.506  55.652  1.00  0.00     0.046 A 
ENDROOT
BRANCH   6   8
HETATM    8  N   UNL     1       6.872  26.490  57.062  1.00  0.00    -0.309 N 
HETATM    9  C   UNL     1       7.631  27.615  57.363  1.00  0.00     0.252 C 
HETATM   10  O   UNL     1       8.862  27.621  57.396  1.00  0.00    -0.270 OA
HETATM   11  H   UNL     1       5.859  26.539  57.057  1.00  0.00     0.170 HD
BRANCH   9  12
HETATM   12  C   UNL     1       6.768  28.871  57.618  1.00  0.00     0.217 C 
HETATM   13  C   UNL     1       5.679  28.923  56.546  1.00  0.00     0.050 C 
BRANCH  12  14
HETATM   14  O   UNL     1       7.477  30.105  57.548  1.00  0.00    -0.337 OA
BRANCH  14  15
HETATM   15  C   UNL     1       7.595  30.742  58.755  1.00  0.00     0.070 A 
HETATM   16  C   UNL     1       8.642  30.335  59.580  1.00  0.00     0.037 A 
HETATM   17  C   UNL     1       8.839  30.952  60.814  1.00  0.00     0.003 A 
HETATM   18  C   UNL     1       7.998  31.989  61.216  1.00  0.00     0.000 A 
HETATM   19  C   UNL     1       6.969  32.417  60.377  1.00  0.00     0.003 A 
HETATM   20  C   UNL     1       6.771  31.800  59.140  1.00  0.00     0.037 A 
ENDBRANCH  14  15
ENDBRANCH  12  14
ENDBRANCH   9  12
ENDBRANCH   6   8
BRANCH   7  21
HETATM   21  C   UNL     1       6.883  24.896  54.392  1.00  0.00    -0.020 A 
HETATM   22  C   UNL     1       7.688  25.196  53.286  1.00  0.00     0.014 A 
HETATM   23  C   UNL     1       7.105  25.575  52.074  1.00  0.00     0.020 A 
HETATM   24  C   UNL     1       5.718  25.648  51.967  1.00  0.00     0.011 A 
HETATM   25 BR   UNL     1       4.929  26.161  50.328  1.00  0.00    -0.051 Br
HETATM   26  C   UNL     1       4.907  25.345  53.060  1.00  0.00     0.020 A 
HETATM   27  C   UNL     1       5.490  24.969  54.273  1.00  0.00     0.014 A 
ENDBRANCH   7  21
TORSDOF 5
ENDMDL
MODEL 3
REMARK VINA RESULT:      -8.7      2.832      4.299
REMARK  5 active torsions:
REMARK  status: ('A' for Active; 'I' for Inactive)
REMARK    1  A    between atoms: C_6  and  N_7 
REMARK       I    between atoms: N_7  and  C_8 
REMARK    2  A    between atoms: C_8  and  C_9 
REMARK    3  A    between atoms: C_9  and  O_10 
REMARK    4  A    between atoms: O_10  and  C_11 
REMARK    5  A    between atoms: C_19  and  C_20 
ROOT
HETATM    1  C   UNL     1       5.027  26.383  50.437  1.00  0.00     0.073 C 
HETATM    2  C   UNL     1       5.592  27.248  51.502  1.00  0.00     0.065 A 
HETATM    3  N   UNL     1       5.412  28.575  51.450  1.00  0.00    -0.177 NA
HETATM    4  N   UNL     1       6.036  29.030  52.550  1.00  0.00    -0.262 N 
HETATM    5  H   UNL     1       6.052  30.028  52.746  1.00  0.00     0.191 HD
HETATM    6  C   UNL     1       6.620  28.044  53.304  1.00  0.00     0.137 A 
HETATM    7  C   UNL     1       6.339  26.860  52.650  1.00  0.00     0.046 A 
ENDROOT
BRANCH   6   8
HETATM    8  N   UNL     1       7.344  28.281  54.459  1.00  0.00    -0.309 N 
HETATM    9  C   UNL     1       6.764  28.854  55.586  1.00  0.00     0.252 C 
HETATM   10  O   UNL     1       5.575  29.161  55.662  1.00  0.00    -0.270 OA
HETATM   11  H   UNL     1       8.332  28.054  54.447  1.00  0.00     0.170 HD
BRANCH   9  12
HETATM   12  C   UNL     1       7.766  29.031  56.750  1.00  0.00     0.217 C 
HETATM   13  C   UNL     1       8.412  27.675  57.030  1.00  0.00     0.050 C 
BRANCH  12  14
HETATM   14  O   UNL     1       7.183  29.473  57.974  1.00  0.00    -0.337 OA
BRANCH  14  15
HETATM   15  C   UNL     1       7.898  30.458  58.601  1.00  0.00     0.070 A 
HETATM   16  C   UNL     1       7.225  31.207  59.564  1.00  0.00     0.037 A 
HETATM   17  C   UNL     1       7.894  32.212  60.261  1.00  0.00     0.003 A 
HETATM   18  C   UNL     1       9.243  32.456  60.005  1.00  0.00     0.000 A 
HETATM   19  C   UNL     1       9.924  31.686  59.064  1.00  0.00     0.003 A 
HETATM   20  C   UNL     1       9.256  30.678  58.366  1.00  0.00     0.037 A 
ENDBRANCH  14  15
ENDBRANCH  12  14
ENDBRANCH   9  12
ENDBRANCH   6   8
BRANCH   7  21
HETATM   21  C   UNL     1       6.770  25.548  53.091  1.00  0.00    -0.020 A 
HETATM   22  C   UNL     1       6.320  25.029  54.312  1.00  0.00     0.014 A 
HETATM   23  C   UNL     1       6.739  23.765  54.736  1.00  0.00     0.020 A 
HETATM   24  C   UNL     1       7.604  23.020  53.936  1.00  0.00     0.011 A 
HETATM   25 BR   UNL     1       8.171  21.310  54.509  1.00  0.00    -0.051 Br
HETATM   26  C   UNL     1       8.052  23.524  52.716  1.00  0.00     0.020 A 
HETATM   27  C   UNL     1       7.634  24.789  52.293  1.00  0.00     0.014 A 
ENDBRANCH   7  21
TORSDOF 5
ENDMDL
MODEL 4
REMARK VINA RESULT:      -8.7      3.101      7.113
REMARK  5 active torsions:
REMARK  status: ('A' for Active; 'I' for Inactive)
REMARK    1  A    between atoms: C_6  and  N_7 
REMARK       I    between atoms: N_7  and  C_8 
REMARK    2  A    between atoms: C_8  and  C_9 
REMARK    3  A    between atoms: C_9  and  O_10 
REMARK    4  A    between atoms: O_10  and  C_11 
REMARK    5  A    between atoms: C_19  and  C_20 
ROOT
HETATM    1  C   UNL     1       4.386  29.766  54.330  1.00  0.00     0.073 C 
HETATM    2  C   UNL     1       5.023  28.427  54.385  1.00  0.00     0.065 A 
HETATM    3  N   UNL     1       4.533  27.424  53.643  1.00  0.00    -0.177 NA
HETATM    4  N   UNL     1       5.339  26.387  53.929  1.00  0.00    -0.262 N 
HETATM    5  H   UNL     1       5.174  25.483  53.492  1.00  0.00     0.191 HD
HETATM    6  C   UNL     1       6.324  26.683  54.837  1.00  0.00     0.137 A 
HETATM    7  C   UNL     1       6.152  28.018  55.149  1.00  0.00     0.046 A 
ENDROOT
BRANCH   6   8
HETATM    8  N   UNL     1       7.246  25.764  55.305  1.00  0.00    -0.309 N 
HETATM    9  C   UNL     1       6.934  24.857  56.312  1.00  0.00     0.252 C 
HETATM   10  O   UNL     1       5.825  24.772  56.838  1.00  0.00    -0.270 OA
HETATM   11  H   UNL     1       8.180  25.796  54.911  1.00  0.00     0.170 HD
BRANCH   9  12
HETATM   12  C   UNL     1       8.122  23.936  56.677  1.00  0.00     0.217 C 
HETATM   13  C   UNL     1       8.903  24.599  57.812  1.00  0.00     0.050 C 
BRANCH  12  14
HETATM   14  O   UNL     1       9.046  23.707  55.616  1.00  0.00    -0.337 OA
BRANCH  14  15
HETATM   15  C   UNL     1       8.731  22.628  54.835  1.00  0.00     0.070 A 
HETATM   16  C   UNL     1       8.822  21.372  55.432  1.00  0.00     0.037 A 
HETATM   17  C   UNL     1       8.496  20.228  54.706  1.00  0.00     0.003 A 
HETATM   18  C   UNL     1       8.062  20.341  53.386  1.00  0.00     0.000 A 
HETATM   19  C   UNL     1       7.941  21.600  52.798  1.00  0.00     0.003 A 
HETATM   20  C   UNL     1       8.266  22.747  53.525  1.00  0.00     0.037 A 
ENDBRANCH  14  15
ENDBRANCH  12  14
ENDBRANCH   9  12
ENDBRANCH   6   8
BRANCH   7  21
HETATM   21  C   UNL     1       6.974  28.762  56.083  1.00  0.00    -0.020 A 
HETATM   22  C   UNL     1       6.430  29.232  57.286  1.00  0.00     0.014 A 
HETATM   23  C   UNL     1       7.224  29.951  58.183  1.00  0.00     0.020 A 
HETATM   24  C   UNL     1       8.562  30.195  57.879  1.00  0.00     0.011 A 
HETATM   25 BR   UNL     1       9.636  31.168  59.092  1.00  0.00    -0.051 Br
HETATM   26  C   UNL     1       9.115  29.726  56.689  1.00  0.00     0.020 A 
HETATM   27  C   UNL     1       8.321  29.009  55.790  1.00  0.00     0.014 A 
ENDBRANCH   7  21
TORSDOF 5
ENDMDL
MODEL 5
REMARK VINA RESULT:      -8.4      3.991      7.601
REMARK  5 active torsions:
REMARK  status: ('A' for Active; 'I' for Inactive)
REMARK    1  A    between atoms: C_6  and  N_7 
REMARK       I    between atoms: N_7  and  C_8 
REMARK    2  A    between atoms: C_8  and  C_9 
REMARK    3  A    between atoms: C_9  and  O_10 
REMARK    4  A    between atoms: O_10  and  C_11 
REMARK    5  A    between atoms: C_19  and  C_20 
ROOT
HETATM    1  C   UNL     1       8.021  26.943  57.145  1.00  0.00     0.073 C 
HETATM    2  C   UNL     1       7.500  27.515  55.879  1.00  0.00     0.065 A 
HETATM    3  N   UNL     1       7.209  28.821  55.807  1.00  0.00    -0.177 NA
HETATM    4  N   UNL     1       6.780  28.987  54.543  1.00  0.00    -0.262 N 
HETATM    5  H   UNL     1       6.485  29.908  54.227  1.00  0.00     0.191 HD
HETATM    6  C   UNL     1       6.776  27.833  53.803  1.00  0.00     0.137 A 
HETATM    7  C   UNL     1       7.253  26.848  54.646  1.00  0.00     0.046 A 
ENDROOT
BRANCH   6   8
HETATM    8  N   UNL     1       6.344  27.758  52.491  1.00  0.00    -0.309 N 
HETATM    9  C   UNL     1       5.204  28.423  52.052  1.00  0.00     0.252 C 
HETATM   10  O   UNL     1       4.515  29.147  52.771  1.00  0.00    -0.270 OA
HETATM   11  H   UNL     1       6.870  27.167  51.857  1.00  0.00     0.170 HD
BRANCH   9  12
HETATM   12  C   UNL     1       4.911  28.186  50.553  1.00  0.00     0.217 C 
HETATM   13  C   UNL     1       5.635  29.268  49.752  1.00  0.00     0.050 C 
BRANCH  12  14
HETATM   14  O   UNL     1       3.533  28.260  50.197  1.00  0.00    -0.337 OA
BRANCH  14  15
HETATM   15  C   UNL     1       3.191  27.450  49.147  1.00  0.00     0.070 A 
HETATM   16  C   UNL     1       2.057  27.809  48.420  1.00  0.00     0.037 A 
HETATM   17  C   UNL     1       1.660  27.046  47.323  1.00  0.00     0.003 A 
HETATM   18  C   UNL     1       2.407  25.931  46.944  1.00  0.00     0.000 A 
HETATM   19  C   UNL     1       3.558  25.590  47.653  1.00  0.00     0.003 A 
HETATM   20  C   UNL     1       3.958  26.354  48.750  1.00  0.00     0.037 A 
ENDBRANCH  14  15
ENDBRANCH  12  14
ENDBRANCH   9  12
ENDBRANCH   6   8
BRANCH   7  21
HETATM   21  C   UNL     1       7.414  25.454  54.283  1.00  0.00    -0.020 A 
HETATM   22  C   UNL     1       7.069  24.443  55.189  1.00  0.00     0.014 A 
HETATM   23  C   UNL     1       7.228  23.100  54.837  1.00  0.00     0.020 A 
HETATM   24  C   UNL     1       7.726  22.769  53.578  1.00  0.00     0.011 A 
HETATM   25 BR   UNL     1       7.941  20.953  53.102  1.00  0.00    -0.051 Br
HETATM   26  C   UNL     1       8.065  23.768  52.667  1.00  0.00     0.020 A 
HETATM   27  C   UNL     1       7.908  25.111  53.019  1.00  0.00     0.014 A 
ENDBRANCH   7  21
TORSDOF 5
ENDMDL
MODEL 6
REMARK VINA RESULT:      -8.4      3.626      5.559
REMARK  5 active torsions:
REMARK  status: ('A' for Active; 'I' for Inactive)
REMARK    1  A    between atoms: C_6  and  N_7 
REMARK       I    between atoms: N_7  and  C_8 
REMARK    2  A    between atoms: C_8  and  C_9 
REMARK    3  A    between atoms: C_9  and  O_10 
REMARK    4  A    between atoms: O_10  and  C_11 
REMARK    5  A    between atoms: C_19  and  C_20 
ROOT
HETATM    1  C   UNL     1       4.956  26.937  49.075  1.00  0.00     0.073 C 
HETATM    2  C   UNL     1       4.422  27.464  50.356  1.00  0.00     0.065 A 
HETATM    3  N   UNL     1       3.531  28.464  50.346  1.00  0.00    -0.177 NA
HETATM    4  N   UNL     1       3.268  28.675  51.648  1.00  0.00    -0.262 N 
HETATM    5  H   UNL     1       2.611  29.404  51.919  1.00  0.00     0.191 HD
HETATM    6  C   UNL     1       3.967  27.854  52.495  1.00  0.00     0.137 A 
HETATM    7  C   UNL     1       4.727  27.039  51.679  1.00  0.00     0.046 A 
ENDROOT
BRANCH   6   8
HETATM    8  N   UNL     1       3.882  27.915  53.874  1.00  0.00    -0.309 N 
HETATM    9  C   UNL     1       4.278  29.041  54.587  1.00  0.00     0.252 C 
HETATM   10  O   UNL     1       4.698  30.072  54.061  1.00  0.00    -0.270 OA
HETATM   11  H   UNL     1       3.551  27.088  54.360  1.00  0.00     0.170 HD
BRANCH   9  12
HETATM   12  C   UNL     1       4.102  28.876  56.114  1.00  0.00     0.217 C 
HETATM   13  C   UNL     1       3.409  30.129  56.649  1.00  0.00     0.050 C 
BRANCH  12  14
HETATM   14  O   UNL     1       5.319  28.733  56.842  1.00  0.00    -0.337 OA
BRANCH  14  15
HETATM   15  C   UNL     1       5.877  27.486  56.743  1.00  0.00     0.070 A 
HETATM   16  C   UNL     1       5.031  26.401  56.970  1.00  0.00     0.037 A 
HETATM   17  C   UNL     1       5.522  25.100  56.865  1.00  0.00     0.003 A 
HETATM   18  C   UNL     1       6.855  24.885  56.518  1.00  0.00     0.000 A 
HETATM   19  C   UNL     1       7.692  25.970  56.261  1.00  0.00     0.003 A 
HETATM   20  C   UNL     1       7.202  27.273  56.364  1.00  0.00     0.037 A 
ENDBRANCH  14  15
ENDBRANCH  12  14
ENDBRANCH   9  12
ENDBRANCH   6   8
BRANCH   7  21
HETATM   21  C   UNL     1       5.633  26.011  52.150  1.00  0.00    -0.020 A 
HETATM   22  C   UNL     1       7.019  26.217  52.114  1.00  0.00     0.014 A 
HETATM   23  C   UNL     1       7.890  25.223  52.567  1.00  0.00     0.020 A 
HETATM   24  C   UNL     1       7.376  24.026  53.060  1.00  0.00     0.011 A 
HETATM   25 BR   UNL     1       8.554  22.681  53.672  1.00  0.00    -0.051 Br
HETATM   26  C   UNL     1       5.999  23.812  53.107  1.00  0.00     0.020 A 
HETATM   27  C   UNL     1       5.127  24.805  52.653  1.00  0.00     0.014 A 
ENDBRANCH   7  21
TORSDOF 5
ENDMDL
MODEL 7
REMARK VINA RESULT:      -8.1      4.668      7.556
REMARK  5 active torsions:
REMARK  status: ('A' for Active; 'I' for Inactive)
REMARK    1  A    between atoms: C_6  and  N_7 
REMARK       I    between atoms: N_7  and  C_8 
REMARK    2  A    between atoms: C_8  and  C_9 
REMARK    3  A    between atoms: C_9  and  O_10 
REMARK    4  A    between atoms: O_10  and  C_11 
REMARK    5  A    between atoms: C_19  and  C_20 
ROOT
HETATM    1  C   UNL     1       2.714  28.011  47.730  1.00  0.00     0.073 C 
HETATM    2  C   UNL     1       3.543  27.319  48.748  1.00  0.00     0.065 A 
HETATM    3  N   UNL     1       3.537  25.981  48.816  1.00  0.00    -0.177 NA
HETATM    4  N   UNL     1       4.385  25.705  49.822  1.00  0.00    -0.262 N 
HETATM    5  H   UNL     1       4.557  24.737  50.087  1.00  0.00     0.191 HD
HETATM    6  C   UNL     1       4.929  26.818  50.410  1.00  0.00     0.137 A 
HETATM    7  C   UNL     1       4.405  27.895  49.722  1.00  0.00     0.046 A 
ENDROOT
BRANCH   6   8
HETATM    8  N   UNL     1       5.800  26.777  51.484  1.00  0.00    -0.309 N 
HETATM    9  C   UNL     1       5.623  25.892  52.542  1.00  0.00     0.252 C 
HETATM   10  O   UNL     1       4.714  25.063  52.596  1.00  0.00    -0.270 OA
HETATM   11  H   UNL     1       6.562  27.445  51.494  1.00  0.00     0.170 HD
BRANCH   9  12
HETATM   12  C   UNL     1       6.712  26.033  53.630  1.00  0.00     0.217 C 
HETATM   13  C   UNL     1       7.055  27.516  53.768  1.00  0.00     0.050 C 
BRANCH  12  14
HETATM   14  O   UNL     1       7.930  25.350  53.345  1.00  0.00    -0.337 OA
BRANCH  14  15
HETATM   15  C   UNL     1       7.915  24.026  53.695  1.00  0.00     0.070 A 
HETATM   16  C   UNL     1       7.783  23.737  55.052  1.00  0.00     0.037 A 
HETATM   17  C   UNL     1       7.738  22.412  55.483  1.00  0.00     0.003 A 
HETATM   18  C   UNL     1       7.807  21.376  54.553  1.00  0.00     0.000 A 
HETATM   19  C   UNL     1       7.909  21.666  53.192  1.00  0.00     0.003 A 
HETATM   20  C   UNL     1       7.953  22.992  52.760  1.00  0.00     0.037 A 
ENDBRANCH  14  15
ENDBRANCH  12  14
ENDBRANCH   9  12
ENDBRANCH   6   8
BRANCH   7  21
HETATM   21  C   UNL     1       4.703  29.284  50.009  1.00  0.00    -0.020 A 
HETATM   22  C   UNL     1       5.679  29.967  49.271  1.00  0.00     0.014 A 
HETATM   23  C   UNL     1       5.966  31.305  49.552  1.00  0.00     0.020 A 
HETATM   24  C   UNL     1       5.273  31.962  50.568  1.00  0.00     0.011 A 
HETATM   25 BR   UNL     1       5.661  33.772  50.948  1.00  0.00    -0.051 Br
HETATM   26  C   UNL     1       4.295  31.294  51.303  1.00  0.00     0.020 A 
HETATM   27  C   UNL     1       4.010  29.955  51.024  1.00  0.00     0.014 A 
ENDBRANCH   7  21
TORSDOF 5
ENDMDL
MODEL 8
REMARK VINA RESULT:      -8.1      3.603      6.829
REMARK  5 active torsions:
REMARK  status: ('A' for Active; 'I' for Inactive)
REMARK    1  A    between atoms: C_6  and  N_7 
REMARK       I    between atoms: N_7  and  C_8 
REMARK    2  A    between atoms: C_8  and  C_9 
REMARK    3  A    between atoms: C_9  and  O_10 
REMARK    4  A    between atoms: O_10  and  C_11 
REMARK    5  A    between atoms: C_19  and  C_20 
ROOT
HETATM    1  C   UNL     1       3.557  30.578  55.526  1.00  0.00     0.073 C 
HETATM    2  C   UNL     1       4.316  29.303  55.497  1.00  0.00     0.065 A 
HETATM    3  N   UNL     1       4.711  28.735  56.645  1.00  0.00    -0.177 NA
HETATM    4  N   UNL     1       5.349  27.620  56.250  1.00  0.00    -0.262 N 
HETATM    5  H   UNL     1       5.759  27.000  56.945  1.00  0.00     0.191 HD
HETATM    6  C   UNL     1       5.388  27.455  54.890  1.00  0.00     0.137 A 
HETATM    7  C   UNL     1       4.709  28.537  54.364  1.00  0.00     0.046 A 
ENDROOT
BRANCH   6   8
HETATM    8  N   UNL     1       6.020  26.399  54.257  1.00  0.00    -0.309 N 
HETATM    9  C   UNL     1       7.206  25.856  54.739  1.00  0.00     0.252 C 
HETATM   10  O   UNL     1       7.766  26.237  55.766  1.00  0.00    -0.270 OA
HETATM   11  H   UNL     1       5.605  26.051  53.399  1.00  0.00     0.170 HD
BRANCH   9  12
HETATM   12  C   UNL     1       7.731  24.694  53.865  1.00  0.00     0.217 C 
HETATM   13  C   UNL     1       7.848  25.197  52.426  1.00  0.00     0.050 C 
BRANCH  12  14
HETATM   14  O   UNL     1       6.889  23.544  53.835  1.00  0.00    -0.337 OA
BRANCH  14  15
HETATM   15  C   UNL     1       7.550  22.370  54.079  1.00  0.00     0.070 A 
HETATM   16  C   UNL     1       7.716  22.009  55.415  1.00  0.00     0.037 A 
HETATM   17  C   UNL     1       8.360  20.817  55.741  1.00  0.00     0.003 A 
HETATM   18  C   UNL     1       8.822  19.976  54.730  1.00  0.00     0.000 A 
HETATM   19  C   UNL     1       8.627  20.322  53.393  1.00  0.00     0.003 A 
HETATM   20  C   UNL     1       7.982  21.516  53.064  1.00  0.00     0.037 A 
ENDBRANCH  14  15
ENDBRANCH  12  14
ENDBRANCH   9  12
ENDBRANCH   6   8
BRANCH   7  21
HETATM   21  C   UNL     1       4.507  28.780  52.950  1.00  0.00    -0.020 A 
HETATM   22  C   UNL     1       3.218  28.733  52.401  1.00  0.00     0.014 A 
HETATM   23  C   UNL     1       3.026  28.964  51.036  1.00  0.00     0.020 A 
HETATM   24  C   UNL     1       4.122  29.248  50.223  1.00  0.00     0.011 A 
HETATM   25 BR   UNL     1       3.863  29.561  48.377  1.00  0.00    -0.051 Br
HETATM   26  C   UNL     1       5.407  29.303  50.760  1.00  0.00     0.020 A 
HETATM   27  C   UNL     1       5.600  29.070  52.124  1.00  0.00     0.014 A 
ENDBRANCH   7  21
TORSDOF 5
ENDMDL
MODEL 9
REMARK VINA RESULT:      -8.0      2.828      5.342
REMARK  5 active torsions:
REMARK  status: ('A' for Active; 'I' for Inactive)
REMARK    1  A    between atoms: C_6  and  N_7 
REMARK       I    between atoms: N_7  and  C_8 
REMARK    2  A    between atoms: C_8  and  C_9 
REMARK    3  A    between atoms: C_9  and  O_10 
REMARK    4  A    between atoms: O_10  and  C_11 
REMARK    5  A    between atoms: C_19  and  C_20 
ROOT
HETATM    1  C   UNL     1       5.284  27.408  49.866  1.00  0.00     0.073 C 
HETATM    2  C   UNL     1       5.401  27.984  51.229  1.00  0.00     0.065 A 
HETATM    3  N   UNL     1       5.025  29.250  51.452  1.00  0.00    -0.177 NA
HETATM    4  N   UNL     1       5.256  29.430  52.764  1.00  0.00    -0.262 N 
HETATM    5  H   UNL     1       5.056  30.330  53.194  1.00  0.00     0.191 HD
HETATM    6  C   UNL     1       5.778  28.327  53.391  1.00  0.00     0.137 A 
HETATM    7  C   UNL     1       5.876  27.356  52.413  1.00  0.00     0.046 A 
ENDROOT
BRANCH   6   8
HETATM    8  N   UNL     1       6.126  28.291  54.729  1.00  0.00    -0.309 N 
HETATM    9  C   UNL     1       7.446  28.417  55.150  1.00  0.00     0.252 C 
HETATM   10  O   UNL     1       8.393  28.602  54.386  1.00  0.00    -0.270 OA
HETATM   11  H   UNL     1       5.384  28.132  55.402  1.00  0.00     0.170 HD
BRANCH   9  12
HETATM   12  C   UNL     1       7.595  28.338  56.687  1.00  0.00     0.217 C 
HETATM   13  C   UNL     1       8.062  29.704  57.189  1.00  0.00     0.050 C 
BRANCH  12  14
HETATM   14  O   UNL     1       8.547  27.380  57.143  1.00  0.00    -0.337 OA
BRANCH  14  15
HETATM   15  C   UNL     1       8.145  26.081  56.978  1.00  0.00     0.070 A 
HETATM   16  C   UNL     1       6.771  25.848  56.949  1.00  0.00     0.037 A 
HETATM   17  C   UNL     1       6.287  24.555  56.762  1.00  0.00     0.003 A 
HETATM   18  C   UNL     1       7.177  23.496  56.586  1.00  0.00     0.000 A 
HETATM   19  C   UNL     1       8.552  23.735  56.584  1.00  0.00     0.003 A 
HETATM   20  C   UNL     1       9.038  25.030  56.770  1.00  0.00     0.037 A 
ENDBRANCH  14  15
ENDBRANCH  12  14
ENDBRANCH   9  12
ENDBRANCH   6   8
BRANCH   7  21
HETATM   21  C   UNL     1       6.387  26.016  52.627  1.00  0.00    -0.020 A 
HETATM   22  C   UNL     1       7.765  25.766  52.566  1.00  0.00     0.014 A 
HETATM   23  C   UNL     1       8.254  24.473  52.769  1.00  0.00     0.020 A 
HETATM   24  C   UNL     1       7.366  23.432  53.038  1.00  0.00     0.011 A 
HETATM   25 BR   UNL     1       8.028  21.683  53.313  1.00  0.00    -0.051 Br
HETATM   26  C   UNL     1       5.995  23.672  53.108  1.00  0.00     0.020 A 
HETATM   27  C   UNL     1       5.505  24.964  52.903  1.00  0.00     0.014 A 
ENDBRANCH   7  21
TORSDOF 5
ENDMDL
MODEL 10
REMARK VINA RESULT:      -7.8      3.084      6.306
REMARK  5 active torsions:
REMARK  status: ('A' for Active; 'I' for Inactive)
REMARK    1  A    between atoms: C_6  and  N_7 
REMARK       I    between atoms: N_7  and  C_8 
REMARK    2  A    between atoms: C_8  and  C_9 
REMARK    3  A    between atoms: C_9  and  O_10 
REMARK    4  A    between atoms: O_10  and  C_11 
REMARK    5  A    between atoms: C_19  and  C_20 
ROOT
HETATM    1  C   UNL     1       3.411  30.527  54.848  1.00  0.00     0.073 C 
HETATM    2  C   UNL     1       4.339  29.552  55.472  1.00  0.00     0.065 A 
HETATM    3  N   UNL     1       4.651  29.666  56.771  1.00  0.00    -0.177 NA
HETATM    4  N   UNL     1       5.488  28.637  56.993  1.00  0.00    -0.262 N 
HETATM    5  H   UNL     1       5.883  28.498  57.920  1.00  0.00     0.191 HD
HETATM    6  C   UNL     1       5.733  27.871  55.882  1.00  0.00     0.137 A 
HETATM    7  C   UNL     1       4.986  28.439  54.867  1.00  0.00     0.046 A 
ENDROOT
BRANCH   6   8
HETATM    8  N   UNL     1       6.587  26.783  55.866  1.00  0.00    -0.309 N 
HETATM    9  C   UNL     1       6.335  25.639  56.616  1.00  0.00     0.252 C 
HETATM   10  O   UNL     1       5.334  25.487  57.317  1.00  0.00    -0.270 OA
HETATM   11  H   UNL     1       7.432  26.859  55.312  1.00  0.00     0.170 HD
BRANCH   9  12
HETATM   12  C   UNL     1       7.429  24.560  56.449  1.00  0.00     0.217 C 
HETATM   13  C   UNL     1       8.607  24.936  57.348  1.00  0.00     0.050 C 
BRANCH  12  14
HETATM   14  O   UNL     1       7.942  24.433  55.125  1.00  0.00    -0.337 OA
BRANCH  14  15
HETATM   15  C   UNL     1       7.942  23.146  54.655  1.00  0.00     0.070 A 
HETATM   16  C   UNL     1       7.806  22.132  55.602  1.00  0.00     0.037 A 
HETATM   17  C   UNL     1       7.776  20.799  55.198  1.00  0.00     0.003 A 
HETATM   18  C   UNL     1       7.864  20.480  53.843  1.00  0.00     0.000 A 
HETATM   19  C   UNL     1       7.970  21.497  52.894  1.00  0.00     0.003 A 
HETATM   20  C   UNL     1       7.999  22.833  53.297  1.00  0.00     0.037 A 
ENDBRANCH  14  15
ENDBRANCH  12  14
ENDBRANCH   9  12
ENDBRANCH   6   8
BRANCH   7  21
HETATM   21  C   UNL     1       4.944  27.956  53.501  1.00  0.00    -0.020 A 
HETATM   22  C   UNL     1       5.055  28.852  52.430  1.00  0.00     0.014 A 
HETATM   23  C   UNL     1       5.011  28.385  51.114  1.00  0.00     0.020 A 
HETATM   24  C   UNL     1       4.863  27.020  50.870  1.00  0.00     0.011 A 
HETATM   25 BR   UNL     1       4.805  26.387  49.090  1.00  0.00    -0.051 Br
HETATM   26  C   UNL     1       4.760  26.119  51.928  1.00  0.00     0.020 A 
HETATM   27  C   UNL     1       4.801  26.587  53.245  1.00  0.00     0.014 A 
ENDBRANCH   7  21
TORSDOF 5
ENDMDL
