MODEL 1
REMARK VINA RESULT:     -11.5      0.000      0.000
REMARK  6 active torsions:
REMARK  status: ('A' for Active; 'I' for Inactive)
REMARK    1  A    between atoms: C_4  and  C_5 
REMARK    2  A    between atoms: C_5  and  N_6 
REMARK    3  A    between atoms: C_14  and  C_15 
REMARK    4  A    between atoms: C_18  and  O_19 
REMARK    5  A    between atoms: O_19  and  C_20 
REMARK    6  A    between atoms: C_20  and  C_21 
ROOT
HETATM    1  N   UNL     1       5.413  32.779  61.639  1.00  0.00    -0.063 N 
HETATM    2  H   UNL     1       5.453  31.818  61.999  1.00  0.00     0.280 HD
HETATM    3  C   UNL     1       4.729  32.664  60.285  1.00  0.00     0.282 C 
HETATM    4  C   UNL     1       5.597  31.905  59.340  1.00  0.00     0.018 A 
HETATM    5  C   UNL     1       6.951  31.680  59.512  1.00  0.00    -0.023 A 
HETATM    6  C   UNL     1       7.497  30.950  58.407  1.00  0.00     0.073 A 
HETATM    7  C   UNL     1       6.548  30.694  57.447  1.00  0.00     0.088 A 
HETATM    8  N   UNL     1       6.815  30.065  56.287  1.00  0.00    -0.358 N 
HETATM    9  C   UNL     1       8.059  29.347  56.124  1.00  0.00     0.219 C 
HETATM   10  N   UNL     1       9.081  29.842  57.013  1.00  0.00    -0.332 N 
HETATM   11  C   UNL     1       8.857  30.502  58.188  1.00  0.00     0.256 C 
HETATM   12  O   UNL     1       9.757  30.701  58.997  1.00  0.00    -0.267 OA
HETATM   13  S   UNL     1       5.007  31.270  57.877  1.00  0.00    -0.074 SA
HETATM   14  C   UNL     1       7.679  32.167  60.730  1.00  0.00     0.068 C 
HETATM   15  C   UNL     1       6.862  33.230  61.490  1.00  0.00     0.240 C 
HETATM   16  H   UNL     1       6.046  29.724  55.717  1.00  0.00     0.162 HD
HETATM   17  H   UNL     1      10.018  29.484  56.896  1.00  0.00     0.165 HD
ENDROOT
BRANCH   9  18
HETATM   18  C   UNL     1       7.822  27.853  56.240  1.00  0.00    -0.016 A 
HETATM   19  C   UNL     1       7.218  27.169  55.169  1.00  0.00     0.014 A 
HETATM   20  C   UNL     1       6.981  25.791  55.229  1.00  0.00     0.037 A 
HETATM   21  C   UNL     1       7.350  25.068  56.361  1.00  0.00     0.069 A 
HETATM   22  C   UNL     1       7.916  25.742  57.444  1.00  0.00     0.037 A 
HETATM   23  C   UNL     1       8.149  27.119  57.390  1.00  0.00     0.014 A 
BRANCH  21  24
HETATM   24  O   UNL     1       7.204  23.720  56.537  1.00  0.00    -0.347 OA
BRANCH  24  25
HETATM   25  C   UNL     1       8.396  22.935  56.529  1.00  0.00     0.214 C 
BRANCH  25  26
HETATM   26  C   UNL     1       8.391  22.071  55.293  1.00  0.00    -0.034 A 
HETATM   27  C   UNL     1       7.986  22.599  54.058  1.00  0.00     0.009 A 
HETATM   28  C   UNL     1       7.982  21.799  52.914  1.00  0.00     0.001 A 
HETATM   29  C   UNL     1       8.374  20.463  52.994  1.00  0.00     0.000 A 
HETATM   30  C   UNL     1       8.768  19.926  54.217  1.00  0.00     0.001 A 
HETATM   31  C   UNL     1       8.773  20.724  55.362  1.00  0.00     0.009 A 
ENDBRANCH  25  26
ENDBRANCH  24  25
ENDBRANCH  21  24
ENDBRANCH   9  18
BRANCH   1  32
HETATM   32  C   UNL     1       4.616  33.559  62.654  1.00  0.00     0.273 C 
BRANCH  32  33
HETATM   33  C   UNL     1       5.236  33.686  64.019  1.00  0.00    -0.033 A 
HETATM   34  C   UNL     1       4.432  33.936  65.144  1.00  0.00     0.009 A 
HETATM   35  C   UNL     1       5.006  34.088  66.406  1.00  0.00     0.001 A 
HETATM   36  C   UNL     1       6.386  33.988  66.562  1.00  0.00     0.000 A 
HETATM   37  C   UNL     1       7.194  33.726  65.459  1.00  0.00     0.001 A 
HETATM   38  C   UNL     1       6.624  33.572  64.194  1.00  0.00     0.009 A 
ENDBRANCH  32  33
ENDBRANCH   1  32
TORSDOF 6
ENDMDL
MODEL 2
REMARK VINA RESULT:     -11.2      1.511      2.088
REMARK  6 active torsions:
REMARK  status: ('A' for Active; 'I' for Inactive)
REMARK    1  A    between atoms: C_4  and  C_5 
REMARK    2  A    between atoms: C_5  and  N_6 
REMARK    3  A    between atoms: C_14  and  C_15 
REMARK    4  A    between atoms: C_18  and  O_19 
REMARK    5  A    between atoms: O_19  and  C_20 
REMARK    6  A    between atoms: C_20  and  C_21 
ROOT
HETATM    1  N   UNL     1       4.513  33.454  62.764  1.00  0.00    -0.063 N 
HETATM    2  H   UNL     1       4.177  32.488  62.853  1.00  0.00     0.280 HD
HETATM    3  C   UNL     1       4.461  33.753  61.273  1.00  0.00     0.282 C 
HETATM    4  C   UNL     1       5.451  32.905  60.549  1.00  0.00     0.018 A 
HETATM    5  C   UNL     1       6.514  32.247  61.140  1.00  0.00    -0.023 A 
HETATM    6  C   UNL     1       7.295  31.549  60.164  1.00  0.00     0.073 A 
HETATM    7  C   UNL     1       6.812  31.742  58.892  1.00  0.00     0.088 A 
HETATM    8  N   UNL     1       7.395  31.234  57.790  1.00  0.00    -0.358 N 
HETATM    9  C   UNL     1       8.393  30.194  57.914  1.00  0.00     0.219 C 
HETATM   10  N   UNL     1       9.023  30.213  59.211  1.00  0.00    -0.332 N 
HETATM   11  C   UNL     1       8.479  30.735  60.350  1.00  0.00     0.256 C 
HETATM   12  O   UNL     1       8.971  30.525  61.453  1.00  0.00    -0.267 OA
HETATM   13  S   UNL     1       5.409  32.702  58.862  1.00  0.00    -0.074 SA
HETATM   14  C   UNL     1       6.747  32.302  62.622  1.00  0.00     0.068 C 
HETATM   15  C   UNL     1       5.949  33.447  63.277  1.00  0.00     0.240 C 
HETATM   16  H   UNL     1       6.885  31.235  56.911  1.00  0.00     0.162 HD
HETATM   17  H   UNL     1       9.814  29.602  59.355  1.00  0.00     0.165 HD
ENDROOT
BRANCH   9  18
HETATM   18  C   UNL     1       7.797  28.849  57.546  1.00  0.00    -0.016 A 
HETATM   19  C   UNL     1       6.398  28.715  57.473  1.00  0.00     0.014 A 
HETATM   20  C   UNL     1       5.803  27.494  57.135  1.00  0.00     0.037 A 
HETATM   21  C   UNL     1       6.596  26.383  56.856  1.00  0.00     0.069 A 
HETATM   22  C   UNL     1       7.983  26.495  56.961  1.00  0.00     0.037 A 
HETATM   23  C   UNL     1       8.581  27.711  57.305  1.00  0.00     0.014 A 
BRANCH  21  24
HETATM   24  O   UNL     1       6.147  25.147  56.486  1.00  0.00    -0.347 OA
BRANCH  24  25
HETATM   25  C   UNL     1       5.929  24.929  55.092  1.00  0.00     0.214 C 
BRANCH  25  26
HETATM   26  C   UNL     1       6.868  23.844  54.626  1.00  0.00    -0.034 A 
HETATM   27  C   UNL     1       7.075  23.623  53.256  1.00  0.00     0.009 A 
HETATM   28  C   UNL     1       7.943  22.619  52.825  1.00  0.00     0.001 A 
HETATM   29  C   UNL     1       8.608  21.822  53.757  1.00  0.00     0.000 A 
HETATM   30  C   UNL     1       8.402  22.027  55.120  1.00  0.00     0.001 A 
HETATM   31  C   UNL     1       7.534  23.030  55.553  1.00  0.00     0.009 A 
ENDBRANCH  25  26
ENDBRANCH  24  25
ENDBRANCH  21  24
ENDBRANCH   9  18
BRANCH   1  32
HETATM   32  C   UNL     1       3.561  34.290  63.581  1.00  0.00     0.273 C 
BRANCH  32  33
HETATM   33  C   UNL     1       4.060  34.720  64.934  1.00  0.00    -0.033 A 
HETATM   34  C   UNL     1       4.178  36.085  65.247  1.00  0.00     0.009 A 
HETATM   35  C   UNL     1       4.673  36.488  66.487  1.00  0.00     0.001 A 
HETATM   36  C   UNL     1       5.050  35.536  67.431  1.00  0.00     0.000 A 
HETATM   37  C   UNL     1       4.925  34.180  67.141  1.00  0.00     0.001 A 
HETATM   38  C   UNL     1       4.430  33.772  65.901  1.00  0.00     0.009 A 
ENDBRANCH  32  33
ENDBRANCH   1  32
TORSDOF 6
ENDMDL
MODEL 3
REMARK VINA RESULT:     -11.1      1.282      1.771
REMARK  6 active torsions:
REMARK  status: ('A' for Active; 'I' for Inactive)
REMARK    1  A    between atoms: C_4  and  C_5 
REMARK    2  A    between atoms: C_5  and  N_6 
REMARK    3  A    between atoms: C_14  and  C_15 
REMARK    4  A    between atoms: C_18  and  O_19 
REMARK    5  A    between atoms: O_19  and  C_20 
REMARK    6  A    between atoms: C_20  and  C_21 
ROOT
HETATM    1  N   UNL     1       5.647  32.706  61.920  1.00  0.00    -0.063 N 
HETATM    2  H   UNL     1       5.669  31.730  62.235  1.00  0.00     0.280 HD
HETATM    3  C   UNL     1       4.917  32.674  60.585  1.00  0.00     0.282 C 
HETATM    4  C   UNL     1       5.730  31.935  59.578  1.00  0.00     0.018 A 
HETATM    5  C   UNL     1       7.081  31.662  59.695  1.00  0.00    -0.023 A 
HETATM    6  C   UNL     1       7.569  30.968  58.541  1.00  0.00     0.073 A 
HETATM    7  C   UNL     1       6.582  30.784  57.603  1.00  0.00     0.088 A 
HETATM    8  N   UNL     1       6.791  30.202  56.407  1.00  0.00    -0.358 N 
HETATM    9  C   UNL     1       8.008  29.455  56.170  1.00  0.00     0.219 C 
HETATM   10  N   UNL     1       9.072  29.879  57.046  1.00  0.00    -0.332 N 
HETATM   11  C   UNL     1       8.907  30.491  58.256  1.00  0.00     0.256 C 
HETATM   12  O   UNL     1       9.838  30.627  59.042  1.00  0.00    -0.267 OA
HETATM   13  S   UNL     1       5.074  31.384  58.109  1.00  0.00    -0.074 SA
HETATM   14  C   UNL     1       7.863  32.071  60.908  1.00  0.00     0.068 C 
HETATM   15  C   UNL     1       7.104  33.122  61.742  1.00  0.00     0.240 C 
HETATM   16  H   UNL     1       5.995  29.910  55.848  1.00  0.00     0.162 HD
HETATM   17  H   UNL     1       9.993  29.500  56.881  1.00  0.00     0.165 HD
ENDROOT
BRANCH   9  18
HETATM   18  C   UNL     1       7.728  27.966  56.227  1.00  0.00    -0.016 A 
HETATM   19  C   UNL     1       7.360  27.291  55.048  1.00  0.00     0.014 A 
HETATM   20  C   UNL     1       7.095  25.917  55.051  1.00  0.00     0.037 A 
HETATM   21  C   UNL     1       7.199  25.188  56.234  1.00  0.00     0.069 A 
HETATM   22  C   UNL     1       7.528  25.853  57.416  1.00  0.00     0.037 A 
HETATM   23  C   UNL     1       7.788  27.226  57.417  1.00  0.00     0.014 A 
BRANCH  21  24
HETATM   24  O   UNL     1       6.998  23.843  56.369  1.00  0.00    -0.347 OA
BRANCH  24  25
HETATM   25  C   UNL     1       8.161  23.027  56.518  1.00  0.00     0.214 C 
BRANCH  25  26
HETATM   26  C   UNL     1       8.249  22.099  55.333  1.00  0.00    -0.034 A 
HETATM   27  C   UNL     1       7.840  22.528  54.062  1.00  0.00     0.009 A 
HETATM   28  C   UNL     1       7.922  21.668  52.965  1.00  0.00     0.001 A 
HETATM   29  C   UNL     1       8.405  20.371  53.129  1.00  0.00     0.000 A 
HETATM   30  C   UNL     1       8.804  19.931  54.389  1.00  0.00     0.001 A 
HETATM   31  C   UNL     1       8.724  20.789  55.487  1.00  0.00     0.009 A 
ENDBRANCH  25  26
ENDBRANCH  24  25
ENDBRANCH  21  24
ENDBRANCH   9  18
BRANCH   1  32
HETATM   32  C   UNL     1       4.908  33.462  62.995  1.00  0.00     0.273 C 
BRANCH  32  33
HETATM   33  C   UNL     1       4.779  34.946  62.784  1.00  0.00    -0.033 A 
HETATM   34  C   UNL     1       3.664  35.474  62.110  1.00  0.00     0.009 A 
HETATM   35  C   UNL     1       3.557  36.846  61.882  1.00  0.00     0.001 A 
HETATM   36  C   UNL     1       4.556  37.708  62.327  1.00  0.00     0.000 A 
HETATM   37  C   UNL     1       5.660  37.201  63.008  1.00  0.00     0.001 A 
HETATM   38  C   UNL     1       5.771  35.829  63.239  1.00  0.00     0.009 A 
ENDBRANCH  32  33
ENDBRANCH   1  32
TORSDOF 6
ENDMDL
MODEL 4
REMARK VINA RESULT:     -10.6      2.816     11.868
REMARK  6 active torsions:
REMARK  status: ('A' for Active; 'I' for Inactive)
REMARK    1  A    between atoms: C_4  and  C_5 
REMARK    2  A    between atoms: C_5  and  N_6 
REMARK    3  A    between atoms: C_14  and  C_15 
REMARK    4  A    between atoms: C_18  and  O_19 
REMARK    5  A    between atoms: O_19  and  C_20 
REMARK    6  A    between atoms: C_20  and  C_21 
ROOT
HETATM    1  N   UNL     1       6.793  25.697  57.129  1.00  0.00    -0.063 N 
HETATM    2  H   UNL     1       6.308  25.639  58.032  1.00  0.00     0.280 HD
HETATM    3  C   UNL     1       7.855  26.770  57.320  1.00  0.00     0.282 C 
HETATM    4  C   UNL     1       7.207  28.096  57.525  1.00  0.00     0.018 A 
HETATM    5  C   UNL     1       5.895  28.396  57.208  1.00  0.00    -0.023 A 
HETATM    6  C   UNL     1       5.595  29.767  57.494  1.00  0.00     0.073 A 
HETATM    7  C   UNL     1       6.693  30.438  57.975  1.00  0.00     0.088 A 
HETATM    8  N   UNL     1       6.689  31.751  58.275  1.00  0.00    -0.358 N 
HETATM    9  C   UNL     1       5.435  32.460  58.401  1.00  0.00     0.219 C 
HETATM   10  N   UNL     1       4.379  31.809  57.665  1.00  0.00    -0.332 N 
HETATM   11  C   UNL     1       4.350  30.487  57.322  1.00  0.00     0.256 C 
HETATM   12  O   UNL     1       3.332  29.955  56.892  1.00  0.00    -0.267 OA
HETATM   13  S   UNL     1       8.057  29.437  58.134  1.00  0.00    -0.074 SA
HETATM   14  C   UNL     1       4.967  27.360  56.644  1.00  0.00     0.068 C 
HETATM   15  C   UNL     1       5.741  26.135  56.116  1.00  0.00     0.240 C 
HETATM   16  H   UNL     1       7.457  32.141  58.813  1.00  0.00     0.162 HD
HETATM   17  H   UNL     1       3.493  32.288  57.596  1.00  0.00     0.165 HD
ENDROOT
BRANCH   9  18
HETATM   18  C   UNL     1       5.107  32.689  59.864  1.00  0.00    -0.016 A 
HETATM   19  C   UNL     1       3.774  32.563  60.297  1.00  0.00     0.014 A 
HETATM   20  C   UNL     1       3.424  32.763  61.637  1.00  0.00     0.037 A 
HETATM   21  C   UNL     1       4.403  33.089  62.574  1.00  0.00     0.069 A 
HETATM   22  C   UNL     1       5.722  33.252  62.149  1.00  0.00     0.037 A 
HETATM   23  C   UNL     1       6.074  33.059  60.810  1.00  0.00     0.014 A 
BRANCH  21  24
HETATM   24  O   UNL     1       4.203  33.280  63.912  1.00  0.00    -0.347 OA
BRANCH  24  25
HETATM   25  C   UNL     1       3.299  34.319  64.288  1.00  0.00     0.214 C 
BRANCH  25  26
HETATM   26  C   UNL     1       3.852  35.634  63.799  1.00  0.00    -0.034 A 
HETATM   27  C   UNL     1       5.002  36.184  64.385  1.00  0.00     0.009 A 
HETATM   28  C   UNL     1       5.512  37.402  63.933  1.00  0.00     0.001 A 
HETATM   29  C   UNL     1       4.877  38.084  62.896  1.00  0.00     0.000 A 
HETATM   30  C   UNL     1       3.729  37.551  62.313  1.00  0.00     0.001 A 
HETATM   31  C   UNL     1       3.217  36.335  62.764  1.00  0.00     0.009 A 
ENDBRANCH  25  26
ENDBRANCH  24  25
ENDBRANCH  21  24
ENDBRANCH   9  18
BRANCH   1  32
HETATM   32  C   UNL     1       7.360  24.321  56.886  1.00  0.00     0.273 C 
BRANCH  32  33
HETATM   33  C   UNL     1       7.528  23.926  55.444  1.00  0.00    -0.033 A 
HETATM   34  C   UNL     1       7.484  22.573  55.068  1.00  0.00     0.009 A 
HETATM   35  C   UNL     1       7.673  22.199  53.737  1.00  0.00     0.001 A 
HETATM   36  C   UNL     1       7.902  23.170  52.766  1.00  0.00     0.000 A 
HETATM   37  C   UNL     1       7.934  24.517  53.121  1.00  0.00     0.001 A 
HETATM   38  C   UNL     1       7.745  24.895  54.451  1.00  0.00     0.009 A 
ENDBRANCH  32  33
ENDBRANCH   1  32
TORSDOF 6
ENDMDL
MODEL 5
REMARK VINA RESULT:     -10.5      2.361      2.924
REMARK  6 active torsions:
REMARK  status: ('A' for Active; 'I' for Inactive)
REMARK    1  A    between atoms: C_4  and  C_5 
REMARK    2  A    between atoms: C_5  and  N_6 
REMARK    3  A    between atoms: C_14  and  C_15 
REMARK    4  A    between atoms: C_18  and  O_19 
REMARK    5  A    between atoms: O_19  and  C_20 
REMARK    6  A    between atoms: C_20  and  C_21 
ROOT
HETATM    1  N   UNL     1       4.743  34.094  60.659  1.00  0.00    -0.063 N 
HETATM    2  H   UNL     1       5.677  33.673  60.594  1.00  0.00     0.280 HD
HETATM    3  C   UNL     1       3.785  32.915  60.745  1.00  0.00     0.282 C 
HETATM    4  C   UNL     1       3.803  32.150  59.466  1.00  0.00     0.018 A 
HETATM    5  C   UNL     1       4.289  32.628  58.263  1.00  0.00    -0.023 A 
HETATM    6  C   UNL     1       4.127  31.659  57.220  1.00  0.00     0.073 A 
HETATM    7  C   UNL     1       3.500  30.524  57.673  1.00  0.00     0.088 A 
HETATM    8  N   UNL     1       3.185  29.481  56.881  1.00  0.00    -0.358 N 
HETATM    9  C   UNL     1       3.773  29.372  55.563  1.00  0.00     0.219 C 
HETATM   10  N   UNL     1       4.193  30.656  55.060  1.00  0.00    -0.332 N 
HETATM   11  C   UNL     1       4.503  31.745  55.823  1.00  0.00     0.256 C 
HETATM   12  O   UNL     1       5.058  32.729  55.348  1.00  0.00    -0.267 OA
HETATM   13  S   UNL     1       3.152  30.584  59.336  1.00  0.00    -0.074 SA
HETATM   14  C   UNL     1       4.898  33.994  58.148  1.00  0.00     0.068 C 
HETATM   15  C   UNL     1       4.544  34.874  59.364  1.00  0.00     0.240 C 
HETATM   16  H   UNL     1       2.915  28.598  57.303  1.00  0.00     0.162 HD
HETATM   17  H   UNL     1       4.509  30.702  54.102  1.00  0.00     0.165 HD
ENDROOT
BRANCH   9  18
HETATM   18  C   UNL     1       4.873  28.327  55.565  1.00  0.00    -0.016 A 
HETATM   19  C   UNL     1       4.777  27.231  56.441  1.00  0.00     0.014 A 
HETATM   20  C   UNL     1       5.766  26.241  56.476  1.00  0.00     0.037 A 
HETATM   21  C   UNL     1       6.869  26.326  55.629  1.00  0.00     0.069 A 
HETATM   22  C   UNL     1       6.992  27.428  54.782  1.00  0.00     0.037 A 
HETATM   23  C   UNL     1       6.010  28.421  54.749  1.00  0.00     0.014 A 
BRANCH  21  24
HETATM   24  O   UNL     1       7.886  25.417  55.541  1.00  0.00    -0.347 OA
BRANCH  24  25
HETATM   25  C   UNL     1       7.713  24.183  56.238  1.00  0.00     0.214 C 
BRANCH  25  26
HETATM   26  C   UNL     1       7.786  23.055  55.240  1.00  0.00    -0.034 A 
HETATM   27  C   UNL     1       7.824  23.324  53.865  1.00  0.00     0.009 A 
HETATM   28  C   UNL     1       7.891  22.280  52.941  1.00  0.00     0.001 A 
HETATM   29  C   UNL     1       7.915  20.957  53.383  1.00  0.00     0.000 A 
HETATM   30  C   UNL     1       7.867  20.678  54.747  1.00  0.00     0.001 A 
HETATM   31  C   UNL     1       7.800  21.721  55.671  1.00  0.00     0.009 A 
ENDBRANCH  25  26
ENDBRANCH  24  25
ENDBRANCH  21  24
ENDBRANCH   9  18
BRANCH   1  32
HETATM   32  C   UNL     1       4.769  34.944  61.904  1.00  0.00     0.273 C 
BRANCH  32  33
HETATM   33  C   UNL     1       5.630  34.437  63.028  1.00  0.00    -0.033 A 
HETATM   34  C   UNL     1       6.753  33.636  62.757  1.00  0.00     0.009 A 
HETATM   35  C   UNL     1       7.535  33.135  63.798  1.00  0.00     0.001 A 
HETATM   36  C   UNL     1       7.210  33.430  65.119  1.00  0.00     0.000 A 
HETATM   37  C   UNL     1       6.109  34.234  65.403  1.00  0.00     0.001 A 
HETATM   38  C   UNL     1       5.324  34.738  64.364  1.00  0.00     0.009 A 
ENDBRANCH  32  33
ENDBRANCH   1  32
TORSDOF 6
ENDMDL
MODEL 6
REMARK VINA RESULT:     -10.3      2.624     11.789
REMARK  6 active torsions:
REMARK  status: ('A' for Active; 'I' for Inactive)
REMARK    1  A    between atoms: C_4  and  C_5 
REMARK    2  A    between atoms: C_5  and  N_6 
REMARK    3  A    between atoms: C_14  and  C_15 
REMARK    4  A    between atoms: C_18  and  O_19 
REMARK    5  A    between atoms: O_19  and  C_20 
REMARK    6  A    between atoms: C_20  and  C_21 
ROOT
HETATM    1  N   UNL     1       5.047  26.487  55.513  1.00  0.00    -0.063 N 
HETATM    2  H   UNL     1       4.401  26.473  56.311  1.00  0.00     0.280 HD
HETATM    3  C   UNL     1       6.417  26.753  56.119  1.00  0.00     0.282 C 
HETATM    4  C   UNL     1       6.457  28.122  56.706  1.00  0.00     0.018 A 
HETATM    5  C   UNL     1       5.562  29.136  56.416  1.00  0.00    -0.023 A 
HETATM    6  C   UNL     1       5.900  30.338  57.118  1.00  0.00     0.073 A 
HETATM    7  C   UNL     1       7.042  30.187  57.867  1.00  0.00     0.088 A 
HETATM    8  N   UNL     1       7.599  31.182  58.583  1.00  0.00    -0.358 N 
HETATM    9  C   UNL     1       6.847  32.389  58.849  1.00  0.00     0.219 C 
HETATM   10  N   UNL     1       5.810  32.598  57.870  1.00  0.00    -0.332 N 
HETATM   11  C   UNL     1       5.230  31.624  57.108  1.00  0.00     0.256 C 
HETATM   12  O   UNL     1       4.213  31.833  56.458  1.00  0.00    -0.267 OA
HETATM   13  S   UNL     1       7.680  28.614  57.780  1.00  0.00    -0.074 SA
HETATM   14  C   UNL     1       4.409  28.923  55.480  1.00  0.00     0.068 C 
HETATM   15  C   UNL     1       4.599  27.649  54.632  1.00  0.00     0.240 C 
HETATM   16  H   UNL     1       8.312  30.962  59.271  1.00  0.00     0.162 HD
HETATM   17  H   UNL     1       5.306  33.472  57.901  1.00  0.00     0.165 HD
ENDROOT
BRANCH   9  18
HETATM   18  C   UNL     1       6.344  32.388  60.280  1.00  0.00    -0.016 A 
HETATM   19  C   UNL     1       5.178  33.108  60.598  1.00  0.00     0.014 A 
HETATM   20  C   UNL     1       4.674  33.134  61.903  1.00  0.00     0.037 A 
HETATM   21  C   UNL     1       5.324  32.435  62.917  1.00  0.00     0.069 A 
HETATM   22  C   UNL     1       6.502  31.746  62.621  1.00  0.00     0.037 A 
HETATM   23  C   UNL     1       7.011  31.723  61.319  1.00  0.00     0.014 A 
BRANCH  21  24
HETATM   24  O   UNL     1       4.924  32.352  64.221  1.00  0.00    -0.347 OA
BRANCH  24  25
HETATM   25  C   UNL     1       4.266  33.494  64.769  1.00  0.00     0.214 C 
BRANCH  25  26
HETATM   26  C   UNL     1       4.995  33.911  66.022  1.00  0.00    -0.034 A 
HETATM   27  C   UNL     1       4.280  34.300  67.164  1.00  0.00     0.009 A 
HETATM   28  C   UNL     1       4.955  34.686  68.323  1.00  0.00     0.001 A 
HETATM   29  C   UNL     1       6.349  34.693  68.350  1.00  0.00     0.000 A 
HETATM   30  C   UNL     1       7.069  34.318  67.218  1.00  0.00     0.001 A 
HETATM   31  C   UNL     1       6.396  33.932  66.058  1.00  0.00     0.009 A 
ENDBRANCH  25  26
ENDBRANCH  24  25
ENDBRANCH  21  24
ENDBRANCH   9  18
BRANCH   1  32
HETATM   32  C   UNL     1       4.924  25.130  54.869  1.00  0.00     0.273 C 
BRANCH  32  33
HETATM   33  C   UNL     1       6.128  24.656  54.101  1.00  0.00    -0.033 A 
HETATM   34  C   UNL     1       6.990  23.693  54.654  1.00  0.00     0.009 A 
HETATM   35  C   UNL     1       8.126  23.276  53.961  1.00  0.00     0.001 A 
HETATM   36  C   UNL     1       8.414  23.810  52.707  1.00  0.00     0.000 A 
HETATM   37  C   UNL     1       7.562  24.754  52.141  1.00  0.00     0.001 A 
HETATM   38  C   UNL     1       6.423  25.174  52.830  1.00  0.00     0.009 A 
ENDBRANCH  32  33
ENDBRANCH   1  32
TORSDOF 6
ENDMDL
MODEL 7
REMARK VINA RESULT:     -10.2      6.292     11.398
REMARK  6 active torsions:
REMARK  status: ('A' for Active; 'I' for Inactive)
REMARK    1  A    between atoms: C_4  and  C_5 
REMARK    2  A    between atoms: C_5  and  N_6 
REMARK    3  A    between atoms: C_14  and  C_15 
REMARK    4  A    between atoms: C_18  and  O_19 
REMARK    5  A    between atoms: O_19  and  C_20 
REMARK    6  A    between atoms: C_20  and  C_21 
ROOT
HETATM    1  N   UNL     1       7.970  24.827  55.911  1.00  0.00    -0.063 N 
HETATM    2  H   UNL     1       8.554  25.308  55.217  1.00  0.00     0.280 HD
HETATM    3  C   UNL     1       6.753  24.345  55.136  1.00  0.00     0.282 C 
HETATM    4  C   UNL     1       5.955  25.513  54.664  1.00  0.00     0.018 A 
HETATM    5  C   UNL     1       6.059  26.798  55.164  1.00  0.00    -0.023 A 
HETATM    6  C   UNL     1       5.128  27.678  54.522  1.00  0.00     0.073 A 
HETATM    7  C   UNL     1       4.350  27.014  53.605  1.00  0.00     0.088 A 
HETATM    8  N   UNL     1       3.365  27.603  52.900  1.00  0.00    -0.358 N 
HETATM    9  C   UNL     1       3.279  29.046  52.846  1.00  0.00     0.219 C 
HETATM   10  N   UNL     1       3.923  29.661  53.980  1.00  0.00    -0.332 N 
HETATM   11  C   UNL     1       4.910  29.094  54.736  1.00  0.00     0.256 C 
HETATM   12  O   UNL     1       5.561  29.749  55.542  1.00  0.00    -0.267 OA
HETATM   13  S   UNL     1       4.756  25.369  53.468  1.00  0.00    -0.074 SA
HETATM   14  C   UNL     1       7.048  27.147  56.237  1.00  0.00     0.068 C 
HETATM   15  C   UNL     1       7.586  25.885  56.941  1.00  0.00     0.240 C 
HETATM   16  H   UNL     1       2.968  27.120  52.099  1.00  0.00     0.162 HD
HETATM   17  H   UNL     1       3.816  30.658  54.095  1.00  0.00     0.165 HD
ENDROOT
BRANCH   9  18
HETATM   18  C   UNL     1       3.785  29.552  51.509  1.00  0.00    -0.016 A 
HETATM   19  C   UNL     1       3.445  28.852  50.337  1.00  0.00     0.014 A 
HETATM   20  C   UNL     1       3.887  29.282  49.081  1.00  0.00     0.037 A 
HETATM   21  C   UNL     1       4.673  30.427  48.971  1.00  0.00     0.069 A 
HETATM   22  C   UNL     1       5.047  31.108  50.131  1.00  0.00     0.037 A 
HETATM   23  C   UNL     1       4.613  30.677  51.387  1.00  0.00     0.014 A 
BRANCH  21  24
HETATM   24  O   UNL     1       5.144  30.970  47.809  1.00  0.00    -0.347 OA
BRANCH  24  25
HETATM   25  C   UNL     1       4.757  32.314  47.521  1.00  0.00     0.214 C 
BRANCH  25  26
HETATM   26  C   UNL     1       5.978  33.076  47.068  1.00  0.00    -0.034 A 
HETATM   27  C   UNL     1       6.819  33.692  48.006  1.00  0.00     0.009 A 
HETATM   28  C   UNL     1       7.948  34.398  47.586  1.00  0.00     0.001 A 
HETATM   29  C   UNL     1       8.244  34.500  46.227  1.00  0.00     0.000 A 
HETATM   30  C   UNL     1       7.408  33.900  45.287  1.00  0.00     0.001 A 
HETATM   31  C   UNL     1       6.279  33.194  45.704  1.00  0.00     0.009 A 
ENDBRANCH  25  26
ENDBRANCH  24  25
ENDBRANCH  21  24
ENDBRANCH   9  18
BRANCH   1  32
HETATM   32  C   UNL     1       8.823  23.708  56.453  1.00  0.00     0.273 C 
BRANCH  32  33
HETATM   33  C   UNL     1       8.751  22.406  55.703  1.00  0.00    -0.033 A 
HETATM   34  C   UNL     1       8.388  21.222  56.369  1.00  0.00     0.009 A 
HETATM   35  C   UNL     1       8.352  20.006  55.687  1.00  0.00     0.001 A 
HETATM   36  C   UNL     1       8.672  19.957  54.332  1.00  0.00     0.000 A 
HETATM   37  C   UNL     1       9.019  21.124  53.656  1.00  0.00     0.001 A 
HETATM   38  C   UNL     1       9.056  22.343  54.335  1.00  0.00     0.009 A 
ENDBRANCH  32  33
ENDBRANCH   1  32
TORSDOF 6
ENDMDL
MODEL 8
REMARK VINA RESULT:     -10.0      6.134     10.429
REMARK  6 active torsions:
REMARK  status: ('A' for Active; 'I' for Inactive)
REMARK    1  A    between atoms: C_4  and  C_5 
REMARK    2  A    between atoms: C_5  and  N_6 
REMARK    3  A    between atoms: C_14  and  C_15 
REMARK    4  A    between atoms: C_18  and  O_19 
REMARK    5  A    between atoms: O_19  and  C_20 
REMARK    6  A    between atoms: C_20  and  C_21 
ROOT
HETATM    1  N   UNL     1       8.115  24.845  55.988  1.00  0.00    -0.063 N 
HETATM    2  H   UNL     1       8.668  25.288  55.245  1.00  0.00     0.280 HD
HETATM    3  C   UNL     1       6.819  24.420  55.314  1.00  0.00     0.282 C 
HETATM    4  C   UNL     1       6.048  25.622  54.889  1.00  0.00     0.018 A 
HETATM    5  C   UNL     1       6.255  26.906  55.362  1.00  0.00    -0.023 A 
HETATM    6  C   UNL     1       5.324  27.826  54.780  1.00  0.00     0.073 A 
HETATM    7  C   UNL     1       4.445  27.195  53.935  1.00  0.00     0.088 A 
HETATM    8  N   UNL     1       3.440  27.827  53.299  1.00  0.00    -0.358 N 
HETATM    9  C   UNL     1       3.424  29.272  53.232  1.00  0.00     0.219 C 
HETATM   10  N   UNL     1       4.184  29.864  54.304  1.00  0.00    -0.332 N 
HETATM   11  C   UNL     1       5.196  29.254  54.990  1.00  0.00     0.256 C 
HETATM   12  O   UNL     1       5.940  29.882  55.735  1.00  0.00    -0.267 OA
HETATM   13  S   UNL     1       4.754  25.529  53.790  1.00  0.00    -0.074 SA
HETATM   14  C   UNL     1       7.341  27.213  56.351  1.00  0.00     0.068 C 
HETATM   15  C   UNL     1       7.866  25.931  57.029  1.00  0.00     0.240 C 
HETATM   16  H   UNL     1       2.958  27.358  52.538  1.00  0.00     0.162 HD
HETATM   17  H   UNL     1       4.138  30.867  54.412  1.00  0.00     0.165 HD
ENDROOT
BRANCH   9  18
HETATM   18  C   UNL     1       3.851  29.737  51.853  1.00  0.00    -0.016 A 
HETATM   19  C   UNL     1       5.163  29.479  51.417  1.00  0.00     0.014 A 
HETATM   20  C   UNL     1       5.601  29.887  50.152  1.00  0.00     0.037 A 
HETATM   21  C   UNL     1       4.732  30.558  49.294  1.00  0.00     0.069 A 
HETATM   22  C   UNL     1       3.439  30.852  49.730  1.00  0.00     0.037 A 
HETATM   23  C   UNL     1       3.001  30.451  50.995  1.00  0.00     0.014 A 
BRANCH  21  24
HETATM   24  O   UNL     1       5.021  30.983  48.028  1.00  0.00    -0.347 OA
BRANCH  24  25
HETATM   25  C   UNL     1       4.244  30.429  46.967  1.00  0.00     0.214 C 
BRANCH  25  26
HETATM   26  C   UNL     1       4.113  28.943  47.194  1.00  0.00    -0.034 A 
HETATM   27  C   UNL     1       5.256  28.137  47.299  1.00  0.00     0.009 A 
HETATM   28  C   UNL     1       5.134  26.762  47.509  1.00  0.00     0.001 A 
HETATM   29  C   UNL     1       3.871  26.180  47.611  1.00  0.00     0.000 A 
HETATM   30  C   UNL     1       2.730  26.971  47.498  1.00  0.00     0.001 A 
HETATM   31  C   UNL     1       2.849  28.345  47.288  1.00  0.00     0.009 A 
ENDBRANCH  25  26
ENDBRANCH  24  25
ENDBRANCH  21  24
ENDBRANCH   9  18
BRANCH   1  32
HETATM   32  C   UNL     1       8.949  23.689  56.478  1.00  0.00     0.273 C 
BRANCH  32  33
HETATM   33  C   UNL     1       8.810  22.405  55.706  1.00  0.00    -0.033 A 
HETATM   34  C   UNL     1       8.444  21.217  56.361  1.00  0.00     0.009 A 
HETATM   35  C   UNL     1       8.347  20.018  55.656  1.00  0.00     0.001 A 
HETATM   36  C   UNL     1       8.608  19.990  54.288  1.00  0.00     0.000 A 
HETATM   37  C   UNL     1       8.958  21.162  53.622  1.00  0.00     0.001 A 
HETATM   38  C   UNL     1       9.056  22.364  54.324  1.00  0.00     0.009 A 
ENDBRANCH  32  33
ENDBRANCH   1  32
TORSDOF 6
ENDMDL
MODEL 9
REMARK VINA RESULT:      -9.6      2.345      3.044
REMARK  6 active torsions:
REMARK  status: ('A' for Active; 'I' for Inactive)
REMARK    1  A    between atoms: C_4  and  C_5 
REMARK    2  A    between atoms: C_5  and  N_6 
REMARK    3  A    between atoms: C_14  and  C_15 
REMARK    4  A    between atoms: C_18  and  O_19 
REMARK    5  A    between atoms: O_19  and  C_20 
REMARK    6  A    between atoms: C_20  and  C_21 
ROOT
HETATM    1  N   UNL     1       4.430  32.831  62.949  1.00  0.00    -0.063 N 
HETATM    2  H   UNL     1       4.163  31.841  62.902  1.00  0.00     0.280 HD
HETATM    3  C   UNL     1       4.439  33.304  61.503  1.00  0.00     0.282 C 
HETATM    4  C   UNL     1       5.529  32.620  60.750  1.00  0.00     0.018 A 
HETATM    5  C   UNL     1       6.604  31.969  61.328  1.00  0.00    -0.023 A 
HETATM    6  C   UNL     1       7.489  31.449  60.329  1.00  0.00     0.073 A 
HETATM    7  C   UNL     1       7.065  31.761  59.060  1.00  0.00     0.088 A 
HETATM    8  N   UNL     1       7.745  31.432  57.946  1.00  0.00    -0.358 N 
HETATM    9  C   UNL     1       8.810  30.455  58.012  1.00  0.00     0.219 C 
HETATM   10  N   UNL     1       9.364  30.360  59.340  1.00  0.00    -0.332 N 
HETATM   11  C   UNL     1       8.719  30.702  60.495  1.00  0.00     0.256 C 
HETATM   12  O   UNL     1       9.163  30.394  61.596  1.00  0.00    -0.267 OA
HETATM   13  S   UNL     1       5.597  32.620  59.051  1.00  0.00    -0.074 SA
HETATM   14  C   UNL     1       6.749  31.860  62.817  1.00  0.00     0.068 C 
HETATM   15  C   UNL     1       5.831  32.861  63.548  1.00  0.00     0.240 C 
HETATM   16  H   UNL     1       7.287  31.504  57.042  1.00  0.00     0.162 HD
HETATM   17  H   UNL     1      10.189  29.791  59.464  1.00  0.00     0.165 HD
ENDROOT
BRANCH   9  18
HETATM   18  C   UNL     1       8.339  29.126  57.452  1.00  0.00    -0.016 A 
HETATM   19  C   UNL     1       8.431  28.894  56.068  1.00  0.00     0.014 A 
HETATM   20  C   UNL     1       8.011  27.683  55.505  1.00  0.00     0.037 A 
HETATM   21  C   UNL     1       7.496  26.677  56.319  1.00  0.00     0.069 A 
HETATM   22  C   UNL     1       7.366  26.910  57.689  1.00  0.00     0.037 A 
HETATM   23  C   UNL     1       7.779  28.120  58.253  1.00  0.00     0.014 A 
BRANCH  21  24
HETATM   24  O   UNL     1       7.080  25.442  55.905  1.00  0.00    -0.347 OA
BRANCH  24  25
HETATM   25  C   UNL     1       5.755  25.348  55.383  1.00  0.00     0.214 C 
BRANCH  25  26
HETATM   26  C   UNL     1       5.815  25.541  53.888  1.00  0.00    -0.034 A 
HETATM   27  C   UNL     1       4.855  26.327  53.234  1.00  0.00     0.009 A 
HETATM   28  C   UNL     1       4.911  26.505  51.850  1.00  0.00     0.001 A 
HETATM   29  C   UNL     1       5.921  25.895  51.107  1.00  0.00     0.000 A 
HETATM   30  C   UNL     1       6.873  25.104  51.746  1.00  0.00     0.001 A 
HETATM   31  C   UNL     1       6.819  24.924  53.129  1.00  0.00     0.009 A 
ENDBRANCH  25  26
ENDBRANCH  24  25
ENDBRANCH  21  24
ENDBRANCH   9  18
BRANCH   1  32
HETATM   32  C   UNL     1       3.373  33.495  63.795  1.00  0.00     0.273 C 
BRANCH  32  33
HETATM   33  C   UNL     1       3.866  34.537  64.762  1.00  0.00    -0.033 A 
HETATM   34  C   UNL     1       3.978  34.239  66.131  1.00  0.00     0.009 A 
HETATM   35  C   UNL     1       4.401  35.211  67.037  1.00  0.00     0.001 A 
HETATM   36  C   UNL     1       4.723  36.490  66.588  1.00  0.00     0.000 A 
HETATM   37  C   UNL     1       4.630  36.796  65.232  1.00  0.00     0.001 A 
HETATM   38  C   UNL     1       4.207  35.825  64.323  1.00  0.00     0.009 A 
ENDBRANCH  32  33
ENDBRANCH   1  32
TORSDOF 6
ENDMDL
MODEL 10
REMARK VINA RESULT:      -9.5      6.432     11.589
REMARK  6 active torsions:
REMARK  status: ('A' for Active; 'I' for Inactive)
REMARK    1  A    between atoms: C_4  and  C_5 
REMARK    2  A    between atoms: C_5  and  N_6 
REMARK    3  A    between atoms: C_14  and  C_15 
REMARK    4  A    between atoms: C_18  and  O_19 
REMARK    5  A    between atoms: O_19  and  C_20 
REMARK    6  A    between atoms: C_20  and  C_21 
ROOT
HETATM    1  N   UNL     1       7.460  25.100  55.821  1.00  0.00    -0.063 N 
HETATM    2  H   UNL     1       8.113  25.816  55.483  1.00  0.00     0.280 HD
HETATM    3  C   UNL     1       6.588  24.765  54.620  1.00  0.00     0.282 C 
HETATM    4  C   UNL     1       5.752  25.944  54.254  1.00  0.00     0.018 A 
HETATM    5  C   UNL     1       5.501  27.025  55.079  1.00  0.00    -0.023 A 
HETATM    6  C   UNL     1       4.633  27.969  54.441  1.00  0.00     0.073 A 
HETATM    7  C   UNL     1       4.245  27.543  53.194  1.00  0.00     0.088 A 
HETATM    8  N   UNL     1       3.391  28.225  52.406  1.00  0.00    -0.358 N 
HETATM    9  C   UNL     1       3.076  29.604  52.707  1.00  0.00     0.219 C 
HETATM   10  N   UNL     1       3.288  29.907  54.101  1.00  0.00    -0.332 N 
HETATM   11  C   UNL     1       4.127  29.232  54.941  1.00  0.00     0.256 C 
HETATM   12  O   UNL     1       4.424  29.671  56.046  1.00  0.00    -0.267 OA
HETATM   13  S   UNL     1       4.948  26.057  52.760  1.00  0.00    -0.074 SA
HETATM   14  C   UNL     1       6.102  27.124  56.450  1.00  0.00     0.068 C 
HETATM   15  C   UNL     1       6.647  25.763  56.927  1.00  0.00     0.240 C 
HETATM   16  H   UNL     1       3.305  27.970  51.427  1.00  0.00     0.162 HD
HETATM   17  H   UNL     1       2.987  30.811  54.434  1.00  0.00     0.165 HD
ENDROOT
BRANCH   9  18
HETATM   18  C   UNL     1       3.818  30.529  51.762  1.00  0.00    -0.016 A 
HETATM   19  C   UNL     1       4.181  30.061  50.486  1.00  0.00     0.014 A 
HETATM   20  C   UNL     1       4.864  30.879  49.579  1.00  0.00     0.037 A 
HETATM   21  C   UNL     1       5.193  32.187  49.929  1.00  0.00     0.069 A 
HETATM   22  C   UNL     1       4.871  32.650  51.205  1.00  0.00     0.037 A 
HETATM   23  C   UNL     1       4.195  31.834  52.115  1.00  0.00     0.014 A 
BRANCH  21  24
HETATM   24  O   UNL     1       5.829  33.096  49.131  1.00  0.00    -0.347 OA
BRANCH  24  25
HETATM   25  C   UNL     1       6.002  32.743  47.759  1.00  0.00     0.214 C 
BRANCH  25  26
HETATM   26  C   UNL     1       6.907  33.763  47.113  1.00  0.00    -0.034 A 
HETATM   27  C   UNL     1       6.937  33.904  45.719  1.00  0.00     0.009 A 
HETATM   28  C   UNL     1       7.775  34.848  45.122  1.00  0.00     0.001 A 
HETATM   29  C   UNL     1       8.595  35.654  45.911  1.00  0.00     0.000 A 
HETATM   30  C   UNL     1       8.579  35.515  47.297  1.00  0.00     0.001 A 
HETATM   31  C   UNL     1       7.743  34.572  47.896  1.00  0.00     0.009 A 
ENDBRANCH  25  26
ENDBRANCH  24  25
ENDBRANCH  21  24
ENDBRANCH   9  18
BRANCH   1  32
HETATM   32  C   UNL     1       8.322  23.951  56.281  1.00  0.00     0.273 C 
BRANCH  32  33
HETATM   33  C   UNL     1       8.275  22.713  55.428  1.00  0.00    -0.033 A 
HETATM   34  C   UNL     1       7.854  21.489  55.975  1.00  0.00     0.009 A 
HETATM   35  C   UNL     1       7.841  20.331  55.197  1.00  0.00     0.001 A 
HETATM   36  C   UNL     1       8.243  20.381  53.865  1.00  0.00     0.000 A 
HETATM   37  C   UNL     1       8.649  21.589  53.305  1.00  0.00     0.001 A 
HETATM   38  C   UNL     1       8.663  22.751  54.079  1.00  0.00     0.009 A 
ENDBRANCH  32  33
ENDBRANCH   1  32
TORSDOF 6
ENDMDL
