MODEL 1
REMARK VINA RESULT:      -8.5      0.000      0.000
REMARK  5 active torsions:
REMARK  status: ('A' for Active; 'I' for Inactive)
REMARK    1  A    between atoms: C_8  and  N_9 
REMARK       I    between atoms: N_9  and  C_10 
REMARK    2  A    between atoms: C_10  and  C_11 
REMARK    3  A    between atoms: C_11  and  N_12 
REMARK    4  A    between atoms: N_12  and  C_13 
REMARK    5  A    between atoms: C_13  and  C_14 
ROOT
HETATM    1  C   UNL     1       6.614  27.438  57.189  1.00  0.00     0.372 C 
ENDROOT
BRANCH   1   2
HETATM    2  C   UNL     1       7.280  28.818  57.059  1.00  0.00     0.250 C 
HETATM    3  N   UNL     1       8.065  29.122  58.150  1.00  0.00    -0.322 N 
HETATM    4  H   UNL     1       8.090  28.395  58.863  1.00  0.00     0.169 HD
HETATM    5  O   UNL     1       7.110  29.498  56.053  1.00  0.00    -0.271 OA
BRANCH   3   6
HETATM    6  C   UNL     1       8.772  30.282  58.401  1.00  0.00     0.085 A 
HETATM    7  C   UNL     1      10.029  30.489  57.864  1.00  0.00     0.052 A 
HETATM    8  C   UNL     1      10.887  29.665  56.980  1.00  0.00     0.072 C 
HETATM    9  N   UNL     1      10.434  31.711  58.319  1.00  0.00    -0.280 N 
HETATM   10  H   UNL     1      11.305  32.193  58.131  1.00  0.00     0.189 HD
HETATM   11  N   UNL     1       9.543  32.315  59.110  1.00  0.00    -0.177 NA
HETATM   12  C   UNL     1       8.514  31.454  59.170  1.00  0.00     0.079 A 
HETATM   13  C   UNL     1       7.335  31.836  59.986  1.00  0.00     0.075 C 
ENDBRANCH   3   6
ENDBRANCH   1   2
BRANCH   1  14
HETATM   14  N   UNL     1       7.567  26.368  56.818  1.00  0.00     0.100 N 
HETATM   15  H   UNL     1       8.165  26.188  57.629  1.00  0.00     0.317 HD
BRANCH  14  16
HETATM   16  C   UNL     1       6.930  25.091  56.437  1.00  0.00     0.251 C 
HETATM   17  C   UNL     1       5.436  25.082  56.804  1.00  0.00     0.048 C 
BRANCH  16  18
HETATM   18  C   UNL     1       7.266  24.650  55.015  1.00  0.00    -0.002 A 
HETATM   19  C   UNL     1       7.522  23.294  54.697  1.00  0.00     0.064 A 
HETATM   20 CL   UNL     1       7.460  22.074  55.936  1.00  0.00    -0.082 Cl
HETATM   21  C   UNL     1       7.829  22.924  53.374  1.00  0.00     0.056 A 
HETATM   22 CL   UNL     1       8.139  21.284  52.911  1.00  0.00    -0.083 Cl
HETATM   23  C   UNL     1       7.895  23.887  52.366  1.00  0.00     0.026 A 
HETATM   24  C   UNL     1       7.661  25.224  52.667  1.00  0.00     0.002 A 
HETATM   25  C   UNL     1       7.353  25.601  53.975  1.00  0.00     0.011 A 
ENDBRANCH  16  18
ENDBRANCH  14  16
ENDBRANCH   1  14
TORSDOF 5
ENDMDL
MODEL 2
REMARK VINA RESULT:      -8.2      4.223      5.531
REMARK  5 active torsions:
REMARK  status: ('A' for Active; 'I' for Inactive)
REMARK    1  A    between atoms: C_8  and  N_9 
REMARK       I    between atoms: N_9  and  C_10 
REMARK    2  A    between atoms: C_10  and  C_11 
REMARK    3  A    between atoms: C_11  and  N_12 
REMARK    4  A    between atoms: N_12  and  C_13 
REMARK    5  A    between atoms: C_13  and  C_14 
ROOT
HETATM    1  C   UNL     1       6.251  25.961  56.849  1.00  0.00     0.372 C 
ENDROOT
BRANCH   1   2
HETATM    2  C   UNL     1       6.237  26.797  55.558  1.00  0.00     0.250 C 
HETATM    3  N   UNL     1       5.037  26.701  54.889  1.00  0.00    -0.322 N 
HETATM    4  H   UNL     1       4.349  26.107  55.346  1.00  0.00     0.169 HD
HETATM    5  O   UNL     1       7.212  27.471  55.244  1.00  0.00    -0.271 OA
BRANCH   3   6
HETATM    6  C   UNL     1       4.680  27.271  53.681  1.00  0.00     0.085 A 
HETATM    7  C   UNL     1       4.677  26.535  52.511  1.00  0.00     0.052 A 
HETATM    8  C   UNL     1       5.001  25.118  52.219  1.00  0.00     0.072 C 
HETATM    9  N   UNL     1       4.291  27.398  51.527  1.00  0.00    -0.280 N 
HETATM   10  H   UNL     1       4.177  27.211  50.537  1.00  0.00     0.189 HD
HETATM   11  N   UNL     1       4.046  28.637  51.961  1.00  0.00    -0.177 NA
HETATM   12  C   UNL     1       4.275  28.578  53.283  1.00  0.00     0.079 A 
HETATM   13  C   UNL     1       4.085  29.816  54.078  1.00  0.00     0.075 C 
ENDBRANCH   3   6
ENDBRANCH   1   2
BRANCH   1  14
HETATM   14  N   UNL     1       6.501  24.536  56.537  1.00  0.00     0.100 N 
HETATM   15  H   UNL     1       5.960  24.299  55.702  1.00  0.00     0.317 HD
BRANCH  14  16
HETATM   16  C   UNL     1       7.916  24.213  56.262  1.00  0.00     0.251 C 
HETATM   17  C   UNL     1       8.838  24.760  57.365  1.00  0.00     0.048 C 
BRANCH  16  18
HETATM   18  C   UNL     1       8.138  22.753  55.875  1.00  0.00    -0.002 A 
HETATM   19  C   UNL     1       8.143  22.334  54.522  1.00  0.00     0.064 A 
HETATM   20 CL   UNL     1       7.892  23.487  53.244  1.00  0.00    -0.082 Cl
HETATM   21  C   UNL     1       8.349  20.979  54.203  1.00  0.00     0.056 A 
HETATM   22 CL   UNL     1       8.383  20.397  52.572  1.00  0.00    -0.083 Cl
HETATM   23  C   UNL     1       8.542  20.034  55.213  1.00  0.00     0.026 A 
HETATM   24  C   UNL     1       8.524  20.430  56.545  1.00  0.00     0.002 A 
HETATM   25  C   UNL     1       8.322  21.772  56.872  1.00  0.00     0.011 A 
ENDBRANCH  16  18
ENDBRANCH  14  16
ENDBRANCH   1  14
TORSDOF 5
ENDMDL
MODEL 3
REMARK VINA RESULT:      -8.1      2.054      2.755
REMARK  5 active torsions:
REMARK  status: ('A' for Active; 'I' for Inactive)
REMARK    1  A    between atoms: C_8  and  N_9 
REMARK       I    between atoms: N_9  and  C_10 
REMARK    2  A    between atoms: C_10  and  C_11 
REMARK    3  A    between atoms: C_11  and  N_12 
REMARK    4  A    between atoms: N_12  and  C_13 
REMARK    5  A    between atoms: C_13  and  C_14 
ROOT
HETATM    1  C   UNL     1       7.084  27.376  53.739  1.00  0.00     0.372 C 
ENDROOT
BRANCH   1   2
HETATM    2  C   UNL     1       6.962  27.850  55.197  1.00  0.00     0.250 C 
HETATM    3  N   UNL     1       7.770  28.933  55.462  1.00  0.00    -0.322 N 
HETATM    4  H   UNL     1       8.313  29.257  54.663  1.00  0.00     0.169 HD
HETATM    5  O   UNL     1       6.187  27.295  55.968  1.00  0.00    -0.271 OA
BRANCH   3   6
HETATM    6  C   UNL     1       7.956  29.592  56.662  1.00  0.00     0.085 A 
HETATM    7  C   UNL     1       9.217  29.758  57.205  1.00  0.00     0.052 A 
HETATM    8  C   UNL     1      10.565  29.349  56.745  1.00  0.00     0.072 C 
HETATM    9  N   UNL     1       9.034  30.431  58.378  1.00  0.00    -0.280 N 
HETATM   10  H   UNL     1       9.736  30.726  59.048  1.00  0.00     0.189 HD
HETATM   11  N   UNL     1       7.756  30.714  58.645  1.00  0.00    -0.177 NA
HETATM   12  C   UNL     1       7.079  30.212  57.600  1.00  0.00     0.079 A 
HETATM   13  C   UNL     1       5.604  30.366  57.587  1.00  0.00     0.075 C 
ENDBRANCH   3   6
ENDBRANCH   1   2
BRANCH   1  14
HETATM   14  N   UNL     1       7.656  26.011  53.687  1.00  0.00     0.100 N 
HETATM   15  H   UNL     1       8.234  25.884  54.521  1.00  0.00     0.317 HD
BRANCH  14  16
HETATM   16  C   UNL     1       6.649  24.931  53.669  1.00  0.00     0.251 C 
HETATM   17  C   UNL     1       5.742  25.034  52.431  1.00  0.00     0.048 C 
BRANCH  16  18
HETATM   18  C   UNL     1       7.240  23.551  53.945  1.00  0.00    -0.002 A 
HETATM   19  C   UNL     1       7.491  23.098  55.263  1.00  0.00     0.064 A 
HETATM   20 CL   UNL     1       7.129  24.117  56.626  1.00  0.00    -0.082 Cl
HETATM   21  C   UNL     1       8.038  21.819  55.479  1.00  0.00     0.056 A 
HETATM   22 CL   UNL     1       8.357  21.195  57.062  1.00  0.00    -0.083 Cl
HETATM   23  C   UNL     1       8.347  20.989  54.400  1.00  0.00     0.026 A 
HETATM   24  C   UNL     1       8.119  21.427  53.100  1.00  0.00     0.002 A 
HETATM   25  C   UNL     1       7.575  22.692  52.876  1.00  0.00     0.011 A 
ENDBRANCH  16  18
ENDBRANCH  14  16
ENDBRANCH   1  14
TORSDOF 5
ENDMDL
MODEL 4
REMARK VINA RESULT:      -8.0      2.115      3.203
REMARK  5 active torsions:
REMARK  status: ('A' for Active; 'I' for Inactive)
REMARK    1  A    between atoms: C_8  and  N_9 
REMARK       I    between atoms: N_9  and  C_10 
REMARK    2  A    between atoms: C_10  and  C_11 
REMARK    3  A    between atoms: C_11  and  N_12 
REMARK    4  A    between atoms: N_12  and  C_13 
REMARK    5  A    between atoms: C_13  and  C_14 
ROOT
HETATM    1  C   UNL     1       7.168  27.221  53.673  1.00  0.00     0.372 C 
ENDROOT
BRANCH   1   2
HETATM    2  C   UNL     1       7.265  27.650  55.146  1.00  0.00     0.250 C 
HETATM    3  N   UNL     1       7.924  28.850  55.297  1.00  0.00    -0.322 N 
HETATM    4  H   UNL     1       8.236  29.269  54.423  1.00  0.00     0.169 HD
HETATM    5  O   UNL     1       6.760  26.963  56.028  1.00  0.00    -0.271 OA
BRANCH   3   6
HETATM    6  C   UNL     1       8.237  29.516  56.467  1.00  0.00     0.085 A 
HETATM    7  C   UNL     1       7.254  30.076  57.261  1.00  0.00     0.052 A 
HETATM    8  C   UNL     1       5.778  30.131  57.137  1.00  0.00     0.072 C 
HETATM    9  N   UNL     1       7.906  30.654  58.312  1.00  0.00    -0.280 N 
HETATM   10  H   UNL     1       7.508  31.160  59.096  1.00  0.00     0.189 HD
HETATM   11  N   UNL     1       9.234  30.518  58.265  1.00  0.00    -0.177 NA
HETATM   12  C   UNL     1       9.456  29.817  57.141  1.00  0.00     0.079 A 
HETATM   13  C   UNL     1      10.861  29.489  56.792  1.00  0.00     0.075 C 
ENDBRANCH   3   6
ENDBRANCH   1   2
BRANCH   1  14
HETATM   14  N   UNL     1       7.689  25.846  53.501  1.00  0.00     0.100 N 
HETATM   15  H   UNL     1       8.422  25.701  54.200  1.00  0.00     0.317 HD
BRANCH  14  16
HETATM   16  C   UNL     1       6.677  24.786  53.682  1.00  0.00     0.251 C 
HETATM   17  C   UNL     1       5.601  24.848  52.584  1.00  0.00     0.048 C 
BRANCH  16  18
HETATM   18  C   UNL     1       7.286  23.409  53.937  1.00  0.00    -0.002 A 
HETATM   19  C   UNL     1       7.517  22.929  55.249  1.00  0.00     0.064 A 
HETATM   20 CL   UNL     1       7.109  23.909  56.628  1.00  0.00    -0.082 Cl
HETATM   21  C   UNL     1       8.080  21.654  55.447  1.00  0.00     0.056 A 
HETATM   22 CL   UNL     1       8.377  20.998  57.021  1.00  0.00    -0.083 Cl
HETATM   23  C   UNL     1       8.426  20.855  54.356  1.00  0.00     0.026 A 
HETATM   24  C   UNL     1       8.218  21.321  53.062  1.00  0.00     0.002 A 
HETATM   25  C   UNL     1       7.658  22.582  52.856  1.00  0.00     0.011 A 
ENDBRANCH  16  18
ENDBRANCH  14  16
ENDBRANCH   1  14
TORSDOF 5
ENDMDL
MODEL 5
REMARK VINA RESULT:      -7.9      5.724      9.747
REMARK  5 active torsions:
REMARK  status: ('A' for Active; 'I' for Inactive)
REMARK    1  A    between atoms: C_8  and  N_9 
REMARK       I    between atoms: N_9  and  C_10 
REMARK    2  A    between atoms: C_10  and  C_11 
REMARK    3  A    between atoms: C_11  and  N_12 
REMARK    4  A    between atoms: N_12  and  C_13 
REMARK    5  A    between atoms: C_13  and  C_14 
ROOT
HETATM    1  C   UNL     1       9.570  31.853  60.719  1.00  0.00     0.372 C 
ENDROOT
BRANCH   1   2
HETATM    2  C   UNL     1       9.554  31.614  59.201  1.00  0.00     0.250 C 
HETATM    3  N   UNL     1       8.755  30.549  58.849  1.00  0.00    -0.322 N 
HETATM    4  H   UNL     1       8.296  30.093  59.635  1.00  0.00     0.169 HD
HETATM    5  O   UNL     1      10.184  32.351  58.449  1.00  0.00    -0.271 OA
BRANCH   3   6
HETATM    6  C   UNL     1       8.538  30.017  57.592  1.00  0.00     0.085 A 
HETATM    7  C   UNL     1       7.263  29.902  57.070  1.00  0.00     0.052 A 
HETATM    8  C   UNL     1       5.927  30.259  57.604  1.00  0.00     0.072 C 
HETATM    9  N   UNL     1       7.413  29.335  55.837  1.00  0.00    -0.280 N 
HETATM   10  H   UNL     1       6.693  29.099  55.163  1.00  0.00     0.189 HD
HETATM   11  N   UNL     1       8.682  29.070  55.516  1.00  0.00    -0.177 NA
HETATM   12  C   UNL     1       9.388  29.486  56.580  1.00  0.00     0.079 A 
HETATM   13  C   UNL     1      10.864  29.331  56.539  1.00  0.00     0.075 C 
ENDBRANCH   3   6
ENDBRANCH   1   2
BRANCH   1  14
HETATM   14  N   UNL     1       8.294  32.464  61.158  1.00  0.00     0.100 N 
HETATM   15  H   UNL     1       7.692  32.552  60.335  1.00  0.00     0.317 HD
BRANCH  14  16
HETATM   16  C   UNL     1       7.560  31.678  62.170  1.00  0.00     0.251 C 
HETATM   17  C   UNL     1       8.401  30.491  62.672  1.00  0.00     0.048 C 
BRANCH  16  18
HETATM   18  C   UNL     1       6.917  32.540  63.253  1.00  0.00    -0.002 A 
HETATM   19  C   UNL     1       5.535  32.849  63.237  1.00  0.00     0.064 A 
HETATM   20 CL   UNL     1       4.516  32.246  61.962  1.00  0.00    -0.082 Cl
HETATM   21  C   UNL     1       4.976  33.647  64.252  1.00  0.00     0.056 A 
HETATM   22 CL   UNL     1       3.294  34.052  64.303  1.00  0.00    -0.083 Cl
HETATM   23  C   UNL     1       5.777  34.151  65.278  1.00  0.00     0.026 A 
HETATM   24  C   UNL     1       7.138  33.869  65.298  1.00  0.00     0.002 A 
HETATM   25  C   UNL     1       7.701  33.075  64.298  1.00  0.00     0.011 A 
ENDBRANCH  16  18
ENDBRANCH  14  16
ENDBRANCH   1  14
TORSDOF 5
ENDMDL
MODEL 6
REMARK VINA RESULT:      -7.9      2.233      3.605
REMARK  5 active torsions:
REMARK  status: ('A' for Active; 'I' for Inactive)
REMARK    1  A    between atoms: C_8  and  N_9 
REMARK       I    between atoms: N_9  and  C_10 
REMARK    2  A    between atoms: C_10  and  C_11 
REMARK    3  A    between atoms: C_11  and  N_12 
REMARK    4  A    between atoms: N_12  and  C_13 
REMARK    5  A    between atoms: C_13  and  C_14 
ROOT
HETATM    1  C   UNL     1       5.806  25.795  55.131  1.00  0.00     0.372 C 
ENDROOT
BRANCH   1   2
HETATM    2  C   UNL     1       6.351  27.205  55.416  1.00  0.00     0.250 C 
HETATM    3  N   UNL     1       5.818  27.747  56.564  1.00  0.00    -0.322 N 
HETATM    4  H   UNL     1       5.160  27.139  57.048  1.00  0.00     0.169 HD
HETATM    5  O   UNL     1       7.187  27.709  54.674  1.00  0.00    -0.271 OA
BRANCH   3   6
HETATM    6  C   UNL     1       6.036  29.000  57.103  1.00  0.00     0.085 A 
HETATM    7  C   UNL     1       5.029  29.946  57.156  1.00  0.00     0.052 A 
HETATM    8  C   UNL     1       3.612  29.925  56.722  1.00  0.00     0.072 C 
HETATM    9  N   UNL     1       5.585  31.054  57.729  1.00  0.00    -0.280 N 
HETATM   10  H   UNL     1       5.146  31.945  57.928  1.00  0.00     0.189 HD
HETATM   11  N   UNL     1       6.873  30.906  58.051  1.00  0.00    -0.177 NA
HETATM   12  C   UNL     1       7.167  29.649  57.679  1.00  0.00     0.079 A 
HETATM   13  C   UNL     1       8.549  29.161  57.908  1.00  0.00     0.075 C 
ENDBRANCH   3   6
ENDBRANCH   1   2
BRANCH   1  14
HETATM   14  N   UNL     1       6.302  24.837  56.145  1.00  0.00     0.100 N 
HETATM   15  H   UNL     1       5.783  23.963  56.028  1.00  0.00     0.317 HD
BRANCH  14  16
HETATM   16  C   UNL     1       7.741  24.524  56.034  1.00  0.00     0.251 C 
HETATM   17  C   UNL     1       8.539  25.144  57.194  1.00  0.00     0.048 C 
BRANCH  16  18
HETATM   18  C   UNL     1       8.017  23.050  55.752  1.00  0.00    -0.002 A 
HETATM   19  C   UNL     1       7.999  22.526  54.436  1.00  0.00     0.064 A 
HETATM   20 CL   UNL     1       7.656  23.564  53.083  1.00  0.00    -0.082 Cl
HETATM   21  C   UNL     1       8.258  21.161  54.214  1.00  0.00     0.056 A 
HETATM   22 CL   UNL     1       8.266  20.456  52.633  1.00  0.00    -0.083 Cl
HETATM   23  C   UNL     1       8.524  20.307  55.286  1.00  0.00     0.026 A 
HETATM   24  C   UNL     1       8.530  20.804  56.584  1.00  0.00     0.002 A 
HETATM   25  C   UNL     1       8.277  22.157  56.814  1.00  0.00     0.011 A 
ENDBRANCH  16  18
ENDBRANCH  14  16
ENDBRANCH   1  14
TORSDOF 5
ENDMDL
MODEL 7
REMARK VINA RESULT:      -7.8      4.484      7.197
REMARK  5 active torsions:
REMARK  status: ('A' for Active; 'I' for Inactive)
REMARK    1  A    between atoms: C_8  and  N_9 
REMARK       I    between atoms: N_9  and  C_10 
REMARK    2  A    between atoms: C_10  and  C_11 
REMARK    3  A    between atoms: C_11  and  N_12 
REMARK    4  A    between atoms: N_12  and  C_13 
REMARK    5  A    between atoms: C_13  and  C_14 
ROOT
HETATM    1  C   UNL     1       5.360  25.433  52.384  1.00  0.00     0.372 C 
ENDROOT
BRANCH   1   2
HETATM    2  C   UNL     1       6.566  24.611  52.868  1.00  0.00     0.250 C 
HETATM    3  N   UNL     1       6.360  24.071  54.118  1.00  0.00    -0.322 N 
HETATM    4  H   UNL     1       5.451  24.288  54.524  1.00  0.00     0.169 HD
HETATM    5  O   UNL     1       7.551  24.471  52.151  1.00  0.00    -0.271 OA
BRANCH   3   6
HETATM    6  C   UNL     1       7.232  23.321  54.884  1.00  0.00     0.085 A 
HETATM    7  C   UNL     1       7.609  23.726  56.151  1.00  0.00     0.052 A 
HETATM    8  C   UNL     1       7.252  24.908  56.971  1.00  0.00     0.072 C 
HETATM    9  N   UNL     1       8.472  22.772  56.608  1.00  0.00    -0.280 N 
HETATM   10  H   UNL     1       8.951  22.735  57.500  1.00  0.00     0.189 HD
HETATM   11  N   UNL     1       8.690  21.780  55.740  1.00  0.00    -0.177 NA
HETATM   12  C   UNL     1       7.933  22.097  54.676  1.00  0.00     0.079 A 
HETATM   13  C   UNL     1       7.948  21.177  53.512  1.00  0.00     0.075 C 
ENDBRANCH   3   6
ENDBRANCH   1   2
BRANCH   1  14
HETATM   14  N   UNL     1       4.667  26.057  53.534  1.00  0.00     0.100 N 
HETATM   15  H   UNL     1       5.047  25.643  54.389  1.00  0.00     0.317 HD
BRANCH  14  16
HETATM   16  C   UNL     1       4.841  27.520  53.627  1.00  0.00     0.251 C 
HETATM   17  C   UNL     1       3.569  28.263  53.184  1.00  0.00     0.048 C 
BRANCH  16  18
HETATM   18  C   UNL     1       5.444  27.973  54.954  1.00  0.00    -0.002 A 
HETATM   19  C   UNL     1       6.841  28.140  55.119  1.00  0.00     0.064 A 
HETATM   20 CL   UNL     1       7.925  27.828  53.794  1.00  0.00    -0.082 Cl
HETATM   21  C   UNL     1       7.362  28.558  56.358  1.00  0.00     0.056 A 
HETATM   22 CL   UNL     1       9.056  28.796  56.626  1.00  0.00    -0.083 Cl
HETATM   23  C   UNL     1       6.512  28.803  57.438  1.00  0.00     0.026 A 
HETATM   24  C   UNL     1       5.140  28.628  57.294  1.00  0.00     0.002 A 
HETATM   25  C   UNL     1       4.614  28.217  56.069  1.00  0.00     0.011 A 
ENDBRANCH  16  18
ENDBRANCH  14  16
ENDBRANCH   1  14
TORSDOF 5
ENDMDL
MODEL 8
REMARK VINA RESULT:      -7.8      5.141      7.816
REMARK  5 active torsions:
REMARK  status: ('A' for Active; 'I' for Inactive)
REMARK    1  A    between atoms: C_8  and  N_9 
REMARK       I    between atoms: N_9  and  C_10 
REMARK    2  A    between atoms: C_10  and  C_11 
REMARK    3  A    between atoms: C_11  and  N_12 
REMARK    4  A    between atoms: N_12  and  C_13 
REMARK    5  A    between atoms: C_13  and  C_14 
ROOT
HETATM    1  C   UNL     1       4.795  25.230  52.778  1.00  0.00     0.372 C 
ENDROOT
BRANCH   1   2
HETATM    2  C   UNL     1       4.565  26.372  51.775  1.00  0.00     0.250 C 
HETATM    3  N   UNL     1       4.606  25.934  50.470  1.00  0.00    -0.322 N 
HETATM    4  H   UNL     1       4.773  24.935  50.368  1.00  0.00     0.169 HD
HETATM    5  O   UNL     1       4.344  27.512  52.170  1.00  0.00    -0.271 OA
BRANCH   3   6
HETATM    6  C   UNL     1       4.489  26.678  49.311  1.00  0.00     0.085 A 
HETATM    7  C   UNL     1       3.769  26.212  48.227  1.00  0.00     0.052 A 
HETATM    8  C   UNL     1       3.007  24.962  47.994  1.00  0.00     0.072 C 
HETATM    9  N   UNL     1       3.869  27.178  47.267  1.00  0.00    -0.280 N 
HETATM   10  H   UNL     1       3.468  27.182  46.336  1.00  0.00     0.189 HD
HETATM   11  N   UNL     1       4.598  28.234  47.638  1.00  0.00    -0.177 NA
HETATM   12  C   UNL     1       4.984  27.947  48.892  1.00  0.00     0.079 A 
HETATM   13  C   UNL     1       5.824  28.941  49.606  1.00  0.00     0.075 C 
ENDBRANCH   3   6
ENDBRANCH   1   2
BRANCH   1  14
HETATM   14  N   UNL     1       6.100  25.398  53.459  1.00  0.00     0.100 N 
HETATM   15  H   UNL     1       5.924  25.428  54.466  1.00  0.00     0.317 HD
BRANCH  14  16
HETATM   16  C   UNL     1       7.063  24.309  53.202  1.00  0.00     0.251 C 
HETATM   17  C   UNL     1       8.166  24.756  52.228  1.00  0.00     0.048 C 
BRANCH  16  18
HETATM   18  C   UNL     1       7.544  23.617  54.476  1.00  0.00    -0.002 A 
HETATM   19  C   UNL     1       7.861  22.237  54.499  1.00  0.00     0.064 A 
HETATM   20 CL   UNL     1       7.708  21.276  53.057  1.00  0.00    -0.082 Cl
HETATM   21  C   UNL     1       8.301  21.633  55.692  1.00  0.00     0.056 A 
HETATM   22 CL   UNL     1       8.720  19.956  55.790  1.00  0.00    -0.083 Cl
HETATM   23  C   UNL     1       8.421  22.382  56.864  1.00  0.00     0.026 A 
HETATM   24  C   UNL     1       8.099  23.735  56.858  1.00  0.00     0.002 A 
HETATM   25  C   UNL     1       7.664  24.343  55.680  1.00  0.00     0.011 A 
ENDBRANCH  16  18
ENDBRANCH  14  16
ENDBRANCH   1  14
TORSDOF 5
ENDMDL
MODEL 9
REMARK VINA RESULT:      -7.7      2.990      4.174
REMARK  5 active torsions:
REMARK  status: ('A' for Active; 'I' for Inactive)
REMARK    1  A    between atoms: C_8  and  N_9 
REMARK       I    between atoms: N_9  and  C_10 
REMARK    2  A    between atoms: C_10  and  C_11 
REMARK    3  A    between atoms: C_11  and  N_12 
REMARK    4  A    between atoms: N_12  and  C_13 
REMARK    5  A    between atoms: C_13  and  C_14 
ROOT
HETATM    1  C   UNL     1       6.095  26.512  52.762  1.00  0.00     0.372 C 
ENDROOT
BRANCH   1   2
HETATM    2  C   UNL     1       6.394  27.579  53.828  1.00  0.00     0.250 C 
HETATM    3  N   UNL     1       5.376  27.696  54.748  1.00  0.00    -0.322 N 
HETATM    4  H   UNL     1       4.594  27.063  54.590  1.00  0.00     0.169 HD
HETATM    5  O   UNL     1       7.455  28.193  53.812  1.00  0.00    -0.271 OA
BRANCH   3   6
HETATM    6  C   UNL     1       5.275  28.575  55.810  1.00  0.00     0.085 A 
HETATM    7  C   UNL     1       6.000  28.386  56.972  1.00  0.00     0.052 A 
HETATM    8  C   UNL     1       6.969  27.345  57.388  1.00  0.00     0.072 C 
HETATM    9  N   UNL     1       5.656  29.416  57.799  1.00  0.00    -0.280 N 
HETATM   10  H   UNL     1       5.989  29.603  58.738  1.00  0.00     0.189 HD
HETATM   11  N   UNL     1       4.765  30.258  57.271  1.00  0.00    -0.177 NA
HETATM   12  C   UNL     1       4.522  29.761  56.048  1.00  0.00     0.079 A 
HETATM   13  C   UNL     1       3.555  30.483  55.183  1.00  0.00     0.075 C 
ENDBRANCH   3   6
ENDBRANCH   1   2
BRANCH   1  14
HETATM   14  N   UNL     1       5.810  25.209  53.405  1.00  0.00     0.100 N 
HETATM   15  H   UNL     1       4.921  24.865  53.032  1.00  0.00     0.317 HD
BRANCH  14  16
HETATM   16  C   UNL     1       6.832  24.172  53.156  1.00  0.00     0.251 C 
HETATM   17  C   UNL     1       7.886  24.658  52.146  1.00  0.00     0.048 C 
BRANCH  16  18
HETATM   18  C   UNL     1       7.381  23.548  54.437  1.00  0.00    -0.002 A 
HETATM   19  C   UNL     1       7.797  22.195  54.486  1.00  0.00     0.064 A 
HETATM   20 CL   UNL     1       7.693  21.191  53.069  1.00  0.00    -0.082 Cl
HETATM   21  C   UNL     1       8.297  21.652  55.685  1.00  0.00     0.056 A 
HETATM   22 CL   UNL     1       8.837  20.012  55.814  1.00  0.00    -0.083 Cl
HETATM   23  C   UNL     1       8.379  22.435  56.837  1.00  0.00     0.026 A 
HETATM   24  C   UNL     1       7.960  23.761  56.807  1.00  0.00     0.002 A 
HETATM   25  C   UNL     1       7.465  24.309  55.623  1.00  0.00     0.011 A 
ENDBRANCH  16  18
ENDBRANCH  14  16
ENDBRANCH   1  14
TORSDOF 5
ENDMDL
MODEL 10
REMARK VINA RESULT:      -7.7      6.268      9.162
REMARK  5 active torsions:
REMARK  status: ('A' for Active; 'I' for Inactive)
REMARK    1  A    between atoms: C_8  and  N_9 
REMARK       I    between atoms: N_9  and  C_10 
REMARK    2  A    between atoms: C_10  and  C_11 
REMARK    3  A    between atoms: C_11  and  N_12 
REMARK    4  A    between atoms: N_12  and  C_13 
REMARK    5  A    between atoms: C_13  and  C_14 
ROOT
HETATM    1  C   UNL     1       8.979  31.180  61.344  1.00  0.00     0.372 C 
ENDROOT
BRANCH   1   2
HETATM    2  C   UNL     1       9.012  31.321  59.813  1.00  0.00     0.250 C 
HETATM    3  N   UNL     1       8.678  30.147  59.175  1.00  0.00    -0.322 N 
HETATM    4  H   UNL     1       8.456  29.377  59.803  1.00  0.00     0.169 HD
HETATM    5  O   UNL     1       9.284  32.398  59.294  1.00  0.00    -0.271 OA
BRANCH   3   6
HETATM    6  C   UNL     1       8.647  29.887  57.818  1.00  0.00     0.085 A 
HETATM    7  C   UNL     1       7.452  29.802  57.129  1.00  0.00     0.052 A 
HETATM    8  C   UNL     1       6.040  29.944  57.554  1.00  0.00     0.072 C 
HETATM    9  N   UNL     1       7.785  29.528  55.833  1.00  0.00    -0.280 N 
HETATM   10  H   UNL     1       7.167  29.395  55.041  1.00  0.00     0.189 HD
HETATM   11  N   UNL     1       9.101  29.424  55.624  1.00  0.00    -0.177 NA
HETATM   12  C   UNL     1       9.647  29.646  56.831  1.00  0.00     0.079 A 
HETATM   13  C   UNL     1      11.126  29.604  56.943  1.00  0.00     0.075 C 
ENDBRANCH   3   6
ENDBRANCH   1   2
BRANCH   1  14
HETATM   14  N   UNL     1       7.616  30.819  61.798  1.00  0.00     0.100 N 
HETATM   15  H   UNL     1       7.685  29.945  62.326  1.00  0.00     0.317 HD
BRANCH  14  16
HETATM   16  C   UNL     1       6.982  31.824  62.674  1.00  0.00     0.251 C 
HETATM   17  C   UNL     1       8.032  32.748  63.316  1.00  0.00     0.048 C 
BRANCH  16  18
HETATM   18  C   UNL     1       5.792  32.525  62.024  1.00  0.00    -0.002 A 
HETATM   19  C   UNL     1       4.789  33.162  62.796  1.00  0.00     0.064 A 
HETATM   20 CL   UNL     1       4.886  33.162  64.533  1.00  0.00    -0.082 Cl
HETATM   21  C   UNL     1       3.706  33.798  62.162  1.00  0.00     0.056 A 
HETATM   22 CL   UNL     1       2.453  34.607  63.041  1.00  0.00    -0.083 Cl
HETATM   23  C   UNL     1       3.601  33.800  60.770  1.00  0.00     0.026 A 
HETATM   24  C   UNL     1       4.570  33.166  60.000  1.00  0.00     0.002 A 
HETATM   25  C   UNL     1       5.650  32.535  60.619  1.00  0.00     0.011 A 
ENDBRANCH  16  18
ENDBRANCH  14  16
ENDBRANCH   1  14
TORSDOF 5
ENDMDL
