MODEL 1
REMARK VINA RESULT:     -10.8      0.000      0.000
REMARK  5 active torsions:
REMARK  status: ('A' for Active; 'I' for Inactive)
REMARK    1  A    between atoms: C_6  and  N_7 
REMARK       I    between atoms: N_7  and  C_8 
REMARK    2  A    between atoms: C_8  and  C_9 
REMARK    3  A    between atoms: C_9  and  C_10 
REMARK    4  A    between atoms: C_12  and  N_13 
REMARK       I    between atoms: N_13  and  C_14 
REMARK       I    between atoms: C_14  and  N_15 
REMARK    5  A    between atoms: N_15  and  C_16 
ROOT
HETATM    1  C   UNL     1       9.113  29.175  57.052  1.00  0.00     0.052 A 
HETATM    2  N   UNL     1       8.315  28.263  57.739  1.00  0.00    -0.228 NA
HETATM    3  C   UNL     1       7.479  27.697  56.900  1.00  0.00     0.174 A 
HETATM    4  S   UNL     1       7.575  28.184  55.273  1.00  0.00    -0.062 SA
HETATM    5  C   UNL     1       8.839  29.261  55.696  1.00  0.00     0.081 A 
ENDROOT
BRANCH   1   6
HETATM    6  C   UNL     1      10.149  29.990  57.766  1.00  0.00     0.163 C 
BRANCH   6   7
HETATM    7  C   UNL     1       9.680  31.097  58.700  1.00  0.00     0.227 C 
HETATM    8  N   UNL     1       8.778  30.733  59.680  1.00  0.00    -0.327 N 
HETATM    9  H   UNL     1       8.367  29.808  59.581  1.00  0.00     0.169 HD
HETATM   10  O   UNL     1      10.170  32.220  58.572  1.00  0.00    -0.273 OA
BRANCH   8  11
HETATM   11  C   UNL     1       8.238  31.544  60.701  1.00  0.00     0.036 A 
HETATM   12  C   UNL     1       7.128  32.372  60.539  1.00  0.00     0.053 A 
HETATM   13  C   UNL     1       6.631  33.114  61.619  1.00  0.00     0.042 A 
HETATM   14  C   UNL     1       7.234  33.039  62.883  1.00  0.00    -0.040 A 
HETATM   15 CL   UNL     1       5.249  34.116  61.343  1.00  0.00    -0.084 Cl
HETATM   16  C   UNL     1       6.708  33.806  64.063  1.00  0.00     0.050 C 
HETATM   17  C   UNL     1       8.363  32.225  63.033  1.00  0.00     0.011 A 
HETATM   18  C   UNL     1       8.862  31.493  61.952  1.00  0.00     0.030 A 
ENDBRANCH   8  11
ENDBRANCH   6   7
ENDBRANCH   1   6
BRANCH   3  19
HETATM   19  N   UNL     1       6.541  26.744  57.151  1.00  0.00    -0.287 N 
HETATM   20  C   UNL     1       6.488  25.485  56.625  1.00  0.00     0.326 C 
HETATM   21  N   UNL     1       7.555  25.083  55.867  1.00  0.00    -0.309 N 
HETATM   22  O   UNL     1       5.493  24.811  56.882  1.00  0.00    -0.247 OA
HETATM   23  H   UNL     1       8.359  25.703  55.888  1.00  0.00     0.170 HD
HETATM   24  H   UNL     1       5.762  26.993  57.742  1.00  0.00     0.172 HD
BRANCH  21  25
HETATM   25  C   UNL     1       7.699  23.881  55.145  1.00  0.00     0.036 A 
HETATM   26  C   UNL     1       7.818  22.624  55.746  1.00  0.00     0.032 A 
HETATM   27  C   UNL     1       7.912  21.471  54.960  1.00  0.00     0.044 A 
HETATM   28  C   UNL     1       7.887  21.576  53.576  1.00  0.00     0.116 A 
HETATM   29  F   UNL     1       7.967  20.469  52.828  1.00  0.00    -0.206 F 
HETATM   30  C   UNL     1       7.774  22.815  52.960  1.00  0.00     0.044 A 
HETATM   31  C   UNL     1       7.681  23.967  53.745  1.00  0.00     0.032 A 
ENDBRANCH  21  25
ENDBRANCH   3  19
TORSDOF 5
ENDMDL
MODEL 2
REMARK VINA RESULT:     -10.5      4.521     10.570
REMARK  5 active torsions:
REMARK  status: ('A' for Active; 'I' for Inactive)
REMARK    1  A    between atoms: C_6  and  N_7 
REMARK       I    between atoms: N_7  and  C_8 
REMARK    2  A    between atoms: C_8  and  C_9 
REMARK    3  A    between atoms: C_9  and  C_10 
REMARK    4  A    between atoms: C_12  and  N_13 
REMARK       I    between atoms: N_13  and  C_14 
REMARK       I    between atoms: C_14  and  N_15 
REMARK    5  A    between atoms: N_15  and  C_16 
ROOT
HETATM    1  C   UNL     1       7.751  27.735  57.257  1.00  0.00     0.052 A 
HETATM    2  N   UNL     1       8.392  28.610  58.134  1.00  0.00    -0.228 NA
HETATM    3  C   UNL     1       9.076  29.492  57.445  1.00  0.00     0.174 A 
HETATM    4  S   UNL     1       9.012  29.363  55.750  1.00  0.00    -0.062 SA
HETATM    5  C   UNL     1       7.986  28.001  55.917  1.00  0.00     0.081 A 
ENDROOT
BRANCH   1   6
HETATM    6  C   UNL     1       6.911  26.604  57.768  1.00  0.00     0.163 C 
BRANCH   6   7
HETATM    7  C   UNL     1       6.735  25.377  56.882  1.00  0.00     0.227 C 
HETATM    8  N   UNL     1       7.877  24.878  56.290  1.00  0.00    -0.327 N 
HETATM    9  H   UNL     1       8.701  25.473  56.345  1.00  0.00     0.169 HD
HETATM   10  O   UNL     1       5.615  24.872  56.798  1.00  0.00    -0.273 OA
BRANCH   8  11
HETATM   11  C   UNL     1       8.000  23.729  55.481  1.00  0.00     0.036 A 
HETATM   12  C   UNL     1       8.218  22.443  55.974  1.00  0.00     0.053 A 
HETATM   13  C   UNL     1       8.287  21.349  55.100  1.00  0.00     0.042 A 
HETATM   14  C   UNL     1       8.136  21.521  53.717  1.00  0.00    -0.040 A 
HETATM   15 CL   UNL     1       8.556  19.784  55.786  1.00  0.00    -0.084 Cl
HETATM   16  C   UNL     1       8.182  20.362  52.761  1.00  0.00     0.050 C 
HETATM   17  C   UNL     1       7.941  22.817  53.226  1.00  0.00     0.011 A 
HETATM   18  C   UNL     1       7.882  23.908  54.099  1.00  0.00     0.030 A 
ENDBRANCH   8  11
ENDBRANCH   6   7
ENDBRANCH   1   6
BRANCH   3  19
HETATM   19  N   UNL     1       9.830  30.527  57.905  1.00  0.00    -0.287 N 
HETATM   20  C   UNL     1       9.570  31.313  58.990  1.00  0.00     0.326 C 
HETATM   21  N   UNL     1       8.513  30.951  59.780  1.00  0.00    -0.309 N 
HETATM   22  O   UNL     1      10.310  32.277  59.175  1.00  0.00    -0.247 OA
HETATM   23  H   UNL     1       8.109  30.043  59.574  1.00  0.00     0.170 HD
HETATM   24  H   UNL     1      10.643  30.794  57.369  1.00  0.00     0.172 HD
BRANCH  21  25
HETATM   25  C   UNL     1       7.987  31.642  60.891  1.00  0.00     0.036 A 
HETATM   26  C   UNL     1       8.589  31.655  62.153  1.00  0.00     0.032 A 
HETATM   27  C   UNL     1       8.030  32.401  63.196  1.00  0.00     0.044 A 
HETATM   28  C   UNL     1       6.870  33.132  62.974  1.00  0.00     0.116 A 
HETATM   29  F   UNL     1       6.344  33.854  63.972  1.00  0.00    -0.206 F 
HETATM   30  C   UNL     1       6.255  33.128  61.730  1.00  0.00     0.044 A 
HETATM   31  C   UNL     1       6.813  32.382  60.690  1.00  0.00     0.032 A 
ENDBRANCH  21  25
ENDBRANCH   3  19
TORSDOF 5
ENDMDL
MODEL 3
REMARK VINA RESULT:     -10.2      2.105      2.555
REMARK  5 active torsions:
REMARK  status: ('A' for Active; 'I' for Inactive)
REMARK    1  A    between atoms: C_6  and  N_7 
REMARK       I    between atoms: N_7  and  C_8 
REMARK    2  A    between atoms: C_8  and  C_9 
REMARK    3  A    between atoms: C_9  and  C_10 
REMARK    4  A    between atoms: C_12  and  N_13 
REMARK       I    between atoms: N_13  and  C_14 
REMARK       I    between atoms: C_14  and  N_15 
REMARK    5  A    between atoms: N_15  and  C_16 
ROOT
HETATM    1  C   UNL     1       6.753  28.799  55.596  1.00  0.00     0.052 A 
HETATM    2  N   UNL     1       6.589  27.625  54.863  1.00  0.00    -0.228 NA
HETATM    3  C   UNL     1       5.358  27.563  54.411  1.00  0.00     0.174 A 
HETATM    4  S   UNL     1       4.327  28.857  54.806  1.00  0.00    -0.062 SA
HETATM    5  C   UNL     1       5.615  29.587  55.669  1.00  0.00     0.081 A 
ENDROOT
BRANCH   1   6
HETATM    6  C   UNL     1       8.059  29.126  56.253  1.00  0.00     0.163 C 
BRANCH   6   7
HETATM    7  C   UNL     1       8.064  29.417  57.748  1.00  0.00     0.227 C 
HETATM    8  N   UNL     1       8.094  30.748  58.114  1.00  0.00    -0.327 N 
HETATM    9  H   UNL     1       8.295  31.408  57.367  1.00  0.00     0.169 HD
HETATM   10  O   UNL     1       7.978  28.470  58.530  1.00  0.00    -0.273 OA
BRANCH   8  11
HETATM   11  C   UNL     1       8.044  31.287  59.417  1.00  0.00     0.036 A 
HETATM   12  C   UNL     1       6.928  31.920  59.962  1.00  0.00     0.053 A 
HETATM   13  C   UNL     1       6.951  32.391  61.281  1.00  0.00     0.042 A 
HETATM   14  C   UNL     1       8.092  32.237  62.082  1.00  0.00    -0.040 A 
HETATM   15 CL   UNL     1       5.526  33.161  61.889  1.00  0.00    -0.084 Cl
HETATM   16  C   UNL     1       8.135  32.713  63.507  1.00  0.00     0.050 C 
HETATM   17  C   UNL     1       9.218  31.623  61.522  1.00  0.00     0.011 A 
HETATM   18  C   UNL     1       9.196  31.162  60.202  1.00  0.00     0.030 A 
ENDBRANCH   8  11
ENDBRANCH   6   7
ENDBRANCH   1   6
BRANCH   3  19
HETATM   19  N   UNL     1       4.785  26.597  53.643  1.00  0.00    -0.287 N 
HETATM   20  C   UNL     1       5.222  25.315  53.476  1.00  0.00     0.326 C 
HETATM   21  N   UNL     1       6.268  24.908  54.258  1.00  0.00    -0.309 N 
HETATM   22  O   UNL     1       4.635  24.626  52.643  1.00  0.00    -0.247 OA
HETATM   23  H   UNL     1       6.529  25.550  55.000  1.00  0.00     0.170 HD
HETATM   24  H   UNL     1       3.983  26.851  53.085  1.00  0.00     0.172 HD
BRANCH  21  25
HETATM   25  C   UNL     1       6.956  23.678  54.212  1.00  0.00     0.036 A 
HETATM   26  C   UNL     1       7.463  23.116  53.037  1.00  0.00     0.032 A 
HETATM   27  C   UNL     1       8.175  21.912  53.079  1.00  0.00     0.044 A 
HETATM   28  C   UNL     1       8.377  21.273  54.295  1.00  0.00     0.116 A 
HETATM   29  F   UNL     1       9.067  20.126  54.333  1.00  0.00    -0.206 F 
HETATM   30  C   UNL     1       7.877  21.812  55.472  1.00  0.00     0.044 A 
HETATM   31  C   UNL     1       7.166  23.014  55.430  1.00  0.00     0.032 A 
ENDBRANCH  21  25
ENDBRANCH   3  19
TORSDOF 5
ENDMDL
MODEL 4
REMARK VINA RESULT:     -10.2      4.821     10.612
REMARK  5 active torsions:
REMARK  status: ('A' for Active; 'I' for Inactive)
REMARK    1  A    between atoms: C_6  and  N_7 
REMARK       I    between atoms: N_7  and  C_8 
REMARK    2  A    between atoms: C_8  and  C_9 
REMARK    3  A    between atoms: C_9  and  C_10 
REMARK    4  A    between atoms: C_12  and  N_13 
REMARK       I    between atoms: N_13  and  C_14 
REMARK       I    between atoms: C_14  and  N_15 
REMARK    5  A    between atoms: N_15  and  C_16 
ROOT
HETATM    1  C   UNL     1       6.367  28.024  57.275  1.00  0.00     0.052 A 
HETATM    2  N   UNL     1       6.668  29.335  57.641  1.00  0.00    -0.228 NA
HETATM    3  C   UNL     1       5.698  30.129  57.250  1.00  0.00     0.174 A 
HETATM    4  S   UNL     1       4.388  29.403  56.444  1.00  0.00    -0.062 SA
HETATM    5  C   UNL     1       5.160  27.883  56.609  1.00  0.00     0.081 A 
ENDROOT
BRANCH   1   6
HETATM    6  C   UNL     1       7.312  26.900  57.575  1.00  0.00     0.163 C 
BRANCH   6   7
HETATM    7  C   UNL     1       7.108  25.573  56.857  1.00  0.00     0.227 C 
HETATM    8  N   UNL     1       8.104  25.187  55.983  1.00  0.00    -0.327 N 
HETATM    9  H   UNL     1       8.793  25.900  55.755  1.00  0.00     0.169 HD
HETATM   10  O   UNL     1       6.115  24.901  57.139  1.00  0.00    -0.273 OA
BRANCH   8  11
HETATM   11  C   UNL     1       8.190  23.988  55.244  1.00  0.00     0.036 A 
HETATM   12  C   UNL     1       8.592  22.765  55.779  1.00  0.00     0.053 A 
HETATM   13  C   UNL     1       8.610  21.613  54.982  1.00  0.00     0.042 A 
HETATM   14  C   UNL     1       8.223  21.661  53.636  1.00  0.00    -0.040 A 
HETATM   15 CL   UNL     1       9.116  20.131  55.717  1.00  0.00    -0.084 Cl
HETATM   16  C   UNL     1       8.211  20.435  52.766  1.00  0.00     0.050 C 
HETATM   17  C   UNL     1       7.844  22.896  53.098  1.00  0.00     0.011 A 
HETATM   18  C   UNL     1       7.836  24.047  53.892  1.00  0.00     0.030 A 
ENDBRANCH   8  11
ENDBRANCH   6   7
ENDBRANCH   1   6
BRANCH   3  19
HETATM   19  N   UNL     1       5.585  31.474  57.418  1.00  0.00    -0.287 N 
HETATM   20  C   UNL     1       5.885  32.189  58.541  1.00  0.00     0.326 C 
HETATM   21  N   UNL     1       6.485  31.511  59.568  1.00  0.00    -0.309 N 
HETATM   22  O   UNL     1       5.600  33.386  58.537  1.00  0.00    -0.247 OA
HETATM   23  H   UNL     1       6.791  30.570  59.344  1.00  0.00     0.170 HD
HETATM   24  H   UNL     1       5.185  32.012  56.663  1.00  0.00     0.172 HD
BRANCH  21  25
HETATM   25  C   UNL     1       6.807  31.995  60.852  1.00  0.00     0.036 A 
HETATM   26  C   UNL     1       5.869  32.539  61.735  1.00  0.00     0.032 A 
HETATM   27  C   UNL     1       6.258  32.956  63.012  1.00  0.00     0.044 A 
HETATM   28  C   UNL     1       7.584  32.829  63.404  1.00  0.00     0.116 A 
HETATM   29  F   UNL     1       7.950  33.220  64.631  1.00  0.00    -0.206 F 
HETATM   30  C   UNL     1       8.532  32.296  62.541  1.00  0.00     0.044 A 
HETATM   31  C   UNL     1       8.143  31.880  61.265  1.00  0.00     0.032 A 
ENDBRANCH  21  25
ENDBRANCH   3  19
TORSDOF 5
ENDMDL
MODEL 5
REMARK VINA RESULT:      -9.7      6.427      9.672
REMARK  5 active torsions:
REMARK  status: ('A' for Active; 'I' for Inactive)
REMARK    1  A    between atoms: C_6  and  N_7 
REMARK       I    between atoms: N_7  and  C_8 
REMARK    2  A    between atoms: C_8  and  C_9 
REMARK    3  A    between atoms: C_9  and  C_10 
REMARK    4  A    between atoms: C_12  and  N_13 
REMARK       I    between atoms: N_13  and  C_14 
REMARK       I    between atoms: C_14  and  N_15 
REMARK    5  A    between atoms: N_15  and  C_16 
ROOT
HETATM    1  C   UNL     1       4.929  28.485  54.738  1.00  0.00     0.052 A 
HETATM    2  N   UNL     1       5.366  28.713  53.434  1.00  0.00    -0.228 NA
HETATM    3  C   UNL     1       4.754  29.768  52.948  1.00  0.00     0.174 A 
HETATM    4  S   UNL     1       3.647  30.555  53.973  1.00  0.00    -0.062 SA
HETATM    5  C   UNL     1       3.986  29.396  55.189  1.00  0.00     0.081 A 
ENDROOT
BRANCH   1   6
HETATM    6  C   UNL     1       5.445  27.326  55.535  1.00  0.00     0.163 C 
BRANCH   6   7
HETATM    7  C   UNL     1       5.698  26.008  54.815  1.00  0.00     0.227 C 
HETATM    8  N   UNL     1       6.853  25.334  55.156  1.00  0.00    -0.327 N 
HETATM    9  H   UNL     1       7.521  25.856  55.717  1.00  0.00     0.169 HD
HETATM   10  O   UNL     1       4.843  25.595  54.031  1.00  0.00    -0.273 OA
BRANCH   8  11
HETATM   11  C   UNL     1       7.290  24.077  54.688  1.00  0.00     0.036 A 
HETATM   12  C   UNL     1       7.370  22.930  55.477  1.00  0.00     0.053 A 
HETATM   13  C   UNL     1       7.777  21.711  54.920  1.00  0.00     0.042 A 
HETATM   14  C   UNL     1       8.110  21.614  53.562  1.00  0.00    -0.040 A 
HETATM   15 CL   UNL     1       7.848  20.331  55.961  1.00  0.00    -0.084 Cl
HETATM   16  C   UNL     1       8.527  20.313  52.934  1.00  0.00     0.050 C 
HETATM   17  C   UNL     1       8.051  22.773  52.779  1.00  0.00     0.011 A 
HETATM   18  C   UNL     1       7.654  23.991  53.340  1.00  0.00     0.030 A 
ENDBRANCH   8  11
ENDBRANCH   6   7
ENDBRANCH   1   6
BRANCH   3  19
HETATM   19  N   UNL     1       4.897  30.342  51.723  1.00  0.00    -0.287 N 
HETATM   20  C   UNL     1       4.608  29.778  50.514  1.00  0.00     0.326 C 
HETATM   21  N   UNL     1       3.988  28.558  50.530  1.00  0.00    -0.309 N 
HETATM   22  O   UNL     1       4.920  30.414  49.509  1.00  0.00    -0.247 OA
HETATM   23  H   UNL     1       3.662  28.250  51.441  1.00  0.00     0.170 HD
HETATM   24  H   UNL     1       5.312  31.260  51.677  1.00  0.00     0.172 HD
BRANCH  21  25
HETATM   25  C   UNL     1       3.671  27.734  49.431  1.00  0.00     0.036 A 
HETATM   26  C   UNL     1       4.548  26.787  48.892  1.00  0.00     0.032 A 
HETATM   27  C   UNL     1       4.144  25.974  47.828  1.00  0.00     0.044 A 
HETATM   28  C   UNL     1       2.865  26.110  47.304  1.00  0.00     0.116 A 
HETATM   29  F   UNL     1       2.479  25.323  46.292  1.00  0.00    -0.206 F 
HETATM   30  C   UNL     1       1.982  27.048  47.821  1.00  0.00     0.044 A 
HETATM   31  C   UNL     1       2.386  27.860  48.884  1.00  0.00     0.032 A 
ENDBRANCH  21  25
ENDBRANCH   3  19
TORSDOF 5
ENDMDL
MODEL 6
REMARK VINA RESULT:      -9.1      5.757      7.943
REMARK  5 active torsions:
REMARK  status: ('A' for Active; 'I' for Inactive)
REMARK    1  A    between atoms: C_6  and  N_7 
REMARK       I    between atoms: N_7  and  C_8 
REMARK    2  A    between atoms: C_8  and  C_9 
REMARK    3  A    between atoms: C_9  and  C_10 
REMARK    4  A    between atoms: C_12  and  N_13 
REMARK       I    between atoms: N_13  and  C_14 
REMARK       I    between atoms: C_14  and  N_15 
REMARK    5  A    between atoms: N_15  and  C_16 
ROOT
HETATM    1  C   UNL     1       6.552  32.987  63.509  1.00  0.00     0.052 A 
HETATM    2  N   UNL     1       5.739  32.913  62.379  1.00  0.00    -0.228 NA
HETATM    3  C   UNL     1       4.543  33.366  62.674  1.00  0.00     0.174 A 
HETATM    4  S   UNL     1       4.296  33.905  64.268  1.00  0.00    -0.062 SA
HETATM    5  C   UNL     1       5.921  33.501  64.630  1.00  0.00     0.081 A 
ENDROOT
BRANCH   1   6
HETATM    6  C   UNL     1       7.974  32.513  63.472  1.00  0.00     0.163 C 
BRANCH   6   7
HETATM    7  C   UNL     1       8.382  31.535  62.379  1.00  0.00     0.227 C 
HETATM    8  N   UNL     1       8.374  32.019  61.086  1.00  0.00    -0.327 N 
HETATM    9  H   UNL     1       7.925  32.922  60.955  1.00  0.00     0.169 HD
HETATM   10  O   UNL     1       8.750  30.407  62.710  1.00  0.00    -0.273 OA
BRANCH   8  11
HETATM   11  C   UNL     1       8.763  31.346  59.909  1.00  0.00     0.036 A 
HETATM   12  C   UNL     1       8.084  30.254  59.369  1.00  0.00     0.053 A 
HETATM   13  C   UNL     1       8.516  29.670  58.172  1.00  0.00     0.042 A 
HETATM   14  C   UNL     1       9.635  30.167  57.489  1.00  0.00    -0.040 A 
HETATM   15 CL   UNL     1       7.619  28.322  57.561  1.00  0.00    -0.084 Cl
HETATM   16  C   UNL     1      10.106  29.573  56.191  1.00  0.00     0.050 C 
HETATM   17  C   UNL     1      10.328  31.247  58.048  1.00  0.00     0.011 A 
HETATM   18  C   UNL     1       9.900  31.823  59.249  1.00  0.00     0.030 A 
ENDBRANCH   8  11
ENDBRANCH   6   7
ENDBRANCH   1   6
BRANCH   3  19
HETATM   19  N   UNL     1       3.457  33.483  61.862  1.00  0.00    -0.287 N 
HETATM   20  C   UNL     1       3.328  33.005  60.590  1.00  0.00     0.326 C 
HETATM   21  N   UNL     1       4.339  32.211  60.119  1.00  0.00    -0.309 N 
HETATM   22  O   UNL     1       2.311  33.318  59.973  1.00  0.00    -0.247 OA
HETATM   23  H   UNL     1       5.024  31.926  60.812  1.00  0.00     0.170 HD
HETATM   24  H   UNL     1       2.675  34.027  62.195  1.00  0.00     0.172 HD
BRANCH  21  25
HETATM   25  C   UNL     1       4.487  31.676  58.823  1.00  0.00     0.036 A 
HETATM   26  C   UNL     1       3.683  30.654  58.309  1.00  0.00     0.032 A 
HETATM   27  C   UNL     1       3.862  30.207  56.996  1.00  0.00     0.044 A 
HETATM   28  C   UNL     1       4.844  30.782  56.200  1.00  0.00     0.116 A 
HETATM   29  F   UNL     1       5.005  30.358  54.940  1.00  0.00    -0.206 F 
HETATM   30  C   UNL     1       5.655  31.794  56.693  1.00  0.00     0.044 A 
HETATM   31  C   UNL     1       5.477  32.241  58.005  1.00  0.00     0.032 A 
ENDBRANCH  21  25
ENDBRANCH   3  19
TORSDOF 5
ENDMDL
MODEL 7
REMARK VINA RESULT:      -9.0      2.005      2.702
REMARK  5 active torsions:
REMARK  status: ('A' for Active; 'I' for Inactive)
REMARK    1  A    between atoms: C_6  and  N_7 
REMARK       I    between atoms: N_7  and  C_8 
REMARK    2  A    between atoms: C_8  and  C_9 
REMARK    3  A    between atoms: C_9  and  C_10 
REMARK    4  A    between atoms: C_12  and  N_13 
REMARK       I    between atoms: N_13  and  C_14 
REMARK       I    between atoms: C_14  and  N_15 
REMARK    5  A    between atoms: N_15  and  C_16 
ROOT
HETATM    1  C   UNL     1       9.132  29.952  57.870  1.00  0.00     0.052 A 
HETATM    2  N   UNL     1       7.903  29.745  57.245  1.00  0.00    -0.228 NA
HETATM    3  C   UNL     1       8.102  29.413  55.991  1.00  0.00     0.174 A 
HETATM    4  S   UNL     1       9.718  29.315  55.469  1.00  0.00    -0.062 SA
HETATM    5  C   UNL     1      10.228  29.763  57.042  1.00  0.00     0.081 A 
ENDROOT
BRANCH   1   6
HETATM    6  C   UNL     1       9.210  30.367  59.307  1.00  0.00     0.163 C 
BRANCH   6   7
HETATM    7  C   UNL     1       8.488  31.638  59.733  1.00  0.00     0.227 C 
HETATM    8  N   UNL     1       7.180  31.493  60.148  1.00  0.00    -0.327 N 
HETATM    9  H   UNL     1       6.755  30.588  59.962  1.00  0.00     0.169 HD
HETATM   10  O   UNL     1       9.120  32.695  59.744  1.00  0.00    -0.273 OA
BRANCH   8  11
HETATM   11  C   UNL     1       6.315  32.490  60.646  1.00  0.00     0.036 A 
HETATM   12  C   UNL     1       6.545  33.217  61.813  1.00  0.00     0.053 A 
HETATM   13  C   UNL     1       5.653  34.220  62.214  1.00  0.00     0.042 A 
HETATM   14  C   UNL     1       4.513  34.517  61.453  1.00  0.00    -0.040 A 
HETATM   15 CL   UNL     1       6.007  35.082  63.671  1.00  0.00    -0.084 Cl
HETATM   16  C   UNL     1       3.552  35.603  61.848  1.00  0.00     0.050 C 
HETATM   17  C   UNL     1       4.274  33.768  60.295  1.00  0.00     0.011 A 
HETATM   18  C   UNL     1       5.161  32.761  59.902  1.00  0.00     0.030 A 
ENDBRANCH   8  11
ENDBRANCH   6   7
ENDBRANCH   1   6
BRANCH   3  19
HETATM   19  N   UNL     1       7.180  29.112  55.037  1.00  0.00    -0.287 N 
HETATM   20  C   UNL     1       6.923  27.883  54.502  1.00  0.00     0.326 C 
HETATM   21  N   UNL     1       7.562  26.813  55.068  1.00  0.00    -0.309 N 
HETATM   22  O   UNL     1       6.133  27.834  53.561  1.00  0.00    -0.247 OA
HETATM   23  H   UNL     1       8.055  27.011  55.933  1.00  0.00     0.170 HD
HETATM   24  H   UNL     1       6.659  29.873  54.628  1.00  0.00     0.172 HD
BRANCH  21  25
HETATM   25  C   UNL     1       7.539  25.469  54.645  1.00  0.00     0.036 A 
HETATM   26  C   UNL     1       7.858  25.057  53.347  1.00  0.00     0.032 A 
HETATM   27  C   UNL     1       7.856  23.698  53.015  1.00  0.00     0.044 A 
HETATM   28  C   UNL     1       7.534  22.754  53.981  1.00  0.00     0.116 A 
HETATM   29  F   UNL     1       7.543  21.453  53.661  1.00  0.00    -0.206 F 
HETATM   30  C   UNL     1       7.209  23.142  55.273  1.00  0.00     0.044 A 
HETATM   31  C   UNL     1       7.211  24.499  55.604  1.00  0.00     0.032 A 
ENDBRANCH  21  25
ENDBRANCH   3  19
TORSDOF 5
ENDMDL
MODEL 8
REMARK VINA RESULT:      -8.9      5.918      8.672
REMARK  5 active torsions:
REMARK  status: ('A' for Active; 'I' for Inactive)
REMARK    1  A    between atoms: C_6  and  N_7 
REMARK       I    between atoms: N_7  and  C_8 
REMARK    2  A    between atoms: C_8  and  C_9 
REMARK    3  A    between atoms: C_9  and  C_10 
REMARK    4  A    between atoms: C_12  and  N_13 
REMARK       I    between atoms: N_13  and  C_14 
REMARK       I    between atoms: C_14  and  N_15 
REMARK    5  A    between atoms: N_15  and  C_16 
ROOT
HETATM    1  C   UNL     1       3.772  30.204  55.362  1.00  0.00     0.052 A 
HETATM    2  N   UNL     1       4.442  30.127  54.142  1.00  0.00    -0.228 NA
HETATM    3  C   UNL     1       4.052  31.114  53.369  1.00  0.00     0.174 A 
HETATM    4  S   UNL     1       2.897  32.185  54.011  1.00  0.00    -0.062 SA
HETATM    5  C   UNL     1       2.887  31.266  55.458  1.00  0.00     0.081 A 
ENDROOT
BRANCH   1   6
HETATM    6  C   UNL     1       4.002  29.186  56.437  1.00  0.00     0.163 C 
BRANCH   6   7
HETATM    7  C   UNL     1       5.100  28.151  56.230  1.00  0.00     0.227 C 
HETATM    8  N   UNL     1       4.796  27.091  55.400  1.00  0.00    -0.327 N 
HETATM    9  H   UNL     1       3.816  26.994  55.147  1.00  0.00     0.169 HD
HETATM   10  O   UNL     1       6.197  28.348  56.754  1.00  0.00    -0.273 OA
BRANCH   8  11
HETATM   11  C   UNL     1       5.645  26.038  54.997  1.00  0.00     0.036 A 
HETATM   12  C   UNL     1       6.187  25.914  53.719  1.00  0.00     0.053 A 
HETATM   13  C   UNL     1       7.054  24.857  53.414  1.00  0.00     0.042 A 
HETATM   14  C   UNL     1       7.398  23.904  54.384  1.00  0.00    -0.040 A 
HETATM   15 CL   UNL     1       7.691  24.772  51.808  1.00  0.00    -0.084 Cl
HETATM   16  C   UNL     1       8.345  22.774  54.090  1.00  0.00     0.050 C 
HETATM   17  C   UNL     1       6.832  24.020  55.658  1.00  0.00     0.011 A 
HETATM   18  C   UNL     1       5.959  25.071  55.957  1.00  0.00     0.030 A 
ENDBRANCH   8  11
ENDBRANCH   6   7
ENDBRANCH   1   6
BRANCH   3  19
HETATM   19  N   UNL     1       4.465  31.416  52.108  1.00  0.00    -0.287 N 
HETATM   20  C   UNL     1       4.475  30.583  51.027  1.00  0.00     0.326 C 
HETATM   21  N   UNL     1       3.892  29.355  51.182  1.00  0.00    -0.309 N 
HETATM   22  O   UNL     1       5.000  31.007  49.998  1.00  0.00    -0.247 OA
HETATM   23  H   UNL     1       3.369  29.230  52.043  1.00  0.00     0.170 HD
HETATM   24  H   UNL     1       4.862  32.330  51.947  1.00  0.00     0.172 HD
BRANCH  21  25
HETATM   25  C   UNL     1       3.855  28.292  50.258  1.00  0.00     0.036 A 
HETATM   26  C   UNL     1       4.773  27.238  50.249  1.00  0.00     0.032 A 
HETATM   27  C   UNL     1       4.644  26.194  49.327  1.00  0.00     0.044 A 
HETATM   28  C   UNL     1       3.596  26.207  48.415  1.00  0.00     0.116 A 
HETATM   29  F   UNL     1       3.470  25.200  47.541  1.00  0.00    -0.206 F 
HETATM   30  C   UNL     1       2.677  27.246  48.404  1.00  0.00     0.044 A 
HETATM   31  C   UNL     1       2.807  28.289  49.325  1.00  0.00     0.032 A 
ENDBRANCH  21  25
ENDBRANCH   3  19
TORSDOF 5
ENDMDL
MODEL 9
REMARK VINA RESULT:      -8.7      4.986      7.766
REMARK  5 active torsions:
REMARK  status: ('A' for Active; 'I' for Inactive)
REMARK    1  A    between atoms: C_6  and  N_7 
REMARK       I    between atoms: N_7  and  C_8 
REMARK    2  A    between atoms: C_8  and  C_9 
REMARK    3  A    between atoms: C_9  and  C_10 
REMARK    4  A    between atoms: C_12  and  N_13 
REMARK       I    between atoms: N_13  and  C_14 
REMARK       I    between atoms: C_14  and  N_15 
REMARK    5  A    between atoms: N_15  and  C_16 
ROOT
HETATM    1  C   UNL     1       6.976  29.271  56.626  1.00  0.00     0.052 A 
HETATM    2  N   UNL     1       6.102  30.342  56.450  1.00  0.00    -0.228 NA
HETATM    3  C   UNL     1       4.928  29.890  56.078  1.00  0.00     0.174 A 
HETATM    4  S   UNL     1       4.769  28.204  55.916  1.00  0.00    -0.062 SA
HETATM    5  C   UNL     1       6.412  28.030  56.372  1.00  0.00     0.081 A 
ENDROOT
BRANCH   1   6
HETATM    6  C   UNL     1       8.402  29.492  57.030  1.00  0.00     0.163 C 
BRANCH   6   7
HETATM    7  C   UNL     1       8.683  30.390  58.228  1.00  0.00     0.227 C 
HETATM    8  N   UNL     1       7.653  30.546  59.133  1.00  0.00    -0.327 N 
HETATM    9  H   UNL     1       6.744  30.203  58.833  1.00  0.00     0.169 HD
HETATM   10  O   UNL     1       9.813  30.865  58.352  1.00  0.00    -0.273 OA
BRANCH   8  11
HETATM   11  C   UNL     1       7.670  31.267  60.346  1.00  0.00     0.036 A 
HETATM   12  C   UNL     1       6.939  32.431  60.577  1.00  0.00     0.053 A 
HETATM   13  C   UNL     1       6.983  33.062  61.827  1.00  0.00     0.042 A 
HETATM   14  C   UNL     1       7.758  32.540  62.871  1.00  0.00    -0.040 A 
HETATM   15 CL   UNL     1       6.045  34.500  62.039  1.00  0.00    -0.084 Cl
HETATM   16  C   UNL     1       7.805  33.184  64.229  1.00  0.00     0.050 C 
HETATM   17  C   UNL     1       8.510  31.384  62.627  1.00  0.00     0.011 A 
HETATM   18  C   UNL     1       8.471  30.761  61.375  1.00  0.00     0.030 A 
ENDBRANCH   8  11
ENDBRANCH   6   7
ENDBRANCH   1   6
BRANCH   3  19
HETATM   19  N   UNL     1       3.793  30.593  55.815  1.00  0.00    -0.287 N 
HETATM   20  C   UNL     1       3.286  31.633  56.539  1.00  0.00     0.326 C 
HETATM   21  N   UNL     1       4.058  32.112  57.563  1.00  0.00    -0.309 N 
HETATM   22  O   UNL     1       2.182  32.061  56.208  1.00  0.00    -0.247 OA
HETATM   23  H   UNL     1       5.005  31.749  57.597  1.00  0.00     0.170 HD
HETATM   24  H   UNL     1       3.221  30.293  55.040  1.00  0.00     0.172 HD
BRANCH  21  25
HETATM   25  C   UNL     1       3.724  33.106  58.505  1.00  0.00     0.036 A 
HETATM   26  C   UNL     1       3.792  34.478  58.245  1.00  0.00     0.032 A 
HETATM   27  C   UNL     1       3.400  35.403  59.218  1.00  0.00     0.044 A 
HETATM   28  C   UNL     1       2.943  34.954  60.450  1.00  0.00     0.116 A 
HETATM   29  F   UNL     1       2.559  35.843  61.376  1.00  0.00    -0.206 F 
HETATM   30  C   UNL     1       2.873  33.597  60.731  1.00  0.00     0.044 A 
HETATM   31  C   UNL     1       3.265  32.673  59.758  1.00  0.00     0.032 A 
ENDBRANCH  21  25
ENDBRANCH   3  19
TORSDOF 5
ENDMDL
MODEL 10
REMARK VINA RESULT:      -8.7      6.220      9.214
REMARK  5 active torsions:
REMARK  status: ('A' for Active; 'I' for Inactive)
REMARK    1  A    between atoms: C_6  and  N_7 
REMARK       I    between atoms: N_7  and  C_8 
REMARK    2  A    between atoms: C_8  and  C_9 
REMARK    3  A    between atoms: C_9  and  C_10 
REMARK    4  A    between atoms: C_12  and  N_13 
REMARK       I    between atoms: N_13  and  C_14 
REMARK       I    between atoms: C_14  and  N_15 
REMARK    5  A    between atoms: N_15  and  C_16 
ROOT
HETATM    1  C   UNL     1       6.430  32.969  63.481  1.00  0.00     0.052 A 
HETATM    2  N   UNL     1       5.567  32.590  62.454  1.00  0.00    -0.228 NA
HETATM    3  C   UNL     1       4.386  33.124  62.659  1.00  0.00     0.174 A 
HETATM    4  S   UNL     1       4.211  34.097  64.043  1.00  0.00    -0.062 SA
HETATM    5  C   UNL     1       5.851  33.790  64.436  1.00  0.00     0.081 A 
ENDROOT
BRANCH   1   6
HETATM    6  C   UNL     1       7.848  32.485  63.520  1.00  0.00     0.163 C 
BRANCH   6   7
HETATM    7  C   UNL     1       8.314  31.524  62.434  1.00  0.00     0.227 C 
HETATM    8  N   UNL     1       8.344  32.020  61.146  1.00  0.00    -0.327 N 
HETATM    9  H   UNL     1       7.882  32.915  61.006  1.00  0.00     0.169 HD
HETATM   10  O   UNL     1       8.692  30.401  62.769  1.00  0.00    -0.273 OA
BRANCH   8  11
HETATM   11  C   UNL     1       8.787  31.365  59.978  1.00  0.00     0.036 A 
HETATM   12  C   UNL     1       8.182  30.233  59.436  1.00  0.00     0.053 A 
HETATM   13  C   UNL     1       8.664  29.669  58.247  1.00  0.00     0.042 A 
HETATM   14  C   UNL     1       9.760  30.228  57.577  1.00  0.00    -0.040 A 
HETATM   15 CL   UNL     1       7.857  28.267  57.633  1.00  0.00    -0.084 Cl
HETATM   16  C   UNL     1      10.283  29.656  56.289  1.00  0.00     0.050 C 
HETATM   17  C   UNL     1      10.380  31.350  58.139  1.00  0.00     0.011 A 
HETATM   18  C   UNL     1       9.903  31.906  59.330  1.00  0.00     0.030 A 
ENDBRANCH   8  11
ENDBRANCH   6   7
ENDBRANCH   1   6
BRANCH   3  19
HETATM   19  N   UNL     1       3.265  33.021  61.894  1.00  0.00    -0.287 N 
HETATM   20  C   UNL     1       3.124  33.399  60.590  1.00  0.00     0.326 C 
HETATM   21  N   UNL     1       4.255  33.804  59.935  1.00  0.00    -0.309 N 
HETATM   22  O   UNL     1       1.995  33.336  60.108  1.00  0.00    -0.247 OA
HETATM   23  H   UNL     1       5.125  33.645  60.433  1.00  0.00     0.170 HD
HETATM   24  H   UNL     1       2.422  32.685  62.335  1.00  0.00     0.172 HD
BRANCH  21  25
HETATM   25  C   UNL     1       4.358  34.325  58.629  1.00  0.00     0.036 A 
HETATM   26  C   UNL     1       4.155  35.672  58.312  1.00  0.00     0.032 A 
HETATM   27  C   UNL     1       4.320  36.121  56.997  1.00  0.00     0.044 A 
HETATM   28  C   UNL     1       4.686  35.224  56.003  1.00  0.00     0.116 A 
HETATM   29  F   UNL     1       4.853  35.660  54.748  1.00  0.00    -0.206 F 
HETATM   30  C   UNL     1       4.887  33.882  56.296  1.00  0.00     0.044 A 
HETATM   31  C   UNL     1       4.722  33.433  57.609  1.00  0.00     0.032 A 
ENDBRANCH  21  25
ENDBRANCH   3  19
TORSDOF 5
ENDMDL
