MODEL 1
REMARK VINA RESULT:      -9.6      0.000      0.000
REMARK  7 active torsions:
REMARK  status: ('A' for Active; 'I' for Inactive)
REMARK    1  A    between atoms: O_2  and  C_3 
REMARK    2  A    between atoms: C_4  and  N_5 
REMARK    3  A    between atoms: N_5  and  C_6 
REMARK    4  A    between atoms: C_8  and  N_9 
REMARK    5  A    between atoms: C_11  and  C_12 
REMARK    6  A    between atoms: C_12  and  N_13 
REMARK    7  A    between atoms: N_17  and  C_18 
ROOT
HETATM    1  C   UNL     1       6.855  25.896  54.485  1.00  0.00     0.731 A 
HETATM    2  N   UNL     1       6.035  25.887  53.441  1.00  0.00    -0.031 NA
HETATM    3  C   UNL     1       5.039  26.756  53.458  1.00  0.00     0.219 A 
HETATM    4  N   UNL     1       4.762  27.572  54.467  1.00  0.00    -0.200 NA
HETATM    5  C   UNL     1       5.612  27.484  55.491  1.00  0.00     0.174 A 
HETATM    6  N   UNL     1       6.659  26.674  55.549  1.00  0.00    -0.045 NA
ENDROOT
BRANCH   5   7
HETATM    7  C   UNL     1       5.191  28.171  56.775  1.00  0.00     0.316 C 
BRANCH   7   8
HETATM    8  N   UNL     1       6.090  29.367  57.141  1.00  0.00    -0.061 N 
HETATM    9  H   UNL     1       6.324  29.776  56.220  1.00  0.00     0.280 HD
HETATM   10  C   UNL     1       5.350  30.442  57.929  1.00  0.00     0.255 C 
HETATM   11  C   UNL     1       6.273  31.667  58.146  1.00  0.00     0.152 C 
HETATM   12  N   UNL     1       7.563  31.286  58.766  1.00  0.00    -0.364 N 
HETATM   13  C   UNL     1       8.273  30.154  58.122  1.00  0.00     0.152 C 
HETATM   14  C   UNL     1       7.360  28.936  57.846  1.00  0.00     0.255 C 
BRANCH  12  15
HETATM   15  C   UNL     1       7.736  31.555  60.108  1.00  0.00     0.102 A 
HETATM   16  N   UNL     1       6.634  31.618  60.877  1.00  0.00    -0.352 N 
HETATM   17  H   UNL     1       5.735  31.514  60.412  1.00  0.00     0.166 HD
HETATM   18  C   UNL     1       6.651  31.882  62.193  1.00  0.00     0.089 A 
HETATM   19  C   UNL     1       7.857  32.108  62.835  1.00  0.00     0.017 A 
HETATM   20  C   UNL     1       9.027  32.073  62.089  1.00  0.00     0.005 A 
HETATM   21  C   UNL     1       8.968  31.806  60.721  1.00  0.00     0.048 A 
ENDBRANCH  12  15
ENDBRANCH   7   8
ENDBRANCH   5   7
BRANCH   3  22
HETATM   22  N   UNL     1       4.189  26.777  52.374  1.00  0.00    -0.270 NA
HETATM   23  H   UNL     1       3.444  26.099  52.507  1.00  0.00     0.127 HD
HETATM   24  H   UNL     1       4.684  26.688  51.497  1.00  0.00     0.127 HD
ENDBRANCH   3  22
BRANCH   1  25
HETATM   25  N   UNL     1       7.887  24.973  54.489  1.00  0.00    -0.185 N 
HETATM   26  H   UNL     1       8.809  25.395  54.463  1.00  0.00     0.184 HD
BRANCH  25  27
HETATM   27  C   UNL     1       7.903  23.575  54.661  1.00  0.00     0.084 A 
HETATM   28  C   UNL     1       7.823  23.046  55.970  1.00  0.00     0.095 A 
HETATM   29  C   UNL     1       7.846  21.661  56.173  1.00  0.00     0.041 A 
HETATM   30  C   UNL     1       7.981  20.796  55.086  1.00  0.00     0.026 A 
HETATM   31  C   UNL     1       8.096  21.314  53.801  1.00  0.00     0.036 A 
HETATM   32  C   UNL     1       8.064  22.691  53.587  1.00  0.00     0.056 A 
HETATM   33 CL   UNL     1       8.278  20.253  52.458  1.00  0.00    -0.084 Cl
BRANCH  28  34
HETATM   34  O   UNL     1       7.716  23.979  56.975  1.00  0.00    -0.354 OA
HETATM   35  C   UNL     1       8.932  24.384  57.598  1.00  0.00     0.210 C 
ENDBRANCH  28  34
ENDBRANCH  25  27
ENDBRANCH   1  25
TORSDOF 7
ENDMDL
MODEL 2
REMARK VINA RESULT:      -9.6      3.057      8.831
REMARK  7 active torsions:
REMARK  status: ('A' for Active; 'I' for Inactive)
REMARK    1  A    between atoms: O_2  and  C_3 
REMARK    2  A    between atoms: C_4  and  N_5 
REMARK    3  A    between atoms: N_5  and  C_6 
REMARK    4  A    between atoms: C_8  and  N_9 
REMARK    5  A    between atoms: C_11  and  C_12 
REMARK    6  A    between atoms: C_12  and  N_13 
REMARK    7  A    between atoms: N_17  and  C_18 
ROOT
HETATM    1  C   UNL     1       5.579  29.821  57.354  1.00  0.00     0.731 A 
HETATM    2  N   UNL     1       5.340  30.528  56.255  1.00  0.00    -0.031 NA
HETATM    3  C   UNL     1       4.829  29.875  55.226  1.00  0.00     0.219 A 
HETATM    4  N   UNL     1       4.613  28.566  55.190  1.00  0.00    -0.200 NA
HETATM    5  C   UNL     1       4.920  27.930  56.321  1.00  0.00     0.174 A 
HETATM    6  N   UNL     1       5.399  28.502  57.416  1.00  0.00    -0.045 NA
ENDROOT
BRANCH   5   7
HETATM    7  C   UNL     1       4.967  26.416  56.249  1.00  0.00     0.316 C 
BRANCH   7   8
HETATM    8  N   UNL     1       6.331  25.877  55.780  1.00  0.00    -0.061 N 
HETATM    9  H   UNL     1       6.957  26.692  55.893  1.00  0.00     0.280 HD
HETATM   10  C   UNL     1       6.873  24.774  56.683  1.00  0.00     0.255 C 
HETATM   11  C   UNL     1       8.299  24.375  56.231  1.00  0.00     0.152 C 
HETATM   12  N   UNL     1       8.345  24.016  54.795  1.00  0.00    -0.364 N 
HETATM   13  C   UNL     1       7.716  24.991  53.871  1.00  0.00     0.152 C 
HETATM   14  C   UNL     1       6.309  25.447  54.328  1.00  0.00     0.255 C 
BRANCH  12  15
HETATM   15  C   UNL     1       8.415  22.678  54.468  1.00  0.00     0.102 A 
HETATM   16  N   UNL     1       8.890  21.833  55.402  1.00  0.00    -0.352 N 
HETATM   17  H   UNL     1       9.217  22.240  56.274  1.00  0.00     0.166 HD
HETATM   18  C   UNL     1       9.023  20.510  55.219  1.00  0.00     0.089 A 
HETATM   19  C   UNL     1       8.660  19.941  54.010  1.00  0.00     0.017 A 
HETATM   20  C   UNL     1       8.179  20.765  53.002  1.00  0.00     0.005 A 
HETATM   21  C   UNL     1       8.064  22.138  53.226  1.00  0.00     0.048 A 
ENDBRANCH  12  15
ENDBRANCH   7   8
ENDBRANCH   5   7
BRANCH   3  22
HETATM   22  N   UNL     1       4.555  30.593  54.083  1.00  0.00    -0.270 NA
HETATM   23  H   UNL     1       4.014  31.420  54.317  1.00  0.00     0.127 HD
HETATM   24  H   UNL     1       4.146  30.018  53.359  1.00  0.00     0.127 HD
ENDBRANCH   3  22
BRANCH   1  25
HETATM   25  N   UNL     1       6.137  30.490  58.430  1.00  0.00    -0.185 N 
HETATM   26  H   UNL     1       5.494  30.624  59.202  1.00  0.00     0.184 HD
BRANCH  25  27
HETATM   27  C   UNL     1       7.457  30.894  58.709  1.00  0.00     0.084 A 
HETATM   28  C   UNL     1       7.676  31.887  59.692  1.00  0.00     0.095 A 
HETATM   29  C   UNL     1       8.976  32.314  59.984  1.00  0.00     0.041 A 
HETATM   30  C   UNL     1      10.062  31.785  59.284  1.00  0.00     0.026 A 
HETATM   31  C   UNL     1       9.847  30.834  58.293  1.00  0.00     0.036 A 
HETATM   32  C   UNL     1       8.557  30.394  58.000  1.00  0.00     0.056 A 
HETATM   33 CL   UNL     1      11.180  30.189  57.416  1.00  0.00    -0.084 Cl
BRANCH  28  34
HETATM   34  O   UNL     1       6.542  32.362  60.308  1.00  0.00    -0.354 OA
HETATM   35  C   UNL     1       6.466  32.191  61.720  1.00  0.00     0.210 C 
ENDBRANCH  28  34
ENDBRANCH  25  27
ENDBRANCH   1  25
TORSDOF 7
ENDMDL
MODEL 3
REMARK VINA RESULT:      -9.5      4.064      9.818
REMARK  7 active torsions:
REMARK  status: ('A' for Active; 'I' for Inactive)
REMARK    1  A    between atoms: O_2  and  C_3 
REMARK    2  A    between atoms: C_4  and  N_5 
REMARK    3  A    between atoms: N_5  and  C_6 
REMARK    4  A    between atoms: C_8  and  N_9 
REMARK    5  A    between atoms: C_11  and  C_12 
REMARK    6  A    between atoms: C_12  and  N_13 
REMARK    7  A    between atoms: N_17  and  C_18 
ROOT
HETATM    1  C   UNL     1       7.204  31.576  58.996  1.00  0.00     0.731 A 
HETATM    2  N   UNL     1       6.247  32.052  58.208  1.00  0.00    -0.031 NA
HETATM    3  C   UNL     1       5.768  31.230  57.291  1.00  0.00     0.219 A 
HETATM    4  N   UNL     1       6.225  30.006  57.056  1.00  0.00    -0.200 NA
HETATM    5  C   UNL     1       7.214  29.627  57.867  1.00  0.00     0.174 A 
HETATM    6  N   UNL     1       7.732  30.363  58.839  1.00  0.00    -0.045 NA
ENDROOT
BRANCH   5   7
HETATM    7  C   UNL     1       7.962  28.370  57.472  1.00  0.00     0.316 C 
BRANCH   7   8
HETATM    8  N   UNL     1       7.069  27.334  56.762  1.00  0.00    -0.061 N 
HETATM    9  H   UNL     1       6.127  27.757  56.821  1.00  0.00     0.280 HD
HETATM   10  C   UNL     1       7.398  27.187  55.281  1.00  0.00     0.255 C 
HETATM   11  C   UNL     1       6.380  26.235  54.606  1.00  0.00     0.152 C 
HETATM   12  N   UNL     1       6.291  24.933  55.306  1.00  0.00    -0.364 N 
HETATM   13  C   UNL     1       6.101  25.008  56.775  1.00  0.00     0.152 C 
HETATM   14  C   UNL     1       7.073  25.994  57.468  1.00  0.00     0.255 C 
BRANCH  12  15
HETATM   15  C   UNL     1       6.920  23.849  54.730  1.00  0.00     0.102 A 
HETATM   16  N   UNL     1       7.246  22.820  55.533  1.00  0.00    -0.352 N 
HETATM   17  H   UNL     1       7.055  22.927  56.527  1.00  0.00     0.166 HD
HETATM   18  C   UNL     1       7.869  21.708  55.113  1.00  0.00     0.089 A 
HETATM   19  C   UNL     1       8.213  21.572  53.779  1.00  0.00     0.017 A 
HETATM   20  C   UNL     1       7.917  22.610  52.905  1.00  0.00     0.005 A 
HETATM   21  C   UNL     1       7.278  23.755  53.381  1.00  0.00     0.048 A 
ENDBRANCH  12  15
ENDBRANCH   7   8
ENDBRANCH   5   7
BRANCH   3  22
HETATM   22  N   UNL     1       4.761  31.696  56.475  1.00  0.00    -0.270 NA
HETATM   23  H   UNL     1       4.135  30.934  56.230  1.00  0.00     0.127 HD
HETATM   24  H   UNL     1       5.118  32.214  55.683  1.00  0.00     0.127 HD
ENDBRANCH   3  22
BRANCH   1  25
HETATM   25  N   UNL     1       7.729  32.438  59.945  1.00  0.00    -0.185 N 
HETATM   26  H   UNL     1       8.431  33.069  59.575  1.00  0.00     0.184 HD
BRANCH  25  27
HETATM   27  C   UNL     1       7.377  32.696  61.284  1.00  0.00     0.084 A 
HETATM   28  C   UNL     1       8.257  32.289  62.314  1.00  0.00     0.095 A 
HETATM   29  C   UNL     1       7.929  32.524  63.654  1.00  0.00     0.041 A 
HETATM   30  C   UNL     1       6.716  33.133  63.982  1.00  0.00     0.026 A 
HETATM   31  C   UNL     1       5.834  33.503  62.974  1.00  0.00     0.036 A 
HETATM   32  C   UNL     1       6.155  33.282  61.635  1.00  0.00     0.056 A 
HETATM   33 CL   UNL     1       4.331  34.240  63.373  1.00  0.00    -0.084 Cl
BRANCH  28  34
HETATM   34  O   UNL     1       9.413  31.677  61.890  1.00  0.00    -0.354 OA
HETATM   35  C   UNL     1       9.466  30.259  62.023  1.00  0.00     0.210 C 
ENDBRANCH  28  34
ENDBRANCH  25  27
ENDBRANCH   1  25
TORSDOF 7
ENDMDL
MODEL 4
REMARK VINA RESULT:      -9.4      2.725      5.053
REMARK  7 active torsions:
REMARK  status: ('A' for Active; 'I' for Inactive)
REMARK    1  A    between atoms: O_2  and  C_3 
REMARK    2  A    between atoms: C_4  and  N_5 
REMARK    3  A    between atoms: N_5  and  C_6 
REMARK    4  A    between atoms: C_8  and  N_9 
REMARK    5  A    between atoms: C_11  and  C_12 
REMARK    6  A    between atoms: C_12  and  N_13 
REMARK    7  A    between atoms: N_17  and  C_18 
ROOT
HETATM    1  C   UNL     1       8.174  28.700  57.660  1.00  0.00     0.731 A 
HETATM    2  N   UNL     1       9.368  28.681  57.080  1.00  0.00    -0.031 NA
HETATM    3  C   UNL     1      10.198  29.661  57.394  1.00  0.00     0.219 A 
HETATM    4  N   UNL     1       9.896  30.688  58.178  1.00  0.00    -0.200 NA
HETATM    5  C   UNL     1       8.663  30.647  58.683  1.00  0.00     0.174 A 
HETATM    6  N   UNL     1       7.775  29.689  58.459  1.00  0.00    -0.045 NA
ENDROOT
BRANCH   5   7
HETATM    7  C   UNL     1       8.165  31.916  59.345  1.00  0.00     0.316 C 
BRANCH   7   8
HETATM    8  N   UNL     1       7.160  31.649  60.482  1.00  0.00    -0.061 N 
HETATM    9  H   UNL     1       6.674  30.793  60.169  1.00  0.00     0.280 HD
HETATM   10  C   UNL     1       7.841  31.316  61.805  1.00  0.00     0.255 C 
HETATM   11  C   UNL     1       6.778  30.930  62.863  1.00  0.00     0.152 C 
HETATM   12  N   UNL     1       5.733  31.970  63.002  1.00  0.00    -0.364 N 
HETATM   13  C   UNL     1       5.120  32.434  61.734  1.00  0.00     0.152 C 
HETATM   14  C   UNL     1       6.160  32.776  60.640  1.00  0.00     0.255 C 
BRANCH  12  15
HETATM   15  C   UNL     1       5.793  32.799  64.102  1.00  0.00     0.102 A 
HETATM   16  N   UNL     1       4.630  33.262  64.597  1.00  0.00    -0.352 N 
HETATM   17  H   UNL     1       3.780  33.012  64.098  1.00  0.00     0.166 HD
HETATM   18  C   UNL     1       4.538  34.084  65.654  1.00  0.00     0.089 A 
HETATM   19  C   UNL     1       5.687  34.504  66.303  1.00  0.00     0.017 A 
HETATM   20  C   UNL     1       6.918  34.073  65.827  1.00  0.00     0.005 A 
HETATM   21  C   UNL     1       6.974  33.227  64.719  1.00  0.00     0.048 A 
ENDBRANCH  12  15
ENDBRANCH   7   8
ENDBRANCH   5   7
BRANCH   3  22
HETATM   22  N   UNL     1      11.450  29.650  56.819  1.00  0.00    -0.270 NA
HETATM   23  H   UNL     1      12.155  29.845  57.524  1.00  0.00     0.127 HD
HETATM   24  H   UNL     1      11.501  30.244  56.002  1.00  0.00     0.127 HD
ENDBRANCH   3  22
BRANCH   1  25
HETATM   25  N   UNL     1       7.288  27.691  57.320  1.00  0.00    -0.185 N 
HETATM   26  H   UNL     1       6.328  27.889  57.580  1.00  0.00     0.184 HD
BRANCH  25  27
HETATM   27  C   UNL     1       7.443  26.515  56.561  1.00  0.00     0.084 A 
HETATM   28  C   UNL     1       7.132  26.543  55.182  1.00  0.00     0.095 A 
HETATM   29  C   UNL     1       7.268  25.387  54.405  1.00  0.00     0.041 A 
HETATM   30  C   UNL     1       7.680  24.191  54.995  1.00  0.00     0.026 A 
HETATM   31  C   UNL     1       7.952  24.150  56.357  1.00  0.00     0.036 A 
HETATM   32  C   UNL     1       7.830  25.299  57.139  1.00  0.00     0.056 A 
HETATM   33 CL   UNL     1       8.445  22.676  57.094  1.00  0.00    -0.084 Cl
BRANCH  28  34
HETATM   34  O   UNL     1       6.712  27.761  54.701  1.00  0.00    -0.354 OA
HETATM   35  C   UNL     1       6.632  27.891  53.284  1.00  0.00     0.210 C 
ENDBRANCH  28  34
ENDBRANCH  25  27
ENDBRANCH   1  25
TORSDOF 7
ENDMDL
MODEL 5
REMARK VINA RESULT:      -9.3      3.732      9.424
REMARK  7 active torsions:
REMARK  status: ('A' for Active; 'I' for Inactive)
REMARK    1  A    between atoms: O_2  and  C_3 
REMARK    2  A    between atoms: C_4  and  N_5 
REMARK    3  A    between atoms: N_5  and  C_6 
REMARK    4  A    between atoms: C_8  and  N_9 
REMARK    5  A    between atoms: C_11  and  C_12 
REMARK    6  A    between atoms: C_12  and  N_13 
REMARK    7  A    between atoms: N_17  and  C_18 
ROOT
HETATM    1  C   UNL     1       8.514  29.929  58.132  1.00  0.00     0.731 A 
HETATM    2  N   UNL     1       9.837  30.030  58.180  1.00  0.00    -0.031 NA
HETATM    3  C   UNL     1      10.493  29.788  57.059  1.00  0.00     0.219 A 
HETATM    4  N   UNL     1       9.935  29.382  55.925  1.00  0.00    -0.200 NA
HETATM    5  C   UNL     1       8.607  29.267  55.981  1.00  0.00     0.174 A 
HETATM    6  N   UNL     1       7.860  29.524  57.044  1.00  0.00    -0.045 NA
ENDROOT
BRANCH   5   7
HETATM    7  C   UNL     1       7.947  28.541  54.825  1.00  0.00     0.316 C 
BRANCH   7   8
HETATM    8  N   UNL     1       7.267  27.226  55.248  1.00  0.00    -0.061 N 
HETATM    9  H   UNL     1       6.494  27.546  55.855  1.00  0.00     0.280 HD
HETATM   10  C   UNL     1       6.635  26.484  54.076  1.00  0.00     0.255 C 
HETATM   11  C   UNL     1       5.859  25.247  54.591  1.00  0.00     0.152 C 
HETATM   12  N   UNL     1       6.707  24.372  55.432  1.00  0.00    -0.364 N 
HETATM   13  C   UNL     1       7.456  25.056  56.515  1.00  0.00     0.152 C 
HETATM   14  C   UNL     1       8.198  26.327  56.037  1.00  0.00     0.255 C 
BRANCH  12  15
HETATM   15  C   UNL     1       7.186  23.207  54.871  1.00  0.00     0.102 A 
HETATM   16  N   UNL     1       7.425  22.171  55.695  1.00  0.00    -0.352 N 
HETATM   17  H   UNL     1       7.286  22.327  56.690  1.00  0.00     0.166 HD
HETATM   18  C   UNL     1       7.902  20.984  55.290  1.00  0.00     0.089 A 
HETATM   19  C   UNL     1       8.176  20.771  53.949  1.00  0.00     0.017 A 
HETATM   20  C   UNL     1       7.966  21.810  53.053  1.00  0.00     0.005 A 
HETATM   21  C   UNL     1       7.479  23.034  53.513  1.00  0.00     0.048 A 
ENDBRANCH  12  15
ENDBRANCH   7   8
ENDBRANCH   5   7
BRANCH   3  22
HETATM   22  N   UNL     1      11.866  29.907  57.081  1.00  0.00    -0.270 NA
HETATM   23  H   UNL     1      12.231  29.856  56.134  1.00  0.00     0.127 HD
HETATM   24  H   UNL     1      12.295  29.262  57.730  1.00  0.00     0.127 HD
ENDBRANCH   3  22
BRANCH   1  25
HETATM   25  N   UNL     1       7.818  30.157  59.307  1.00  0.00    -0.185 N 
HETATM   26  H   UNL     1       7.949  29.432  60.004  1.00  0.00     0.184 HD
BRANCH  25  27
HETATM   27  C   UNL     1       7.081  31.265  59.769  1.00  0.00     0.084 A 
HETATM   28  C   UNL     1       7.360  31.787  61.053  1.00  0.00     0.095 A 
HETATM   29  C   UNL     1       6.638  32.881  61.541  1.00  0.00     0.041 A 
HETATM   30  C   UNL     1       5.615  33.443  60.776  1.00  0.00     0.026 A 
HETATM   31  C   UNL     1       5.313  32.911  59.528  1.00  0.00     0.036 A 
HETATM   32  C   UNL     1       6.034  31.827  59.027  1.00  0.00     0.056 A 
HETATM   33 CL   UNL     1       4.043  33.589  58.586  1.00  0.00    -0.084 Cl
BRANCH  28  34
HETATM   34  O   UNL     1       8.368  31.150  61.738  1.00  0.00    -0.354 OA
HETATM   35  C   UNL     1       9.673  31.708  61.613  1.00  0.00     0.210 C 
ENDBRANCH  28  34
ENDBRANCH  25  27
ENDBRANCH   1  25
TORSDOF 7
ENDMDL
MODEL 6
REMARK VINA RESULT:      -9.2      3.544      9.289
REMARK  7 active torsions:
REMARK  status: ('A' for Active; 'I' for Inactive)
REMARK    1  A    between atoms: O_2  and  C_3 
REMARK    2  A    between atoms: C_4  and  N_5 
REMARK    3  A    between atoms: N_5  and  C_6 
REMARK    4  A    between atoms: C_8  and  N_9 
REMARK    5  A    between atoms: C_11  and  C_12 
REMARK    6  A    between atoms: C_12  and  N_13 
REMARK    7  A    between atoms: N_17  and  C_18 
ROOT
HETATM    1  C   UNL     1       7.801  29.254  57.397  1.00  0.00     0.731 A 
HETATM    2  N   UNL     1       7.913  28.141  58.112  1.00  0.00    -0.031 NA
HETATM    3  C   UNL     1       7.566  27.014  57.516  1.00  0.00     0.219 A 
HETATM    4  N   UNL     1       7.049  26.928  56.298  1.00  0.00    -0.200 NA
HETATM    5  C   UNL     1       6.933  28.098  55.669  1.00  0.00     0.174 A 
HETATM    6  N   UNL     1       7.290  29.273  56.167  1.00  0.00    -0.045 NA
ENDROOT
BRANCH   5   7
HETATM    7  C   UNL     1       6.096  28.103  54.405  1.00  0.00     0.316 C 
BRANCH   7   8
HETATM    8  N   UNL     1       6.298  26.842  53.544  1.00  0.00    -0.061 N 
HETATM    9  H   UNL     1       6.106  27.178  52.586  1.00  0.00     0.280 HD
HETATM   10  C   UNL     1       7.739  26.342  53.558  1.00  0.00     0.255 C 
HETATM   11  C   UNL     1       7.896  25.159  52.571  1.00  0.00     0.152 C 
HETATM   12  N   UNL     1       6.914  24.083  52.835  1.00  0.00    -0.364 N 
HETATM   13  C   UNL     1       5.503  24.522  52.964  1.00  0.00     0.152 C 
HETATM   14  C   UNL     1       5.324  25.739  53.904  1.00  0.00     0.255 C 
BRANCH  12  15
HETATM   15  C   UNL     1       7.360  22.947  53.477  1.00  0.00     0.102 A 
HETATM   16  N   UNL     1       7.313  22.934  54.822  1.00  0.00    -0.352 N 
HETATM   17  H   UNL     1       6.999  23.783  55.285  1.00  0.00     0.166 HD
HETATM   18  C   UNL     1       7.724  21.903  55.577  1.00  0.00     0.089 A 
HETATM   19  C   UNL     1       8.232  20.765  54.974  1.00  0.00     0.017 A 
HETATM   20  C   UNL     1       8.321  20.727  53.588  1.00  0.00     0.005 A 
HETATM   21  C   UNL     1       7.894  21.823  52.837  1.00  0.00     0.048 A 
ENDBRANCH  12  15
ENDBRANCH   7   8
ENDBRANCH   5   7
BRANCH   3  22
HETATM   22  N   UNL     1       7.694  25.844  58.234  1.00  0.00    -0.270 NA
HETATM   23  H   UNL     1       6.798  25.366  58.275  1.00  0.00     0.127 HD
HETATM   24  H   UNL     1       8.130  25.993  59.134  1.00  0.00     0.127 HD
ENDBRANCH   3  22
BRANCH   1  25
HETATM   25  N   UNL     1       8.139  30.444  58.020  1.00  0.00    -0.185 N 
HETATM   26  H   UNL     1       8.857  30.968  57.531  1.00  0.00     0.184 HD
BRANCH  25  27
HETATM   27  C   UNL     1       7.581  31.127  59.117  1.00  0.00     0.084 A 
HETATM   28  C   UNL     1       6.483  31.992  58.899  1.00  0.00     0.095 A 
HETATM   29  C   UNL     1       5.914  32.691  59.970  1.00  0.00     0.041 A 
HETATM   30  C   UNL     1       6.447  32.563  61.253  1.00  0.00     0.026 A 
HETATM   31  C   UNL     1       7.548  31.742  61.465  1.00  0.00     0.036 A 
HETATM   32  C   UNL     1       8.117  31.033  60.408  1.00  0.00     0.056 A 
HETATM   33 CL   UNL     1       8.220  31.592  63.042  1.00  0.00    -0.084 Cl
BRANCH  28  34
HETATM   34  O   UNL     1       6.046  32.068  57.597  1.00  0.00    -0.354 OA
HETATM   35  C   UNL     1       4.727  31.595  57.341  1.00  0.00     0.210 C 
ENDBRANCH  28  34
ENDBRANCH  25  27
ENDBRANCH   1  25
TORSDOF 7
ENDMDL
MODEL 7
REMARK VINA RESULT:      -9.1      2.901      7.113
REMARK  7 active torsions:
REMARK  status: ('A' for Active; 'I' for Inactive)
REMARK    1  A    between atoms: O_2  and  C_3 
REMARK    2  A    between atoms: C_4  and  N_5 
REMARK    3  A    between atoms: N_5  and  C_6 
REMARK    4  A    between atoms: C_8  and  N_9 
REMARK    5  A    between atoms: C_11  and  C_12 
REMARK    6  A    between atoms: C_12  and  N_13 
REMARK    7  A    between atoms: N_17  and  C_18 
ROOT
HETATM    1  C   UNL     1       7.084  26.253  57.085  1.00  0.00     0.731 A 
HETATM    2  N   UNL     1       7.878  27.097  57.733  1.00  0.00    -0.031 NA
HETATM    3  C   UNL     1       7.414  28.318  57.930  1.00  0.00     0.219 A 
HETATM    4  N   UNL     1       6.259  28.776  57.463  1.00  0.00    -0.200 NA
HETATM    5  C   UNL     1       5.546  27.873  56.789  1.00  0.00     0.174 A 
HETATM    6  N   UNL     1       5.908  26.616  56.574  1.00  0.00    -0.045 NA
ENDROOT
BRANCH   5   7
HETATM    7  C   UNL     1       4.368  28.403  55.996  1.00  0.00     0.316 C 
BRANCH   7   8
HETATM    8  N   UNL     1       4.749  28.839  54.569  1.00  0.00    -0.061 N 
HETATM    9  H   UNL     1       5.426  29.604  54.730  1.00  0.00     0.280 HD
HETATM   10  C   UNL     1       5.486  27.751  53.796  1.00  0.00     0.255 C 
HETATM   11  C   UNL     1       5.954  28.302  52.426  1.00  0.00     0.152 C 
HETATM   12  N   UNL     1       4.837  28.895  51.657  1.00  0.00    -0.364 N 
HETATM   13  C   UNL     1       3.997  29.869  52.396  1.00  0.00     0.152 C 
HETATM   14  C   UNL     1       3.559  29.364  53.792  1.00  0.00     0.255 C 
BRANCH  12  15
HETATM   15  C   UNL     1       4.313  28.161  50.613  1.00  0.00     0.102 A 
HETATM   16  N   UNL     1       3.119  28.541  50.122  1.00  0.00    -0.352 N 
HETATM   17  H   UNL     1       2.651  29.317  50.586  1.00  0.00     0.166 HD
HETATM   18  C   UNL     1       2.486  27.916  49.118  1.00  0.00     0.089 A 
HETATM   19  C   UNL     1       3.065  26.807  48.523  1.00  0.00     0.017 A 
HETATM   20  C   UNL     1       4.289  26.357  48.998  1.00  0.00     0.005 A 
HETATM   21  C   UNL     1       4.912  27.028  50.051  1.00  0.00     0.048 A 
ENDBRANCH  12  15
ENDBRANCH   7   8
ENDBRANCH   5   7
BRANCH   3  22
HETATM   22  N   UNL     1       8.214  29.204  58.618  1.00  0.00    -0.270 NA
HETATM   23  H   UNL     1       9.139  29.232  58.199  1.00  0.00     0.127 HD
HETATM   24  H   UNL     1       8.212  29.027  59.614  1.00  0.00     0.127 HD
ENDBRANCH   3  22
BRANCH   1  25
HETATM   25  N   UNL     1       7.570  24.977  56.852  1.00  0.00    -0.185 N 
HETATM   26  H   UNL     1       7.694  24.430  57.697  1.00  0.00     0.184 HD
BRANCH  25  27
HETATM   27  C   UNL     1       7.790  24.252  55.665  1.00  0.00     0.084 A 
HETATM   28  C   UNL     1       8.237  22.913  55.752  1.00  0.00     0.095 A 
HETATM   29  C   UNL     1       8.473  22.172  54.589  1.00  0.00     0.041 A 
HETATM   30  C   UNL     1       8.300  22.761  53.336  1.00  0.00     0.026 A 
HETATM   31  C   UNL     1       7.894  24.087  53.245  1.00  0.00     0.036 A 
HETATM   32  C   UNL     1       7.647  24.832  54.398  1.00  0.00     0.056 A 
HETATM   33 CL   UNL     1       7.693  24.823  51.703  1.00  0.00    -0.084 Cl
BRANCH  28  34
HETATM   34  O   UNL     1       8.401  22.433  57.031  1.00  0.00    -0.354 OA
HETATM   35  C   UNL     1       8.403  21.016  57.181  1.00  0.00     0.210 C 
ENDBRANCH  28  34
ENDBRANCH  25  27
ENDBRANCH   1  25
TORSDOF 7
ENDMDL
MODEL 8
REMARK VINA RESULT:      -9.1      3.518      8.989
REMARK  7 active torsions:
REMARK  status: ('A' for Active; 'I' for Inactive)
REMARK    1  A    between atoms: O_2  and  C_3 
REMARK    2  A    between atoms: C_4  and  N_5 
REMARK    3  A    between atoms: N_5  and  C_6 
REMARK    4  A    between atoms: C_8  and  N_9 
REMARK    5  A    between atoms: C_11  and  C_12 
REMARK    6  A    between atoms: C_12  and  N_13 
REMARK    7  A    between atoms: N_17  and  C_18 
ROOT
HETATM    1  C   UNL     1       6.403  30.356  57.491  1.00  0.00     0.731 A 
HETATM    2  N   UNL     1       5.431  31.250  57.363  1.00  0.00    -0.031 NA
HETATM    3  C   UNL     1       4.231  30.787  57.058  1.00  0.00     0.219 A 
HETATM    4  N   UNL     1       3.953  29.515  56.800  1.00  0.00    -0.200 NA
HETATM    5  C   UNL     1       4.997  28.693  56.912  1.00  0.00     0.174 A 
HETATM    6  N   UNL     1       6.225  29.057  57.249  1.00  0.00    -0.045 NA
ENDROOT
BRANCH   5   7
HETATM    7  C   UNL     1       4.813  27.294  56.358  1.00  0.00     0.316 C 
BRANCH   7   8
HETATM    8  N   UNL     1       6.142  26.620  55.969  1.00  0.00    -0.061 N 
HETATM    9  H   UNL     1       6.845  27.349  56.177  1.00  0.00     0.280 HD
HETATM   10  C   UNL     1       6.475  25.419  56.849  1.00  0.00     0.255 C 
HETATM   11  C   UNL     1       7.880  24.876  56.491  1.00  0.00     0.152 C 
HETATM   12  N   UNL     1       8.008  24.581  55.045  1.00  0.00    -0.364 N 
HETATM   13  C   UNL     1       7.576  25.665  54.130  1.00  0.00     0.152 C 
HETATM   14  C   UNL     1       6.196  26.263  54.498  1.00  0.00     0.255 C 
BRANCH  12  15
HETATM   15  C   UNL     1       7.952  23.261  54.651  1.00  0.00     0.102 A 
HETATM   16  N   UNL     1       7.878  22.325  55.615  1.00  0.00    -0.352 N 
HETATM   17  H   UNL     1       7.920  22.647  56.579  1.00  0.00     0.166 HD
HETATM   18  C   UNL     1       7.829  21.006  55.378  1.00  0.00     0.089 A 
HETATM   19  C   UNL     1       7.853  20.537  54.075  1.00  0.00     0.017 A 
HETATM   20  C   UNL     1       7.946  21.455  53.038  1.00  0.00     0.005 A 
HETATM   21  C   UNL     1       8.005  22.819  53.324  1.00  0.00     0.048 A 
ENDBRANCH  12  15
ENDBRANCH   7   8
ENDBRANCH   5   7
BRANCH   3  22
HETATM   22  N   UNL     1       3.203  31.696  56.940  1.00  0.00    -0.270 NA
HETATM   23  H   UNL     1       3.551  32.558  56.531  1.00  0.00     0.127 HD
HETATM   24  H   UNL     1       2.700  31.820  57.809  1.00  0.00     0.127 HD
ENDBRANCH   3  22
BRANCH   1  25
HETATM   25  N   UNL     1       7.669  30.833  57.786  1.00  0.00    -0.185 N 
HETATM   26  H   UNL     1       8.229  31.031  56.964  1.00  0.00     0.184 HD
BRANCH  25  27
HETATM   27  C   UNL     1       8.272  31.226  58.996  1.00  0.00     0.084 A 
HETATM   28  C   UNL     1       9.647  31.556  59.001  1.00  0.00     0.095 A 
HETATM   29  C   UNL     1      10.275  31.941  60.191  1.00  0.00     0.041 A 
HETATM   30  C   UNL     1       9.555  31.969  61.386  1.00  0.00     0.026 A 
HETATM   31  C   UNL     1       8.212  31.611  61.392  1.00  0.00     0.036 A 
HETATM   32  C   UNL     1       7.573  31.235  60.210  1.00  0.00     0.056 A 
HETATM   33 CL   UNL     1       7.322  31.628  62.865  1.00  0.00    -0.084 Cl
BRANCH  28  34
HETATM   34  O   UNL     1      10.273  31.475  57.780  1.00  0.00    -0.354 OA
HETATM   35  C   UNL     1      11.013  30.284  57.523  1.00  0.00     0.210 C 
ENDBRANCH  28  34
ENDBRANCH  25  27
ENDBRANCH   1  25
TORSDOF 7
ENDMDL
MODEL 9
REMARK VINA RESULT:      -9.0      4.160      9.612
REMARK  7 active torsions:
REMARK  status: ('A' for Active; 'I' for Inactive)
REMARK    1  A    between atoms: O_2  and  C_3 
REMARK    2  A    between atoms: C_4  and  N_5 
REMARK    3  A    between atoms: N_5  and  C_6 
REMARK    4  A    between atoms: C_8  and  N_9 
REMARK    5  A    between atoms: C_11  and  C_12 
REMARK    6  A    between atoms: C_12  and  N_13 
REMARK    7  A    between atoms: N_17  and  C_18 
ROOT
HETATM    1  C   UNL     1       7.550  28.959  57.060  1.00  0.00     0.731 A 
HETATM    2  N   UNL     1       7.959  27.975  57.851  1.00  0.00    -0.031 NA
HETATM    3  C   UNL     1       7.525  26.760  57.564  1.00  0.00     0.219 A 
HETATM    4  N   UNL     1       6.659  26.472  56.601  1.00  0.00    -0.200 NA
HETATM    5  C   UNL     1       6.269  27.526  55.883  1.00  0.00     0.174 A 
HETATM    6  N   UNL     1       6.679  28.773  56.069  1.00  0.00    -0.045 NA
ENDROOT
BRANCH   5   7
HETATM    7  C   UNL     1       5.080  27.313  54.967  1.00  0.00     0.316 C 
BRANCH   7   8
HETATM    8  N   UNL     1       5.458  27.336  53.474  1.00  0.00    -0.061 N 
HETATM    9  H   UNL     1       6.489  27.398  53.493  1.00  0.00     0.280 HD
HETATM   10  C   UNL     1       5.105  26.038  52.756  1.00  0.00     0.255 C 
HETATM   11  C   UNL     1       5.630  26.082  51.300  1.00  0.00     0.152 C 
HETATM   12  N   UNL     1       5.159  27.284  50.576  1.00  0.00    -0.364 N 
HETATM   13  C   UNL     1       5.355  28.574  51.282  1.00  0.00     0.152 C 
HETATM   14  C   UNL     1       4.886  28.542  52.756  1.00  0.00     0.255 C 
BRANCH  12  15
HETATM   15  C   UNL     1       4.135  27.127  49.665  1.00  0.00     0.102 A 
HETATM   16  N   UNL     1       3.117  28.006  49.716  1.00  0.00    -0.352 N 
HETATM   17  H   UNL     1       3.140  28.702  50.457  1.00  0.00     0.166 HD
HETATM   18  C   UNL     1       2.052  27.968  48.901  1.00  0.00     0.089 A 
HETATM   19  C   UNL     1       1.956  26.980  47.935  1.00  0.00     0.017 A 
HETATM   20  C   UNL     1       2.969  26.034  47.846  1.00  0.00     0.005 A 
HETATM   21  C   UNL     1       4.057  26.100  48.718  1.00  0.00     0.048 A 
ENDBRANCH  12  15
ENDBRANCH   7   8
ENDBRANCH   5   7
BRANCH   3  22
HETATM   22  N   UNL     1       7.954  25.721  58.361  1.00  0.00    -0.270 NA
HETATM   23  H   UNL     1       7.739  24.834  57.915  1.00  0.00     0.127 HD
HETATM   24  H   UNL     1       7.618  25.803  59.311  1.00  0.00     0.127 HD
ENDBRANCH   3  22
BRANCH   1  25
HETATM   25  N   UNL     1       7.980  30.239  57.366  1.00  0.00    -0.185 N 
HETATM   26  H   UNL     1       7.861  30.899  56.606  1.00  0.00     0.184 HD
BRANCH  25  27
HETATM   27  C   UNL     1       8.416  30.826  58.569  1.00  0.00     0.084 A 
HETATM   28  C   UNL     1       9.735  31.330  58.646  1.00  0.00     0.095 A 
HETATM   29  C   UNL     1      10.200  31.910  59.832  1.00  0.00     0.041 A 
HETATM   30  C   UNL     1       9.374  31.965  60.956  1.00  0.00     0.026 A 
HETATM   31  C   UNL     1       8.089  31.439  60.895  1.00  0.00     0.036 A 
HETATM   32  C   UNL     1       7.612  30.868  59.715  1.00  0.00     0.056 A 
HETATM   33 CL   UNL     1       7.070  31.490  62.281  1.00  0.00    -0.084 Cl
BRANCH  28  34
HETATM   34  O   UNL     1      10.478  31.207  57.495  1.00  0.00    -0.354 OA
HETATM   35  C   UNL     1      11.322  30.063  57.403  1.00  0.00     0.210 C 
ENDBRANCH  28  34
ENDBRANCH  25  27
ENDBRANCH   1  25
TORSDOF 7
ENDMDL
MODEL 10
REMARK VINA RESULT:      -9.0      3.913      9.673
REMARK  7 active torsions:
REMARK  status: ('A' for Active; 'I' for Inactive)
REMARK    1  A    between atoms: O_2  and  C_3 
REMARK    2  A    between atoms: C_4  and  N_5 
REMARK    3  A    between atoms: N_5  and  C_6 
REMARK    4  A    between atoms: C_8  and  N_9 
REMARK    5  A    between atoms: C_11  and  C_12 
REMARK    6  A    between atoms: C_12  and  N_13 
REMARK    7  A    between atoms: N_17  and  C_18 
ROOT
HETATM    1  C   UNL     1       8.481  29.954  58.735  1.00  0.00     0.731 A 
HETATM    2  N   UNL     1       9.789  30.164  58.660  1.00  0.00    -0.031 NA
HETATM    3  C   UNL     1      10.349  30.018  57.472  1.00  0.00     0.219 A 
HETATM    4  N   UNL     1       9.715  29.606  56.381  1.00  0.00    -0.200 NA
HETATM    5  C   UNL     1       8.413  29.379  56.558  1.00  0.00     0.174 A 
HETATM    6  N   UNL     1       7.756  29.535  57.698  1.00  0.00    -0.045 NA
ENDROOT
BRANCH   5   7
HETATM    7  C   UNL     1       7.701  28.642  55.440  1.00  0.00     0.316 C 
BRANCH   7   8
HETATM    8  N   UNL     1       7.205  27.245  55.859  1.00  0.00    -0.061 N 
HETATM    9  H   UNL     1       6.562  27.450  56.642  1.00  0.00     0.280 HD
HETATM   10  C   UNL     1       6.381  26.562  54.773  1.00  0.00     0.255 C 
HETATM   11  C   UNL     1       5.807  25.227  55.309  1.00  0.00     0.152 C 
HETATM   12  N   UNL     1       6.864  24.352  55.864  1.00  0.00    -0.364 N 
HETATM   13  C   UNL     1       7.786  24.995  56.832  1.00  0.00     0.152 C 
HETATM   14  C   UNL     1       8.333  26.357  56.343  1.00  0.00     0.255 C 
BRANCH  12  15
HETATM   15  C   UNL     1       7.280  23.281  55.099  1.00  0.00     0.102 A 
HETATM   16  N   UNL     1       7.342  23.455  53.766  1.00  0.00    -0.352 N 
HETATM   17  H   UNL     1       7.029  24.350  53.399  1.00  0.00     0.166 HD
HETATM   18  C   UNL     1       7.717  22.500  52.901  1.00  0.00     0.089 A 
HETATM   19  C   UNL     1       8.071  21.246  53.370  1.00  0.00     0.017 A 
HETATM   20  C   UNL     1       8.010  21.001  54.735  1.00  0.00     0.005 A 
HETATM   21  C   UNL     1       7.605  22.017  55.602  1.00  0.00     0.048 A 
ENDBRANCH  12  15
ENDBRANCH   7   8
ENDBRANCH   5   7
BRANCH   3  22
HETATM   22  N   UNL     1      11.702  30.251  57.367  1.00  0.00    -0.270 NA
HETATM   23  H   UNL     1      11.871  31.016  56.720  1.00  0.00     0.127 HD
HETATM   24  H   UNL     1      12.221  29.407  57.161  1.00  0.00     0.127 HD
ENDBRANCH   3  22
BRANCH   1  25
HETATM   25  N   UNL     1       7.889  30.081  59.981  1.00  0.00    -0.185 N 
HETATM   26  H   UNL     1       7.910  29.227  60.529  1.00  0.00     0.184 HD
BRANCH  25  27
HETATM   27  C   UNL     1       7.393  31.197  60.681  1.00  0.00     0.084 A 
HETATM   28  C   UNL     1       6.415  32.013  60.065  1.00  0.00     0.095 A 
HETATM   29  C   UNL     1       5.911  33.134  60.734  1.00  0.00     0.041 A 
HETATM   30  C   UNL     1       6.393  33.472  61.999  1.00  0.00     0.026 A 
HETATM   31  C   UNL     1       7.379  32.692  62.593  1.00  0.00     0.036 A 
HETATM   32  C   UNL     1       7.882  31.567  61.941  1.00  0.00     0.056 A 
HETATM   33 CL   UNL     1       7.989  33.111  64.147  1.00  0.00    -0.084 Cl
BRANCH  28  34
HETATM   34  O   UNL     1       6.023  31.611  58.810  1.00  0.00    -0.354 OA
HETATM   35  C   UNL     1       5.428  32.606  57.981  1.00  0.00     0.210 C 
ENDBRANCH  28  34
ENDBRANCH  25  27
ENDBRANCH   1  25
TORSDOF 7
ENDMDL
