MODEL 1
REMARK VINA RESULT:      -8.6      0.000      0.000
REMARK  9 active torsions:
REMARK  status: ('A' for Active; 'I' for Inactive)
REMARK    1  A    between atoms: C_4  and  C_5 
REMARK    2  A    between atoms: C_7  and  N_8 
REMARK       I    between atoms: N_8  and  C_9 
REMARK    3  A    between atoms: C_9  and  C_10 
REMARK    4  A    between atoms: C_10  and  O_11 
REMARK    5  A    between atoms: C_18  and  C_19 
REMARK    6  A    between atoms: C_19  and  N_20 
REMARK       I    between atoms: N_20  and  C_21 
REMARK    7  A    between atoms: C_21  and  C_22 
REMARK    8  A    between atoms: C_24  and  C_25 
REMARK    9  A    between atoms: C_25  and  O_26 
ROOT
HETATM    1  C   UNL     1       9.755  29.356  55.791  1.00  0.00     0.079 C 
HETATM    2  C   UNL     1       8.703  29.735  56.750  1.00  0.00     0.078 A 
HETATM    3  O   UNL     1       9.104  30.266  57.943  1.00  0.00    -0.294 OA
HETATM    4  C   UNL     1       7.938  30.505  58.622  1.00  0.00     0.180 A 
HETATM    5  N   UNL     1       6.848  30.196  57.943  1.00  0.00    -0.224 NA
HETATM    6  C   UNL     1       7.325  29.668  56.759  1.00  0.00     0.084 A 
ENDROOT
BRANCH   4   7
HETATM    7  C   UNL     1       8.061  31.027  59.980  1.00  0.00     0.019 A 
HETATM    8  C   UNL     1       7.016  31.742  60.593  1.00  0.00     0.045 A 
HETATM    9  C   UNL     1       7.173  32.293  61.869  1.00  0.00     0.035 A 
HETATM   10  C   UNL     1       8.381  32.101  62.549  1.00  0.00     0.029 A 
HETATM   11  C   UNL     1       9.422  31.384  61.960  1.00  0.00     0.003 A 
HETATM   12  C   UNL     1       9.265  30.857  60.678  1.00  0.00     0.016 A 
BRANCH   9  13
HETATM   13  N   UNL     1       6.191  33.063  62.518  1.00  0.00    -0.325 N 
HETATM   14  C   UNL     1       5.068  32.625  63.199  1.00  0.00     0.245 C 
HETATM   15  O   UNL     1       4.748  31.465  63.432  1.00  0.00    -0.271 OA
HETATM   16  H   UNL     1       6.268  34.074  62.443  1.00  0.00     0.169 HD
BRANCH  14  17
HETATM   17  C   UNL     1       4.223  33.800  63.710  1.00  0.00     0.270 C 
BRANCH  17  18
HETATM   18  O   UNL     1       3.916  33.708  65.101  1.00  0.00    -0.387 OA
HETATM   19  C   UNL     1       5.078  33.867  65.912  1.00  0.00     0.202 C 
ENDBRANCH  17  18
ENDBRANCH  14  17
ENDBRANCH   9  13
ENDBRANCH   4   7
BRANCH   6  20
HETATM   20  C   UNL     1       6.408  29.101  55.740  1.00  0.00     0.185 C 
BRANCH  20  21
HETATM   21  N   UNL     1       6.548  27.667  55.703  1.00  0.00    -0.351 N 
HETATM   22  C   UNL     1       7.151  27.009  54.655  1.00  0.00     0.258 C 
HETATM   23  O   UNL     1       7.568  27.620  53.673  1.00  0.00    -0.267 OA
HETATM   24  H   UNL     1       6.124  27.124  56.443  1.00  0.00     0.163 HD
BRANCH  22  25
HETATM   25  C   UNL     1       7.277  25.564  54.795  1.00  0.00     0.073 A 
HETATM   26  S   UNL     1       7.915  24.823  56.202  1.00  0.00    -0.087 SA
HETATM   27  C   UNL     1       7.791  23.252  55.534  1.00  0.00     0.007 A 
HETATM   28  C   UNL     1       7.241  23.288  54.268  1.00  0.00     0.018 A 
HETATM   29  C   UNL     1       6.944  24.615  53.845  1.00  0.00     0.026 A 
BRANCH  27  30
HETATM   30  C   UNL     1       8.250  22.057  56.306  1.00  0.00     0.213 C 
BRANCH  30  31
HETATM   31  O   UNL     1       7.680  20.916  55.667  1.00  0.00    -0.391 OA
HETATM   32  C   UNL     1       8.672  20.117  55.041  1.00  0.00     0.201 C 
ENDBRANCH  30  31
ENDBRANCH  27  30
ENDBRANCH  22  25
ENDBRANCH  20  21
ENDBRANCH   6  20
TORSDOF 9
ENDMDL
MODEL 2
REMARK VINA RESULT:      -8.5      2.700     10.499
REMARK  9 active torsions:
REMARK  status: ('A' for Active; 'I' for Inactive)
REMARK    1  A    between atoms: C_4  and  C_5 
REMARK    2  A    between atoms: C_7  and  N_8 
REMARK       I    between atoms: N_8  and  C_9 
REMARK    3  A    between atoms: C_9  and  C_10 
REMARK    4  A    between atoms: C_10  and  O_11 
REMARK    5  A    between atoms: C_18  and  C_19 
REMARK    6  A    between atoms: C_19  and  N_20 
REMARK       I    between atoms: N_20  and  C_21 
REMARK    7  A    between atoms: C_21  and  C_22 
REMARK    8  A    between atoms: C_24  and  C_25 
REMARK    9  A    between atoms: C_25  and  O_26 
ROOT
HETATM    1  C   UNL     1      11.540  29.807  57.037  1.00  0.00     0.079 C 
HETATM    2  C   UNL     1      10.155  29.641  57.510  1.00  0.00     0.078 A 
HETATM    3  O   UNL     1       9.508  28.489  57.162  1.00  0.00    -0.294 OA
HETATM    4  C   UNL     1       8.262  28.615  57.718  1.00  0.00     0.180 A 
HETATM    5  N   UNL     1       8.089  29.731  58.403  1.00  0.00    -0.224 NA
HETATM    6  C   UNL     1       9.281  30.412  58.247  1.00  0.00     0.084 A 
ENDROOT
BRANCH   4   7
HETATM    7  C   UNL     1       7.311  27.538  57.455  1.00  0.00     0.019 A 
HETATM    8  C   UNL     1       7.718  26.193  57.389  1.00  0.00     0.045 A 
HETATM    9  C   UNL     1       6.808  25.180  57.071  1.00  0.00     0.035 A 
HETATM   10  C   UNL     1       5.469  25.517  56.844  1.00  0.00     0.029 A 
HETATM   11  C   UNL     1       5.046  26.844  56.919  1.00  0.00     0.003 A 
HETATM   12  C   UNL     1       5.966  27.849  57.215  1.00  0.00     0.016 A 
BRANCH   9  13
HETATM   13  N   UNL     1       7.158  23.824  56.935  1.00  0.00    -0.325 N 
HETATM   14  C   UNL     1       7.856  23.217  55.906  1.00  0.00     0.245 C 
HETATM   15  O   UNL     1       8.374  23.764  54.938  1.00  0.00    -0.271 OA
HETATM   16  H   UNL     1       6.816  23.182  57.646  1.00  0.00     0.169 HD
BRANCH  14  17
HETATM   17  C   UNL     1       7.972  21.702  56.118  1.00  0.00     0.270 C 
BRANCH  17  18
HETATM   18  O   UNL     1       7.674  20.946  54.944  1.00  0.00    -0.387 OA
HETATM   19  C   UNL     1       8.777  20.139  54.539  1.00  0.00     0.202 C 
ENDBRANCH  17  18
ENDBRANCH  14  17
ENDBRANCH   9  13
ENDBRANCH   4   7
BRANCH   6  20
HETATM   20  C   UNL     1       9.466  31.780  58.790  1.00  0.00     0.185 C 
BRANCH  20  21
HETATM   21  N   UNL     1       8.524  32.013  59.855  1.00  0.00    -0.351 N 
HETATM   22  C   UNL     1       8.906  32.118  61.173  1.00  0.00     0.258 C 
HETATM   23  O   UNL     1      10.080  31.976  61.510  1.00  0.00    -0.267 OA
HETATM   24  H   UNL     1       7.538  32.032  59.629  1.00  0.00     0.163 HD
BRANCH  22  25
HETATM   25  C   UNL     1       7.846  32.423  62.125  1.00  0.00     0.073 A 
HETATM   26  S   UNL     1       6.222  32.690  61.646  1.00  0.00    -0.087 SA
HETATM   27  C   UNL     1       5.719  33.038  63.245  1.00  0.00     0.007 A 
HETATM   28  C   UNL     1       6.767  32.921  64.136  1.00  0.00     0.018 A 
HETATM   29  C   UNL     1       7.987  32.565  63.494  1.00  0.00     0.026 A 
BRANCH  27  30
HETATM   30  C   UNL     1       4.301  33.412  63.533  1.00  0.00     0.213 C 
BRANCH  30  31
HETATM   31  O   UNL     1       4.183  33.497  64.952  1.00  0.00    -0.391 OA
HETATM   32  C   UNL     1       3.493  34.671  65.351  1.00  0.00     0.201 C 
ENDBRANCH  30  31
ENDBRANCH  27  30
ENDBRANCH  22  25
ENDBRANCH  20  21
ENDBRANCH   6  20
TORSDOF 9
ENDMDL
MODEL 3
REMARK VINA RESULT:      -8.3      2.681     10.945
REMARK  9 active torsions:
REMARK  status: ('A' for Active; 'I' for Inactive)
REMARK    1  A    between atoms: C_4  and  C_5 
REMARK    2  A    between atoms: C_7  and  N_8 
REMARK       I    between atoms: N_8  and  C_9 
REMARK    3  A    between atoms: C_9  and  C_10 
REMARK    4  A    between atoms: C_10  and  O_11 
REMARK    5  A    between atoms: C_18  and  C_19 
REMARK    6  A    between atoms: C_19  and  N_20 
REMARK       I    between atoms: N_20  and  C_21 
REMARK    7  A    between atoms: C_21  and  C_22 
REMARK    8  A    between atoms: C_24  and  C_25 
REMARK    9  A    between atoms: C_25  and  O_26 
ROOT
HETATM    1  C   UNL     1       6.072  31.532  58.169  1.00  0.00     0.079 C 
HETATM    2  C   UNL     1       6.744  30.229  58.023  1.00  0.00     0.078 A 
HETATM    3  O   UNL     1       6.188  29.330  57.158  1.00  0.00    -0.294 OA
HETATM    4  C   UNL     1       7.002  28.231  57.236  1.00  0.00     0.180 A 
HETATM    5  N   UNL     1       8.030  28.380  58.052  1.00  0.00    -0.224 NA
HETATM    6  C   UNL     1       7.855  29.641  58.589  1.00  0.00     0.084 A 
ENDROOT
BRANCH   4   7
HETATM    7  C   UNL     1       6.612  27.064  56.449  1.00  0.00     0.019 A 
HETATM    8  C   UNL     1       7.051  25.770  56.780  1.00  0.00     0.045 A 
HETATM    9  C   UNL     1       6.723  24.671  55.980  1.00  0.00     0.035 A 
HETATM   10  C   UNL     1       5.924  24.869  54.848  1.00  0.00     0.029 A 
HETATM   11  C   UNL     1       5.469  26.145  54.512  1.00  0.00     0.003 A 
HETATM   12  C   UNL     1       5.819  27.237  55.305  1.00  0.00     0.016 A 
BRANCH   9  13
HETATM   13  N   UNL     1       7.172  23.360  56.222  1.00  0.00    -0.325 N 
HETATM   14  C   UNL     1       8.426  22.824  55.982  1.00  0.00     0.245 C 
HETATM   15  O   UNL     1       9.419  23.417  55.573  1.00  0.00    -0.271 OA
HETATM   16  H   UNL     1       6.489  22.690  56.568  1.00  0.00     0.169 HD
BRANCH  14  17
HETATM   17  C   UNL     1       8.480  21.333  56.336  1.00  0.00     0.270 C 
BRANCH  17  18
HETATM   18  O   UNL     1       8.909  20.512  55.249  1.00  0.00    -0.387 OA
HETATM   19  C   UNL     1       7.966  20.514  54.180  1.00  0.00     0.202 C 
ENDBRANCH  17  18
ENDBRANCH  14  17
ENDBRANCH   9  13
ENDBRANCH   4   7
BRANCH   6  20
HETATM   20  C   UNL     1       8.759  30.164  59.643  1.00  0.00     0.185 C 
BRANCH  20  21
HETATM   21  N   UNL     1       7.999  30.917  60.608  1.00  0.00    -0.351 N 
HETATM   22  C   UNL     1       8.341  30.974  61.939  1.00  0.00     0.258 C 
HETATM   23  O   UNL     1       9.302  30.345  62.379  1.00  0.00    -0.267 OA
HETATM   24  H   UNL     1       7.143  31.362  60.303  1.00  0.00     0.163 HD
BRANCH  22  25
HETATM   25  C   UNL     1       7.513  31.831  62.777  1.00  0.00     0.073 A 
HETATM   26  S   UNL     1       5.810  31.922  62.610  1.00  0.00    -0.087 SA
HETATM   27  C   UNL     1       5.671  33.124  63.820  1.00  0.00     0.007 A 
HETATM   28  C   UNL     1       6.901  33.430  64.367  1.00  0.00     0.018 A 
HETATM   29  C   UNL     1       7.958  32.686  63.770  1.00  0.00     0.026 A 
BRANCH  27  30
HETATM   30  C   UNL     1       4.337  33.707  64.165  1.00  0.00     0.213 C 
BRANCH  30  31
HETATM   31  O   UNL     1       4.224  33.648  65.586  1.00  0.00    -0.391 OA
HETATM   32  C   UNL     1       3.610  34.815  66.111  1.00  0.00     0.201 C 
ENDBRANCH  30  31
ENDBRANCH  27  30
ENDBRANCH  22  25
ENDBRANCH  20  21
ENDBRANCH   6  20
TORSDOF 9
ENDMDL
MODEL 4
REMARK VINA RESULT:      -8.1      3.144     10.722
REMARK  9 active torsions:
REMARK  status: ('A' for Active; 'I' for Inactive)
REMARK    1  A    between atoms: C_4  and  C_5 
REMARK    2  A    between atoms: C_7  and  N_8 
REMARK       I    between atoms: N_8  and  C_9 
REMARK    3  A    between atoms: C_9  and  C_10 
REMARK    4  A    between atoms: C_10  and  O_11 
REMARK    5  A    between atoms: C_18  and  C_19 
REMARK    6  A    between atoms: C_19  and  N_20 
REMARK       I    between atoms: N_20  and  C_21 
REMARK    7  A    between atoms: C_21  and  C_22 
REMARK    8  A    between atoms: C_24  and  C_25 
REMARK    9  A    between atoms: C_25  and  O_26 
ROOT
HETATM    1  C   UNL     1       6.225  31.286  58.281  1.00  0.00     0.079 C 
HETATM    2  C   UNL     1       7.051  30.104  57.981  1.00  0.00     0.078 A 
HETATM    3  O   UNL     1       6.496  29.134  57.195  1.00  0.00    -0.294 OA
HETATM    4  C   UNL     1       7.469  28.174  57.097  1.00  0.00     0.180 A 
HETATM    5  N   UNL     1       8.588  28.476  57.730  1.00  0.00    -0.224 NA
HETATM    6  C   UNL     1       8.320  29.692  58.329  1.00  0.00     0.084 A 
ENDROOT
BRANCH   4   7
HETATM    7  C   UNL     1       7.129  26.965  56.352  1.00  0.00     0.019 A 
HETATM    8  C   UNL     1       6.919  26.990  54.961  1.00  0.00     0.045 A 
HETATM    9  C   UNL     1       6.530  25.838  54.271  1.00  0.00     0.035 A 
HETATM   10  C   UNL     1       6.376  24.640  54.979  1.00  0.00     0.029 A 
HETATM   11  C   UNL     1       6.594  24.596  56.356  1.00  0.00     0.003 A 
HETATM   12  C   UNL     1       6.960  25.755  57.039  1.00  0.00     0.016 A 
BRANCH   9  13
HETATM   13  N   UNL     1       6.251  25.804  52.893  1.00  0.00    -0.325 N 
HETATM   14  C   UNL     1       5.231  26.442  52.208  1.00  0.00     0.245 C 
HETATM   15  O   UNL     1       4.408  27.227  52.667  1.00  0.00    -0.271 OA
HETATM   16  H   UNL     1       6.827  25.196  52.316  1.00  0.00     0.169 HD
BRANCH  14  17
HETATM   17  C   UNL     1       5.248  26.092  50.714  1.00  0.00     0.270 C 
BRANCH  17  18
HETATM   18  O   UNL     1       4.388  26.922  49.932  1.00  0.00    -0.387 OA
HETATM   19  C   UNL     1       5.111  27.952  49.262  1.00  0.00     0.202 C 
ENDBRANCH  17  18
ENDBRANCH  14  17
ENDBRANCH   9  13
ENDBRANCH   4   7
BRANCH   6  20
HETATM   20  C   UNL     1       9.303  30.343  59.230  1.00  0.00     0.185 C 
BRANCH  20  21
HETATM   21  N   UNL     1       8.633  30.844  60.403  1.00  0.00    -0.351 N 
HETATM   22  C   UNL     1       8.522  32.189  60.675  1.00  0.00     0.258 C 
HETATM   23  O   UNL     1       9.031  33.032  59.940  1.00  0.00    -0.267 OA
HETATM   24  H   UNL     1       8.292  30.178  61.084  1.00  0.00     0.163 HD
BRANCH  22  25
HETATM   25  C   UNL     1       7.757  32.540  61.864  1.00  0.00     0.073 A 
HETATM   26  S   UNL     1       6.171  33.185  61.786  1.00  0.00    -0.087 SA
HETATM   27  C   UNL     1       6.072  33.371  63.484  1.00  0.00     0.007 A 
HETATM   28  C   UNL     1       7.219  32.920  64.106  1.00  0.00     0.018 A 
HETATM   29  C   UNL     1       8.184  32.441  63.176  1.00  0.00     0.026 A 
BRANCH  27  30
HETATM   30  C   UNL     1       4.852  33.962  64.116  1.00  0.00     0.213 C 
BRANCH  30  31
HETATM   31  O   UNL     1       4.580  33.184  65.280  1.00  0.00    -0.391 OA
HETATM   32  C   UNL     1       4.812  33.923  66.470  1.00  0.00     0.201 C 
ENDBRANCH  30  31
ENDBRANCH  27  30
ENDBRANCH  22  25
ENDBRANCH  20  21
ENDBRANCH   6  20
TORSDOF 9
ENDMDL
MODEL 5
REMARK VINA RESULT:      -8.0      4.646     12.167
REMARK  9 active torsions:
REMARK  status: ('A' for Active; 'I' for Inactive)
REMARK    1  A    between atoms: C_4  and  C_5 
REMARK    2  A    between atoms: C_7  and  N_8 
REMARK       I    between atoms: N_8  and  C_9 
REMARK    3  A    between atoms: C_9  and  C_10 
REMARK    4  A    between atoms: C_10  and  O_11 
REMARK    5  A    between atoms: C_18  and  C_19 
REMARK    6  A    between atoms: C_19  and  N_20 
REMARK       I    between atoms: N_20  and  C_21 
REMARK    7  A    between atoms: C_21  and  C_22 
REMARK    8  A    between atoms: C_24  and  C_25 
REMARK    9  A    between atoms: C_25  and  O_26 
ROOT
HETATM    1  C   UNL     1       4.790  36.225  63.375  1.00  0.00     0.079 C 
HETATM    2  C   UNL     1       5.440  34.910  63.514  1.00  0.00     0.078 A 
HETATM    3  O   UNL     1       6.229  34.489  62.483  1.00  0.00    -0.294 OA
HETATM    4  C   UNL     1       6.680  33.257  62.877  1.00  0.00     0.180 A 
HETATM    5  N   UNL     1       6.263  32.890  64.075  1.00  0.00    -0.224 NA
HETATM    6  C   UNL     1       5.438  33.923  64.477  1.00  0.00     0.084 A 
ENDROOT
BRANCH   4   7
HETATM    7  C   UNL     1       7.515  32.526  61.928  1.00  0.00     0.019 A 
HETATM    8  C   UNL     1       7.044  32.169  60.652  1.00  0.00     0.045 A 
HETATM    9  C   UNL     1       7.831  31.411  59.779  1.00  0.00     0.035 A 
HETATM   10  C   UNL     1       9.116  31.029  60.181  1.00  0.00     0.029 A 
HETATM   11  C   UNL     1       9.604  31.386  61.438  1.00  0.00     0.003 A 
HETATM   12  C   UNL     1       8.803  32.123  62.310  1.00  0.00     0.016 A 
BRANCH   9  13
HETATM   13  N   UNL     1       7.402  30.974  58.513  1.00  0.00    -0.325 N 
HETATM   14  C   UNL     1       7.500  29.708  57.963  1.00  0.00     0.245 C 
HETATM   15  O   UNL     1       7.921  28.694  58.509  1.00  0.00    -0.271 OA
HETATM   16  H   UNL     1       7.017  31.676  57.885  1.00  0.00     0.169 HD
BRANCH  14  17
HETATM   17  C   UNL     1       6.961  29.671  56.527  1.00  0.00     0.270 C 
BRANCH  17  18
HETATM   18  O   UNL     1       5.563  29.386  56.458  1.00  0.00    -0.387 OA
HETATM   19  C   UNL     1       5.294  28.253  55.636  1.00  0.00     0.202 C 
ENDBRANCH  17  18
ENDBRANCH  14  17
ENDBRANCH   9  13
ENDBRANCH   4   7
BRANCH   6  20
HETATM   20  C   UNL     1       4.679  33.856  65.750  1.00  0.00     0.185 C 
BRANCH  20  21
HETATM   21  N   UNL     1       5.592  33.737  66.858  1.00  0.00    -0.351 N 
HETATM   22  C   UNL     1       5.756  34.733  67.793  1.00  0.00     0.258 C 
HETATM   23  O   UNL     1       5.149  35.799  67.703  1.00  0.00    -0.267 OA
HETATM   24  H   UNL     1       6.184  32.918  66.907  1.00  0.00     0.163 HD
BRANCH  22  25
HETATM   25  C   UNL     1       6.666  34.437  68.892  1.00  0.00     0.073 A 
HETATM   26  S   UNL     1       6.316  33.264  70.092  1.00  0.00    -0.087 SA
HETATM   27  C   UNL     1       7.752  33.601  70.960  1.00  0.00     0.007 A 
HETATM   28  C   UNL     1       8.504  34.571  70.327  1.00  0.00     0.018 A 
HETATM   29  C   UNL     1       7.882  35.049  69.139  1.00  0.00     0.026 A 
BRANCH  27  30
HETATM   30  C   UNL     1       8.060  32.881  72.233  1.00  0.00     0.213 C 
BRANCH  30  31
HETATM   31  O   UNL     1       7.218  31.730  72.263  1.00  0.00    -0.391 OA
HETATM   32  C   UNL     1       7.963  30.541  72.478  1.00  0.00     0.201 C 
ENDBRANCH  30  31
ENDBRANCH  27  30
ENDBRANCH  22  25
ENDBRANCH  20  21
ENDBRANCH   6  20
TORSDOF 9
ENDMDL
MODEL 6
REMARK VINA RESULT:      -7.9      1.411      1.839
REMARK  9 active torsions:
REMARK  status: ('A' for Active; 'I' for Inactive)
REMARK    1  A    between atoms: C_4  and  C_5 
REMARK    2  A    between atoms: C_7  and  N_8 
REMARK       I    between atoms: N_8  and  C_9 
REMARK    3  A    between atoms: C_9  and  C_10 
REMARK    4  A    between atoms: C_10  and  O_11 
REMARK    5  A    between atoms: C_18  and  C_19 
REMARK    6  A    between atoms: C_19  and  N_20 
REMARK       I    between atoms: N_20  and  C_21 
REMARK    7  A    between atoms: C_21  and  C_22 
REMARK    8  A    between atoms: C_24  and  C_25 
REMARK    9  A    between atoms: C_25  and  O_26 
ROOT
HETATM    1  C   UNL     1       4.169  31.038  56.161  1.00  0.00     0.079 C 
HETATM    2  C   UNL     1       5.425  30.628  56.812  1.00  0.00     0.078 A 
HETATM    3  O   UNL     1       5.720  31.194  58.019  1.00  0.00    -0.294 OA
HETATM    4  C   UNL     1       6.925  30.645  58.370  1.00  0.00     0.180 A 
HETATM    5  N   UNL     1       7.389  29.766  57.500  1.00  0.00    -0.224 NA
HETATM    6  C   UNL     1       6.456  29.774  56.481  1.00  0.00     0.084 A 
ENDROOT
BRANCH   4   7
HETATM    7  C   UNL     1       7.528  31.119  59.612  1.00  0.00     0.019 A 
HETATM    8  C   UNL     1       6.778  31.809  60.582  1.00  0.00     0.045 A 
HETATM    9  C   UNL     1       7.385  32.315  61.736  1.00  0.00     0.035 A 
HETATM   10  C   UNL     1       8.754  32.103  61.933  1.00  0.00     0.029 A 
HETATM   11  C   UNL     1       9.510  31.410  60.988  1.00  0.00     0.003 A 
HETATM   12  C   UNL     1       8.900  30.928  59.829  1.00  0.00     0.016 A 
BRANCH   9  13
HETATM   13  N   UNL     1       6.706  33.059  62.718  1.00  0.00    -0.325 N 
HETATM   14  C   UNL     1       5.615  32.680  63.481  1.00  0.00     0.245 C 
HETATM   15  O   UNL     1       5.069  31.582  63.499  1.00  0.00    -0.271 OA
HETATM   16  H   UNL     1       7.006  34.020  62.864  1.00  0.00     0.169 HD
BRANCH  14  17
HETATM   17  C   UNL     1       5.144  33.816  64.398  1.00  0.00     0.270 C 
BRANCH  17  18
HETATM   18  O   UNL     1       4.424  33.355  65.541  1.00  0.00    -0.387 OA
HETATM   19  C   UNL     1       4.750  34.102  66.711  1.00  0.00     0.202 C 
ENDBRANCH  17  18
ENDBRANCH  14  17
ENDBRANCH   9  13
ENDBRANCH   4   7
BRANCH   6  20
HETATM   20  C   UNL     1       6.658  28.982  55.243  1.00  0.00     0.185 C 
BRANCH  20  21
HETATM   21  N   UNL     1       7.244  27.707  55.570  1.00  0.00    -0.351 N 
HETATM   22  C   UNL     1       6.908  26.546  54.911  1.00  0.00     0.258 C 
HETATM   23  O   UNL     1       6.052  26.538  54.028  1.00  0.00    -0.267 OA
HETATM   24  H   UNL     1       7.874  27.656  56.360  1.00  0.00     0.163 HD
BRANCH  22  25
HETATM   25  C   UNL     1       7.636  25.349  55.310  1.00  0.00     0.073 A 
HETATM   26  S   UNL     1       8.011  24.086  54.215  1.00  0.00    -0.087 SA
HETATM   27  C   UNL     1       8.733  23.127  55.435  1.00  0.00     0.007 A 
HETATM   28  C   UNL     1       8.717  23.773  56.655  1.00  0.00     0.018 A 
HETATM   29  C   UNL     1       8.090  25.049  56.583  1.00  0.00     0.026 A 
BRANCH  27  30
HETATM   30  C   UNL     1       9.280  21.773  55.116  1.00  0.00     0.213 C 
BRANCH  30  31
HETATM   31  O   UNL     1       9.029  20.954  56.256  1.00  0.00    -0.391 OA
HETATM   32  C   UNL     1       7.809  20.239  56.129  1.00  0.00     0.201 C 
ENDBRANCH  30  31
ENDBRANCH  27  30
ENDBRANCH  22  25
ENDBRANCH  20  21
ENDBRANCH   6  20
TORSDOF 9
ENDMDL
MODEL 7
REMARK VINA RESULT:      -7.8      3.002      5.966
REMARK  9 active torsions:
REMARK  status: ('A' for Active; 'I' for Inactive)
REMARK    1  A    between atoms: C_4  and  C_5 
REMARK    2  A    between atoms: C_7  and  N_8 
REMARK       I    between atoms: N_8  and  C_9 
REMARK    3  A    between atoms: C_9  and  C_10 
REMARK    4  A    between atoms: C_10  and  O_11 
REMARK    5  A    between atoms: C_18  and  C_19 
REMARK    6  A    between atoms: C_19  and  N_20 
REMARK       I    between atoms: N_20  and  C_21 
REMARK    7  A    between atoms: C_21  and  C_22 
REMARK    8  A    between atoms: C_24  and  C_25 
REMARK    9  A    between atoms: C_25  and  O_26 
ROOT
HETATM    1  C   UNL     1       5.796  32.613  59.722  1.00  0.00     0.079 C 
HETATM    2  C   UNL     1       6.288  32.523  61.108  1.00  0.00     0.078 A 
HETATM    3  O   UNL     1       5.556  33.150  62.075  1.00  0.00    -0.294 OA
HETATM    4  C   UNL     1       6.244  32.911  63.236  1.00  0.00     0.180 A 
HETATM    5  N   UNL     1       7.323  32.167  63.077  1.00  0.00    -0.224 NA
HETATM    6  C   UNL     1       7.382  31.943  61.715  1.00  0.00     0.084 A 
ENDROOT
BRANCH   4   7
HETATM    7  C   UNL     1       5.718  33.524  64.452  1.00  0.00     0.019 A 
HETATM    8  C   UNL     1       6.545  33.804  65.555  1.00  0.00     0.045 A 
HETATM    9  C   UNL     1       6.015  34.330  66.737  1.00  0.00     0.035 A 
HETATM   10  C   UNL     1       4.644  34.603  66.806  1.00  0.00     0.029 A 
HETATM   11  C   UNL     1       3.812  34.343  65.717  1.00  0.00     0.003 A 
HETATM   12  C   UNL     1       4.346  33.798  64.550  1.00  0.00     0.016 A 
BRANCH   9  13
HETATM   13  N   UNL     1       6.775  34.584  67.894  1.00  0.00    -0.325 N 
HETATM   14  C   UNL     1       6.466  34.277  69.208  1.00  0.00     0.245 C 
HETATM   15  O   UNL     1       5.491  33.653  69.613  1.00  0.00    -0.271 OA
HETATM   16  H   UNL     1       7.640  35.106  67.778  1.00  0.00     0.169 HD
BRANCH  14  17
HETATM   17  C   UNL     1       7.544  34.782  70.175  1.00  0.00     0.270 C 
BRANCH  17  18
HETATM   18  O   UNL     1       8.454  33.760  70.586  1.00  0.00    -0.387 OA
HETATM   19  C   UNL     1       8.211  33.341  71.927  1.00  0.00     0.202 C 
ENDBRANCH  17  18
ENDBRANCH  14  17
ENDBRANCH   9  13
ENDBRANCH   4   7
BRANCH   6  20
HETATM   20  C   UNL     1       8.520  31.216  61.099  1.00  0.00     0.185 C 
BRANCH  20  21
HETATM   21  N   UNL     1       8.031  30.303  60.098  1.00  0.00    -0.351 N 
HETATM   22  C   UNL     1       8.522  30.281  58.813  1.00  0.00     0.258 C 
HETATM   23  O   UNL     1       9.384  31.077  58.445  1.00  0.00    -0.267 OA
HETATM   24  H   UNL     1       7.251  29.704  60.334  1.00  0.00     0.163 HD
BRANCH  22  25
HETATM   25  C   UNL     1       7.974  29.255  57.935  1.00  0.00     0.073 A 
HETATM   26  S   UNL     1       6.309  29.169  57.539  1.00  0.00    -0.087 SA
HETATM   27  C   UNL     1       6.515  27.742  56.617  1.00  0.00     0.007 A 
HETATM   28  C   UNL     1       7.839  27.353  56.585  1.00  0.00     0.018 A 
HETATM   29  C   UNL     1       8.676  28.223  57.339  1.00  0.00     0.026 A 
BRANCH  27  30
HETATM   30  C   UNL     1       5.342  27.077  55.970  1.00  0.00     0.213 C 
BRANCH  30  31
HETATM   31  O   UNL     1       5.716  26.819  54.618  1.00  0.00    -0.391 OA
HETATM   32  C   UNL     1       5.447  25.476  54.248  1.00  0.00     0.201 C 
ENDBRANCH  30  31
ENDBRANCH  27  30
ENDBRANCH  22  25
ENDBRANCH  20  21
ENDBRANCH   6  20
TORSDOF 9
ENDMDL
MODEL 8
REMARK VINA RESULT:      -7.7      5.059     12.903
REMARK  9 active torsions:
REMARK  status: ('A' for Active; 'I' for Inactive)
REMARK    1  A    between atoms: C_4  and  C_5 
REMARK    2  A    between atoms: C_7  and  N_8 
REMARK       I    between atoms: N_8  and  C_9 
REMARK    3  A    between atoms: C_9  and  C_10 
REMARK    4  A    between atoms: C_10  and  O_11 
REMARK    5  A    between atoms: C_18  and  C_19 
REMARK    6  A    between atoms: C_19  and  N_20 
REMARK       I    between atoms: N_20  and  C_21 
REMARK    7  A    between atoms: C_21  and  C_22 
REMARK    8  A    between atoms: C_24  and  C_25 
REMARK    9  A    between atoms: C_25  and  O_26 
ROOT
HETATM    1  C   UNL     1       5.112  36.869  63.432  1.00  0.00     0.079 C 
HETATM    2  C   UNL     1       5.564  35.485  63.652  1.00  0.00     0.078 A 
HETATM    3  O   UNL     1       6.284  34.894  62.654  1.00  0.00    -0.294 OA
HETATM    4  C   UNL     1       6.552  33.635  63.122  1.00  0.00     0.180 A 
HETATM    5  N   UNL     1       6.085  33.402  64.336  1.00  0.00    -0.224 NA
HETATM    6  C   UNL     1       5.420  34.566  64.671  1.00  0.00     0.084 A 
ENDROOT
BRANCH   4   7
HETATM    7  C   UNL     1       7.271  32.736  62.224  1.00  0.00     0.019 A 
HETATM    8  C   UNL     1       6.715  32.310  61.005  1.00  0.00     0.045 A 
HETATM    9  C   UNL     1       7.388  31.397  60.186  1.00  0.00     0.035 A 
HETATM   10  C   UNL     1       8.645  30.926  60.583  1.00  0.00     0.029 A 
HETATM   11  C   UNL     1       9.216  31.348  61.784  1.00  0.00     0.003 A 
HETATM   12  C   UNL     1       8.528  32.242  62.603  1.00  0.00     0.016 A 
BRANCH   9  13
HETATM   13  N   UNL     1       6.867  30.888  58.982  1.00  0.00    -0.325 N 
HETATM   14  C   UNL     1       6.196  31.570  57.982  1.00  0.00     0.245 C 
HETATM   15  O   UNL     1       5.987  32.777  57.920  1.00  0.00    -0.271 OA
HETATM   16  H   UNL     1       6.935  29.885  58.833  1.00  0.00     0.169 HD
BRANCH  14  17
HETATM   17  C   UNL     1       5.742  30.627  56.861  1.00  0.00     0.270 C 
BRANCH  17  18
HETATM   18  O   UNL     1       6.789  29.784  56.377  1.00  0.00    -0.387 OA
HETATM   19  C   UNL     1       6.303  28.496  56.005  1.00  0.00     0.202 C 
ENDBRANCH  17  18
ENDBRANCH  14  17
ENDBRANCH   9  13
ENDBRANCH   4   7
BRANCH   6  20
HETATM   20  C   UNL     1       4.659  34.684  65.939  1.00  0.00     0.185 C 
BRANCH  20  21
HETATM   21  N   UNL     1       5.569  34.884  67.038  1.00  0.00    -0.351 N 
HETATM   22  C   UNL     1       5.374  34.313  68.274  1.00  0.00     0.258 C 
HETATM   23  O   UNL     1       4.380  33.629  68.512  1.00  0.00    -0.267 OA
HETATM   24  H   UNL     1       6.342  35.524  66.911  1.00  0.00     0.163 HD
BRANCH  22  25
HETATM   25  C   UNL     1       6.418  34.554  69.262  1.00  0.00     0.073 A 
HETATM   26  S   UNL     1       6.100  34.622  70.945  1.00  0.00    -0.087 SA
HETATM   27  C   UNL     1       7.726  34.998  71.323  1.00  0.00     0.007 A 
HETATM   28  C   UNL     1       8.508  35.040  70.185  1.00  0.00     0.018 A 
HETATM   29  C   UNL     1       7.757  34.782  69.004  1.00  0.00     0.026 A 
BRANCH  27  30
HETATM   30  C   UNL     1       8.145  35.235  72.739  1.00  0.00     0.213 C 
BRANCH  30  31
HETATM   31  O   UNL     1       8.615  36.580  72.804  1.00  0.00    -0.391 OA
HETATM   32  C   UNL     1       9.858  36.668  73.483  1.00  0.00     0.201 C 
ENDBRANCH  30  31
ENDBRANCH  27  30
ENDBRANCH  22  25
ENDBRANCH  20  21
ENDBRANCH   6  20
TORSDOF 9
ENDMDL
MODEL 9
REMARK VINA RESULT:      -7.5      3.770     10.886
REMARK  9 active torsions:
REMARK  status: ('A' for Active; 'I' for Inactive)
REMARK    1  A    between atoms: C_4  and  C_5 
REMARK    2  A    between atoms: C_7  and  N_8 
REMARK       I    between atoms: N_8  and  C_9 
REMARK    3  A    between atoms: C_9  and  C_10 
REMARK    4  A    between atoms: C_10  and  O_11 
REMARK    5  A    between atoms: C_18  and  C_19 
REMARK    6  A    between atoms: C_19  and  N_20 
REMARK       I    between atoms: N_20  and  C_21 
REMARK    7  A    between atoms: C_21  and  C_22 
REMARK    8  A    between atoms: C_24  and  C_25 
REMARK    9  A    between atoms: C_25  and  O_26 
ROOT
HETATM    1  C   UNL     1       8.353  26.261  57.391  1.00  0.00     0.079 C 
HETATM    2  C   UNL     1       7.855  27.450  56.678  1.00  0.00     0.078 A 
HETATM    3  O   UNL     1       6.787  27.279  55.844  1.00  0.00    -0.294 OA
HETATM    4  C   UNL     1       6.557  28.524  55.321  1.00  0.00     0.180 A 
HETATM    5  N   UNL     1       7.372  29.458  55.779  1.00  0.00    -0.224 NA
HETATM    6  C   UNL     1       8.230  28.776  56.619  1.00  0.00     0.084 A 
ENDROOT
BRANCH   4   7
HETATM    7  C   UNL     1       5.490  28.637  54.332  1.00  0.00     0.019 A 
HETATM    8  C   UNL     1       5.433  27.795  53.207  1.00  0.00     0.045 A 
HETATM    9  C   UNL     1       4.442  27.958  52.233  1.00  0.00     0.035 A 
HETATM   10  C   UNL     1       3.482  28.962  52.403  1.00  0.00     0.029 A 
HETATM   11  C   UNL     1       3.516  29.798  53.519  1.00  0.00     0.003 A 
HETATM   12  C   UNL     1       4.521  29.641  54.474  1.00  0.00     0.016 A 
BRANCH   9  13
HETATM   13  N   UNL     1       4.359  27.187  51.060  1.00  0.00    -0.325 N 
HETATM   14  C   UNL     1       4.777  27.520  49.783  1.00  0.00     0.245 C 
HETATM   15  O   UNL     1       5.372  28.536  49.439  1.00  0.00    -0.271 OA
HETATM   16  H   UNL     1       3.887  26.289  51.126  1.00  0.00     0.169 HD
BRANCH  14  17
HETATM   17  C   UNL     1       4.446  26.414  48.773  1.00  0.00     0.270 C 
BRANCH  17  18
HETATM   18  O   UNL     1       3.051  26.317  48.482  1.00  0.00    -0.387 OA
HETATM   19  C   UNL     1       2.735  26.876  47.209  1.00  0.00     0.202 C 
ENDBRANCH  17  18
ENDBRANCH  14  17
ENDBRANCH   9  13
ENDBRANCH   4   7
BRANCH   6  20
HETATM   20  C   UNL     1       9.377  29.456  57.271  1.00  0.00     0.185 C 
BRANCH  20  21
HETATM   21  N   UNL     1       8.957  30.021  58.528  1.00  0.00    -0.351 N 
HETATM   22  C   UNL     1       9.428  31.229  58.991  1.00  0.00     0.258 C 
HETATM   23  O   UNL     1      10.267  31.870  58.362  1.00  0.00    -0.267 OA
HETATM   24  H   UNL     1       8.347  29.474  59.122  1.00  0.00     0.163 HD
BRANCH  22  25
HETATM   25  C   UNL     1       8.858  31.699  60.247  1.00  0.00     0.073 A 
HETATM   26  S   UNL     1       7.280  32.359  60.358  1.00  0.00    -0.087 SA
HETATM   27  C   UNL     1       7.449  32.700  62.026  1.00  0.00     0.007 A 
HETATM   28  C   UNL     1       8.678  32.289  62.500  1.00  0.00     0.018 A 
HETATM   29  C   UNL     1       9.486  31.712  61.480  1.00  0.00     0.026 A 
BRANCH  27  30
HETATM   30  C   UNL     1       6.344  33.365  62.783  1.00  0.00     0.213 C 
BRANCH  30  31
HETATM   31  O   UNL     1       6.194  34.668  62.224  1.00  0.00    -0.391 OA
HETATM   32  C   UNL     1       4.827  35.014  62.058  1.00  0.00     0.201 C 
ENDBRANCH  30  31
ENDBRANCH  27  30
ENDBRANCH  22  25
ENDBRANCH  20  21
ENDBRANCH   6  20
TORSDOF 9
ENDMDL
MODEL 10
REMARK VINA RESULT:      -7.5      2.823     10.925
REMARK  9 active torsions:
REMARK  status: ('A' for Active; 'I' for Inactive)
REMARK    1  A    between atoms: C_4  and  C_5 
REMARK    2  A    between atoms: C_7  and  N_8 
REMARK       I    between atoms: N_8  and  C_9 
REMARK    3  A    between atoms: C_9  and  C_10 
REMARK    4  A    between atoms: C_10  and  O_11 
REMARK    5  A    between atoms: C_18  and  C_19 
REMARK    6  A    between atoms: C_19  and  N_20 
REMARK       I    between atoms: N_20  and  C_21 
REMARK    7  A    between atoms: C_21  and  C_22 
REMARK    8  A    between atoms: C_24  and  C_25 
REMARK    9  A    between atoms: C_25  and  O_26 
ROOT
HETATM    1  C   UNL     1       8.901  30.022  58.593  1.00  0.00     0.079 C 
HETATM    2  C   UNL     1       7.673  29.610  57.891  1.00  0.00     0.078 A 
HETATM    3  O   UNL     1       7.714  28.436  57.193  1.00  0.00    -0.294 OA
HETATM    4  C   UNL     1       6.464  28.318  56.646  1.00  0.00     0.180 A 
HETATM    5  N   UNL     1       5.642  29.302  56.967  1.00  0.00    -0.224 NA
HETATM    6  C   UNL     1       6.416  30.153  57.732  1.00  0.00     0.084 A 
ENDROOT
BRANCH   4   7
HETATM    7  C   UNL     1       6.228  27.166  55.781  1.00  0.00     0.019 A 
HETATM    8  C   UNL     1       6.977  25.982  55.907  1.00  0.00     0.045 A 
HETATM    9  C   UNL     1       6.784  24.911  55.028  1.00  0.00     0.035 A 
HETATM   10  C   UNL     1       5.811  25.019  54.028  1.00  0.00     0.029 A 
HETATM   11  C   UNL     1       5.051  26.181  53.897  1.00  0.00     0.003 A 
HETATM   12  C   UNL     1       5.265  27.252  54.765  1.00  0.00     0.016 A 
BRANCH   9  13
HETATM   13  N   UNL     1       7.534  23.722  55.064  1.00  0.00    -0.325 N 
HETATM   14  C   UNL     1       8.203  23.098  54.025  1.00  0.00     0.245 C 
HETATM   15  O   UNL     1       8.331  23.505  52.875  1.00  0.00    -0.271 OA
HETATM   16  H   UNL     1       7.556  23.211  55.943  1.00  0.00     0.169 HD
BRANCH  14  17
HETATM   17  C   UNL     1       8.850  21.783  54.478  1.00  0.00     0.270 C 
BRANCH  17  18
HETATM   18  O   UNL     1       8.806  21.592  55.893  1.00  0.00    -0.387 OA
HETATM   19  C   UNL     1       8.088  20.412  56.247  1.00  0.00     0.202 C 
ENDBRANCH  17  18
ENDBRANCH  14  17
ENDBRANCH   9  13
ENDBRANCH   4   7
BRANCH   6  20
HETATM   20  C   UNL     1       5.887  31.451  58.219  1.00  0.00     0.185 C 
BRANCH  20  21
HETATM   21  N   UNL     1       6.403  31.725  59.536  1.00  0.00    -0.351 N 
HETATM   22  C   UNL     1       5.773  32.575  60.416  1.00  0.00     0.258 C 
HETATM   23  O   UNL     1       4.749  33.177  60.100  1.00  0.00    -0.267 OA
HETATM   24  H   UNL     1       7.298  31.329  59.793  1.00  0.00     0.163 HD
BRANCH  22  25
HETATM   25  C   UNL     1       6.381  32.697  61.735  1.00  0.00     0.073 A 
HETATM   26  S   UNL     1       5.533  33.310  63.091  1.00  0.00    -0.087 SA
HETATM   27  C   UNL     1       6.905  33.195  64.108  1.00  0.00     0.007 A 
HETATM   28  C   UNL     1       7.986  32.666  63.432  1.00  0.00     0.018 A 
HETATM   29  C   UNL     1       7.685  32.378  62.071  1.00  0.00     0.026 A 
BRANCH  27  30
HETATM   30  C   UNL     1       6.836  33.640  65.534  1.00  0.00     0.213 C 
BRANCH  30  31
HETATM   31  O   UNL     1       5.669  34.451  65.651  1.00  0.00    -0.391 OA
HETATM   32  C   UNL     1       4.877  34.073  66.767  1.00  0.00     0.201 C 
ENDBRANCH  30  31
ENDBRANCH  27  30
ENDBRANCH  22  25
ENDBRANCH  20  21
ENDBRANCH   6  20
TORSDOF 9
ENDMDL
