MODEL 1
REMARK VINA RESULT:      -9.8      0.000      0.000
REMARK  4 active torsions:
REMARK  status: ('A' for Active; 'I' for Inactive)
REMARK    1  A    between atoms: O_2  and  C_3 
REMARK    2  A    between atoms: C_5  and  C_6 
REMARK    3  A    between atoms: C_10  and  N_11 
REMARK    4  A    between atoms: C_14  and  C_15 
ROOT
HETATM    1  C   UNL     1       7.277  24.695  54.532  1.00  0.00     0.164 C 
HETATM    2  N   UNL     1       6.521  25.333  53.460  1.00  0.00    -0.074 N 
HETATM    3  C   UNL     1       5.506  26.229  53.665  1.00  0.00     0.736 A 
HETATM    4  N   UNL     1       5.110  26.697  52.510  1.00  0.00     0.131 NA
HETATM    5  C   UNL     1       5.962  26.100  51.629  1.00  0.00     0.753 A 
HETATM    6  N   UNL     1       6.863  25.278  52.160  1.00  0.00     0.037 NA
HETATM    7  N   UNL     1       5.101  26.563  54.909  1.00  0.00    -0.214 N 
HETATM    8  C   UNL     1       5.968  26.275  56.048  1.00  0.00     0.135 C 
HETATM    9  C   UNL     1       6.555  24.860  55.885  1.00  0.00     0.063 C 
HETATM   10  H   UNL     1       4.528  27.399  54.989  1.00  0.00     0.178 HD
ENDROOT
BRANCH   1  11
HETATM   11  C   UNL     1       7.550  23.225  54.248  1.00  0.00    -0.030 A 
HETATM   12  C   UNL     1       7.720  22.296  55.291  1.00  0.00     0.046 A 
HETATM   13  C   UNL     1       7.951  20.943  55.026  1.00  0.00     0.068 A 
HETATM   14  C   UNL     1       8.056  20.511  53.705  1.00  0.00     0.037 A 
HETATM   15  C   UNL     1       7.907  21.424  52.659  1.00  0.00     0.003 A 
HETATM   16  C   UNL     1       7.652  22.770  52.927  1.00  0.00     0.009 A 
BRANCH  13  17
HETATM   17  O   UNL     1       8.080  20.152  56.134  1.00  0.00    -0.356 OA
HETATM   18  C   UNL     1       8.465  20.817  57.331  1.00  0.00     0.210 C 
ENDBRANCH  13  17
ENDBRANCH   1  11
BRANCH   8  19
HETATM   19  C   UNL     1       7.024  27.347  56.302  1.00  0.00    -0.035 A 
HETATM   20  C   UNL     1       7.658  28.067  55.274  1.00  0.00     0.010 A 
HETATM   21  C   UNL     1       8.619  29.042  55.559  1.00  0.00     0.019 A 
HETATM   22  C   UNL     1       8.958  29.315  56.881  1.00  0.00     0.011 A 
HETATM   23 BR   UNL     1      10.257  30.632  57.267  1.00  0.00    -0.051 Br
HETATM   24  C   UNL     1       8.342  28.623  57.918  1.00  0.00     0.019 A 
HETATM   25  C   UNL     1       7.380  27.649  57.630  1.00  0.00     0.010 A 
ENDBRANCH   8  19
BRANCH   5  26
HETATM   26  N   UNL     1       5.833  26.371  50.334  1.00  0.00    -0.229 N 
HETATM   27  H   UNL     1       6.224  27.249  50.019  1.00  0.00     0.174 HD
HETATM   28  H   UNL     1       4.946  26.128  49.915  1.00  0.00     0.174 HD
ENDBRANCH   5  26
TORSDOF 4
ENDMDL
MODEL 2
REMARK VINA RESULT:      -9.4      1.219      2.056
REMARK  4 active torsions:
REMARK  status: ('A' for Active; 'I' for Inactive)
REMARK    1  A    between atoms: O_2  and  C_3 
REMARK    2  A    between atoms: C_5  and  C_6 
REMARK    3  A    between atoms: C_10  and  N_11 
REMARK    4  A    between atoms: C_14  and  C_15 
ROOT
HETATM    1  C   UNL     1       7.364  24.726  55.874  1.00  0.00     0.164 C 
HETATM    2  N   UNL     1       6.797  25.170  54.606  1.00  0.00    -0.074 N 
HETATM    3  C   UNL     1       5.757  26.055  54.498  1.00  0.00     0.736 A 
HETATM    4  N   UNL     1       5.560  26.330  53.235  1.00  0.00     0.131 NA
HETATM    5  C   UNL     1       6.552  25.633  52.611  1.00  0.00     0.753 A 
HETATM    6  N   UNL     1       7.354  24.929  53.405  1.00  0.00     0.037 NA
HETATM    7  N   UNL     1       5.146  26.561  55.590  1.00  0.00    -0.214 N 
HETATM    8  C   UNL     1       5.809  26.476  56.888  1.00  0.00     0.135 C 
HETATM    9  C   UNL     1       6.422  25.072  57.046  1.00  0.00     0.063 C 
HETATM   10  H   UNL     1       4.563  27.381  55.444  1.00  0.00     0.178 HD
ENDROOT
BRANCH   1  11
HETATM   11  C   UNL     1       7.689  23.239  55.871  1.00  0.00    -0.030 A 
HETATM   12  C   UNL     1       7.463  22.442  54.733  1.00  0.00     0.046 A 
HETATM   13  C   UNL     1       7.780  21.081  54.728  1.00  0.00     0.068 A 
HETATM   14  C   UNL     1       8.293  20.491  55.882  1.00  0.00     0.037 A 
HETATM   15  C   UNL     1       8.507  21.266  57.025  1.00  0.00     0.003 A 
HETATM   16  C   UNL     1       8.211  22.630  57.020  1.00  0.00     0.009 A 
BRANCH  13  17
HETATM   17  O   UNL     1       7.524  20.433  53.551  1.00  0.00    -0.356 OA
HETATM   18  C   UNL     1       8.602  20.380  52.624  1.00  0.00     0.210 C 
ENDBRANCH  13  17
ENDBRANCH   1  11
BRANCH   8  19
HETATM   19  C   UNL     1       6.802  27.607  57.145  1.00  0.00    -0.035 A 
HETATM   20  C   UNL     1       6.415  28.906  57.520  1.00  0.00     0.010 A 
HETATM   21  C   UNL     1       7.366  29.907  57.746  1.00  0.00     0.019 A 
HETATM   22  C   UNL     1       8.719  29.622  57.603  1.00  0.00     0.011 A 
HETATM   23 BR   UNL     1      10.003  30.974  57.909  1.00  0.00    -0.051 Br
HETATM   24  C   UNL     1       9.131  28.343  57.240  1.00  0.00     0.019 A 
HETATM   25  C   UNL     1       8.179  27.344  57.016  1.00  0.00     0.010 A 
ENDBRANCH   8  19
BRANCH   5  26
HETATM   26  N   UNL     1       6.642  25.699  51.286  1.00  0.00    -0.229 N 
HETATM   27  H   UNL     1       5.769  25.695  50.777  1.00  0.00     0.174 HD
HETATM   28  H   UNL     1       7.381  25.155  50.863  1.00  0.00     0.174 HD
ENDBRANCH   5  26
TORSDOF 4
ENDMDL
MODEL 3
REMARK VINA RESULT:      -9.3      4.391      7.125
REMARK  4 active torsions:
REMARK  status: ('A' for Active; 'I' for Inactive)
REMARK    1  A    between atoms: O_2  and  C_3 
REMARK    2  A    between atoms: C_5  and  C_6 
REMARK    3  A    between atoms: C_10  and  N_11 
REMARK    4  A    between atoms: C_14  and  C_15 
ROOT
HETATM    1  C   UNL     1       5.973  27.556  55.602  1.00  0.00     0.164 C 
HETATM    2  N   UNL     1       7.241  28.052  56.125  1.00  0.00    -0.074 N 
HETATM    3  C   UNL     1       7.924  27.473  57.162  1.00  0.00     0.736 A 
HETATM    4  N   UNL     1       9.069  28.085  57.315  1.00  0.00     0.131 NA
HETATM    5  C   UNL     1       9.066  28.996  56.300  1.00  0.00     0.753 A 
HETATM    6  N   UNL     1       7.985  29.000  55.526  1.00  0.00     0.037 NA
HETATM    7  N   UNL     1       7.435  26.395  57.812  1.00  0.00    -0.214 N 
HETATM    8  C   UNL     1       6.375  25.603  57.195  1.00  0.00     0.135 C 
HETATM    9  C   UNL     1       5.329  26.557  56.586  1.00  0.00     0.063 C 
HETATM   10  H   UNL     1       8.094  25.878  58.390  1.00  0.00     0.178 HD
ENDROOT
BRANCH   1  11
HETATM   11  C   UNL     1       5.004  28.683  55.276  1.00  0.00    -0.030 A 
HETATM   12  C   UNL     1       4.340  29.396  56.291  1.00  0.00     0.046 A 
HETATM   13  C   UNL     1       3.466  30.444  55.988  1.00  0.00     0.068 A 
HETATM   14  C   UNL     1       3.215  30.764  54.655  1.00  0.00     0.037 A 
HETATM   15  C   UNL     1       3.854  30.055  53.635  1.00  0.00     0.003 A 
HETATM   16  C   UNL     1       4.744  29.024  53.942  1.00  0.00     0.009 A 
BRANCH  13  17
HETATM   17  O   UNL     1       2.904  31.059  57.073  1.00  0.00    -0.356 OA
HETATM   18  C   UNL     1       3.693  31.073  58.256  1.00  0.00     0.210 C 
ENDBRANCH  13  17
ENDBRANCH   1  11
BRANCH   8  19
HETATM   19  C   UNL     1       6.886  24.552  56.213  1.00  0.00    -0.035 A 
HETATM   20  C   UNL     1       6.448  24.462  54.880  1.00  0.00     0.010 A 
HETATM   21  C   UNL     1       6.950  23.480  54.019  1.00  0.00     0.019 A 
HETATM   22  C   UNL     1       7.901  22.575  54.479  1.00  0.00     0.011 A 
HETATM   23 BR   UNL     1       8.579  21.249  53.315  1.00  0.00    -0.051 Br
HETATM   24  C   UNL     1       8.357  22.646  55.791  1.00  0.00     0.019 A 
HETATM   25  C   UNL     1       7.855  23.629  56.650  1.00  0.00     0.010 A 
ENDBRANCH   8  19
BRANCH   5  26
HETATM   26  N   UNL     1      10.116  29.801  56.163  1.00  0.00    -0.229 N 
HETATM   27  H   UNL     1      10.460  30.235  57.008  1.00  0.00     0.174 HD
HETATM   28  H   UNL     1      10.113  30.402  55.350  1.00  0.00     0.174 HD
ENDBRANCH   5  26
TORSDOF 4
ENDMDL
MODEL 4
REMARK VINA RESULT:      -9.3      1.706      2.200
REMARK  4 active torsions:
REMARK  status: ('A' for Active; 'I' for Inactive)
REMARK    1  A    between atoms: O_2  and  C_3 
REMARK    2  A    between atoms: C_5  and  C_6 
REMARK    3  A    between atoms: C_10  and  N_11 
REMARK    4  A    between atoms: C_14  and  C_15 
ROOT
HETATM    1  C   UNL     1       6.669  26.421  54.984  1.00  0.00     0.164 C 
HETATM    2  N   UNL     1       5.936  27.236  54.023  1.00  0.00    -0.074 N 
HETATM    3  C   UNL     1       4.814  27.960  54.326  1.00  0.00     0.736 A 
HETATM    4  N   UNL     1       4.464  28.665  53.282  1.00  0.00     0.131 NA
HETATM    5  C   UNL     1       5.447  28.383  52.380  1.00  0.00     0.753 A 
HETATM    6  N   UNL     1       6.387  27.537  52.791  1.00  0.00     0.037 NA
HETATM    7  N   UNL     1       4.274  27.937  55.564  1.00  0.00    -0.214 N 
HETATM    8  C   UNL     1       5.072  27.452  56.686  1.00  0.00     0.135 C 
HETATM    9  C   UNL     1       5.824  26.179  56.253  1.00  0.00     0.063 C 
HETATM   10  H   UNL     1       3.607  28.673  55.781  1.00  0.00     0.178 HD
ENDROOT
BRANCH   1  11
HETATM   11  C   UNL     1       7.126  25.098  54.387  1.00  0.00    -0.030 A 
HETATM   12  C   UNL     1       7.151  23.917  55.153  1.00  0.00     0.046 A 
HETATM   13  C   UNL     1       7.553  22.701  54.595  1.00  0.00     0.068 A 
HETATM   14  C   UNL     1       7.977  22.661  53.268  1.00  0.00     0.037 A 
HETATM   15  C   UNL     1       7.974  23.827  52.499  1.00  0.00     0.003 A 
HETATM   16  C   UNL     1       7.549  25.036  53.053  1.00  0.00     0.009 A 
BRANCH  13  17
HETATM   17  O   UNL     1       7.512  21.633  55.449  1.00  0.00    -0.356 OA
HETATM   18  C   UNL     1       8.122  20.437  54.977  1.00  0.00     0.210 C 
ENDBRANCH  13  17
ENDBRANCH   1  11
BRANCH   8  19
HETATM   19  C   UNL     1       5.978  28.515  57.301  1.00  0.00    -0.035 A 
HETATM   20  C   UNL     1       5.589  29.855  57.477  1.00  0.00     0.010 A 
HETATM   21  C   UNL     1       6.457  30.792  58.048  1.00  0.00     0.019 A 
HETATM   22  C   UNL     1       7.728  30.400  58.455  1.00  0.00     0.011 A 
HETATM   23 BR   UNL     1       8.901  31.665  59.226  1.00  0.00    -0.051 Br
HETATM   24  C   UNL     1       8.137  29.079  58.299  1.00  0.00     0.019 A 
HETATM   25  C   UNL     1       7.267  28.145  57.730  1.00  0.00     0.010 A 
ENDBRANCH   8  19
BRANCH   5  26
HETATM   26  N   UNL     1       5.395  28.956  51.181  1.00  0.00    -0.229 N 
HETATM   27  H   UNL     1       5.175  29.942  51.165  1.00  0.00     0.174 HD
HETATM   28  H   UNL     1       4.958  28.414  50.448  1.00  0.00     0.174 HD
ENDBRANCH   5  26
TORSDOF 4
ENDMDL
MODEL 5
REMARK VINA RESULT:      -9.1      4.300      7.155
REMARK  4 active torsions:
REMARK  status: ('A' for Active; 'I' for Inactive)
REMARK    1  A    between atoms: O_2  and  C_3 
REMARK    2  A    between atoms: C_5  and  C_6 
REMARK    3  A    between atoms: C_10  and  N_11 
REMARK    4  A    between atoms: C_14  and  C_15 
ROOT
HETATM    1  C   UNL     1       6.009  27.567  55.567  1.00  0.00     0.164 C 
HETATM    2  N   UNL     1       7.271  28.068  56.100  1.00  0.00    -0.074 N 
HETATM    3  C   UNL     1       7.946  27.493  57.143  1.00  0.00     0.736 A 
HETATM    4  N   UNL     1       9.088  28.109  57.305  1.00  0.00     0.131 NA
HETATM    5  C   UNL     1       9.091  29.019  56.290  1.00  0.00     0.753 A 
HETATM    6  N   UNL     1       8.017  29.017  55.506  1.00  0.00     0.037 NA
HETATM    7  N   UNL     1       7.456  26.414  57.790  1.00  0.00    -0.214 N 
HETATM    8  C   UNL     1       6.404  25.618  57.165  1.00  0.00     0.135 C 
HETATM    9  C   UNL     1       5.360  26.567  56.546  1.00  0.00     0.063 C 
HETATM   10  H   UNL     1       8.111  25.900  58.375  1.00  0.00     0.178 HD
ENDROOT
BRANCH   1  11
HETATM   11  C   UNL     1       5.039  28.691  55.231  1.00  0.00    -0.030 A 
HETATM   12  C   UNL     1       4.698  28.992  53.899  1.00  0.00     0.046 A 
HETATM   13  C   UNL     1       3.793  30.012  53.596  1.00  0.00     0.068 A 
HETATM   14  C   UNL     1       3.246  30.773  54.628  1.00  0.00     0.037 A 
HETATM   15  C   UNL     1       3.588  30.498  55.954  1.00  0.00     0.003 A 
HETATM   16  C   UNL     1       4.475  29.463  56.255  1.00  0.00     0.009 A 
BRANCH  13  17
HETATM   17  O   UNL     1       3.541  30.183  52.263  1.00  0.00    -0.356 OA
HETATM   18  C   UNL     1       3.012  29.052  51.581  1.00  0.00     0.210 C 
ENDBRANCH  13  17
ENDBRANCH   1  11
BRANCH   8  19
HETATM   19  C   UNL     1       6.926  24.567  56.189  1.00  0.00    -0.035 A 
HETATM   20  C   UNL     1       6.465  24.442  54.867  1.00  0.00     0.010 A 
HETATM   21  C   UNL     1       6.979  23.463  54.011  1.00  0.00     0.019 A 
HETATM   22  C   UNL     1       7.967  22.595  54.464  1.00  0.00     0.011 A 
HETATM   23 BR   UNL     1       8.661  21.272  53.308  1.00  0.00    -0.051 Br
HETATM   24  C   UNL     1       8.447  22.700  55.766  1.00  0.00     0.019 A 
HETATM   25  C   UNL     1       7.933  23.681  56.620  1.00  0.00     0.010 A 
ENDBRANCH   8  19
BRANCH   5  26
HETATM   26  N   UNL     1      10.139  29.827  56.161  1.00  0.00    -0.229 N 
HETATM   27  H   UNL     1      10.120  30.675  56.710  1.00  0.00     0.174 HD
HETATM   28  H   UNL     1      10.503  29.938  55.224  1.00  0.00     0.174 HD
ENDBRANCH   5  26
TORSDOF 4
ENDMDL
MODEL 6
REMARK VINA RESULT:      -9.1      8.901     11.730
REMARK  4 active torsions:
REMARK  status: ('A' for Active; 'I' for Inactive)
REMARK    1  A    between atoms: O_2  and  C_3 
REMARK    2  A    between atoms: C_5  and  C_6 
REMARK    3  A    between atoms: C_10  and  N_11 
REMARK    4  A    between atoms: C_14  and  C_15 
ROOT
HETATM    1  C   UNL     1       6.582  33.452  62.016  1.00  0.00     0.164 C 
HETATM    2  N   UNL     1       5.295  32.778  61.880  1.00  0.00    -0.074 N 
HETATM    3  C   UNL     1       4.272  32.887  62.783  1.00  0.00     0.736 A 
HETATM    4  N   UNL     1       3.224  32.257  62.320  1.00  0.00     0.131 NA
HETATM    5  C   UNL     1       3.641  31.830  61.094  1.00  0.00     0.753 A 
HETATM    6  N   UNL     1       4.890  32.146  60.764  1.00  0.00     0.037 NA
HETATM    7  N   UNL     1       4.402  33.618  63.911  1.00  0.00    -0.214 N 
HETATM    8  C   UNL     1       5.479  34.598  64.012  1.00  0.00     0.135 C 
HETATM    9  C   UNL     1       6.775  33.978  63.454  1.00  0.00     0.063 C 
HETATM   10  H   UNL     1       3.542  33.854  64.400  1.00  0.00     0.178 HD
ENDROOT
BRANCH   1  11
HETATM   11  C   UNL     1       7.746  32.558  61.614  1.00  0.00    -0.030 A 
HETATM   12  C   UNL     1       8.429  32.746  60.398  1.00  0.00     0.046 A 
HETATM   13  C   UNL     1       9.510  31.935  60.042  1.00  0.00     0.068 A 
HETATM   14  C   UNL     1       9.894  30.894  60.885  1.00  0.00     0.037 A 
HETATM   15  C   UNL     1       9.215  30.684  62.088  1.00  0.00     0.003 A 
HETATM   16  C   UNL     1       8.151  31.511  62.452  1.00  0.00     0.009 A 
BRANCH  13  17
HETATM   17  O   UNL     1      10.090  32.241  58.842  1.00  0.00    -0.356 OA
HETATM   18  C   UNL     1      10.292  31.149  57.953  1.00  0.00     0.210 C 
ENDBRANCH  13  17
ENDBRANCH   1  11
BRANCH   8  19
HETATM   19  C   UNL     1       5.137  35.951  63.394  1.00  0.00    -0.035 A 
HETATM   20  C   UNL     1       6.088  36.963  63.171  1.00  0.00     0.010 A 
HETATM   21  C   UNL     1       5.723  38.186  62.599  1.00  0.00     0.019 A 
HETATM   22  C   UNL     1       4.400  38.414  62.237  1.00  0.00     0.011 A 
HETATM   23 BR   UNL     1       3.907  40.066  61.463  1.00  0.00    -0.051 Br
HETATM   24  C   UNL     1       3.439  37.428  62.439  1.00  0.00     0.019 A 
HETATM   25  C   UNL     1       3.807  36.206  63.010  1.00  0.00     0.010 A 
ENDBRANCH   8  19
BRANCH   5  26
HETATM   26  N   UNL     1       2.794  31.140  60.337  1.00  0.00    -0.229 N 
HETATM   27  H   UNL     1       2.922  30.137  60.320  1.00  0.00     0.174 HD
HETATM   28  H   UNL     1       2.560  31.550  59.443  1.00  0.00     0.174 HD
ENDBRANCH   5  26
TORSDOF 4
ENDMDL
MODEL 7
REMARK VINA RESULT:      -9.0      4.417      7.045
REMARK  4 active torsions:
REMARK  status: ('A' for Active; 'I' for Inactive)
REMARK    1  A    between atoms: O_2  and  C_3 
REMARK    2  A    between atoms: C_5  and  C_6 
REMARK    3  A    between atoms: C_10  and  N_11 
REMARK    4  A    between atoms: C_14  and  C_15 
ROOT
HETATM    1  C   UNL     1       7.189  28.275  56.046  1.00  0.00     0.164 C 
HETATM    2  N   UNL     1       7.037  26.930  56.590  1.00  0.00    -0.074 N 
HETATM    3  C   UNL     1       5.832  26.301  56.755  1.00  0.00     0.736 A 
HETATM    4  N   UNL     1       6.042  25.075  57.157  1.00  0.00     0.131 NA
HETATM    5  C   UNL     1       7.402  24.983  57.163  1.00  0.00     0.753 A 
HETATM    6  N   UNL     1       8.059  26.081  56.798  1.00  0.00     0.037 NA
HETATM    7  N   UNL     1       4.668  26.915  56.450  1.00  0.00    -0.214 N 
HETATM    8  C   UNL     1       4.684  28.100  55.598  1.00  0.00     0.135 C 
HETATM    9  C   UNL     1       5.838  29.020  56.040  1.00  0.00     0.063 C 
HETATM   10  H   UNL     1       3.850  26.317  56.362  1.00  0.00     0.178 HD
ENDROOT
BRANCH   1  11
HETATM   11  C   UNL     1       8.241  29.083  56.793  1.00  0.00    -0.030 A 
HETATM   12  C   UNL     1       8.032  29.513  58.117  1.00  0.00     0.046 A 
HETATM   13  C   UNL     1       9.007  30.237  58.806  1.00  0.00     0.068 A 
HETATM   14  C   UNL     1      10.195  30.577  58.159  1.00  0.00     0.037 A 
HETATM   15  C   UNL     1      10.410  30.172  56.840  1.00  0.00     0.003 A 
HETATM   16  C   UNL     1       9.443  29.428  56.162  1.00  0.00     0.009 A 
BRANCH  13  17
HETATM   17  O   UNL     1       8.677  30.575  60.089  1.00  0.00    -0.356 OA
HETATM   18  C   UNL     1       7.633  31.531  60.231  1.00  0.00     0.210 C 
ENDBRANCH  13  17
ENDBRANCH   1  11
BRANCH   8  19
HETATM   19  C   UNL     1       4.695  27.783  54.105  1.00  0.00    -0.035 A 
HETATM   20  C   UNL     1       5.036  26.521  53.585  1.00  0.00     0.010 A 
HETATM   21  C   UNL     1       5.029  26.281  52.207  1.00  0.00     0.019 A 
HETATM   22  C   UNL     1       4.677  27.299  51.328  1.00  0.00     0.011 A 
HETATM   23 BR   UNL     1       4.668  26.974  49.466  1.00  0.00    -0.051 Br
HETATM   24  C   UNL     1       4.329  28.555  51.815  1.00  0.00     0.019 A 
HETATM   25  C   UNL     1       4.335  28.793  53.193  1.00  0.00     0.010 A 
ENDBRANCH   8  19
BRANCH   5  26
HETATM   26  N   UNL     1       7.963  23.835  57.529  1.00  0.00    -0.229 N 
HETATM   27  H   UNL     1       8.556  23.387  56.842  1.00  0.00     0.174 HD
HETATM   28  H   UNL     1       7.378  23.203  58.057  1.00  0.00     0.174 HD
ENDBRANCH   5  26
TORSDOF 4
ENDMDL
MODEL 8
REMARK VINA RESULT:      -8.8      3.119      4.645
REMARK  4 active torsions:
REMARK  status: ('A' for Active; 'I' for Inactive)
REMARK    1  A    between atoms: O_2  and  C_3 
REMARK    2  A    between atoms: C_5  and  C_6 
REMARK    3  A    between atoms: C_10  and  N_11 
REMARK    4  A    between atoms: C_14  and  C_15 
ROOT
HETATM    1  C   UNL     1       6.862  24.296  53.595  1.00  0.00     0.164 C 
HETATM    2  N   UNL     1       6.373  24.954  54.802  1.00  0.00    -0.074 N 
HETATM    3  C   UNL     1       6.559  26.281  55.081  1.00  0.00     0.736 A 
HETATM    4  N   UNL     1       5.910  26.583  56.176  1.00  0.00     0.131 NA
HETATM    5  C   UNL     1       5.288  25.412  56.494  1.00  0.00     0.753 A 
HETATM    6  N   UNL     1       5.515  24.392  55.672  1.00  0.00     0.037 NA
HETATM    7  N   UNL     1       7.259  27.085  54.252  1.00  0.00    -0.214 N 
HETATM    8  C   UNL     1       7.507  26.658  52.878  1.00  0.00     0.135 C 
HETATM    9  C   UNL     1       7.913  25.171  52.881  1.00  0.00     0.063 C 
HETATM   10  H   UNL     1       7.148  28.086  54.391  1.00  0.00     0.178 HD
ENDROOT
BRANCH   1  11
HETATM   11  C   UNL     1       7.426  22.912  53.882  1.00  0.00    -0.030 A 
HETATM   12  C   UNL     1       7.738  22.504  55.192  1.00  0.00     0.046 A 
HETATM   13  C   UNL     1       8.238  21.226  55.454  1.00  0.00     0.068 A 
HETATM   14  C   UNL     1       8.470  20.350  54.395  1.00  0.00     0.037 A 
HETATM   15  C   UNL     1       8.182  20.746  53.086  1.00  0.00     0.003 A 
HETATM   16  C   UNL     1       7.660  22.015  52.831  1.00  0.00     0.009 A 
BRANCH  13  17
HETATM   17  O   UNL     1       8.481  20.960  56.773  1.00  0.00    -0.356 OA
HETATM   18  C   UNL     1       8.369  22.066  57.660  1.00  0.00     0.210 C 
ENDBRANCH  13  17
ENDBRANCH   1  11
BRANCH   8  19
HETATM   19  C   UNL     1       6.362  26.975  51.921  1.00  0.00    -0.035 A 
HETATM   20  C   UNL     1       5.853  26.051  50.991  1.00  0.00     0.010 A 
HETATM   21  C   UNL     1       4.799  26.390  50.136  1.00  0.00     0.019 A 
HETATM   22  C   UNL     1       4.235  27.660  50.202  1.00  0.00     0.011 A 
HETATM   23 BR   UNL     1       2.811  28.118  49.047  1.00  0.00    -0.051 Br
HETATM   24  C   UNL     1       4.714  28.592  51.117  1.00  0.00     0.019 A 
HETATM   25  C   UNL     1       5.767  28.250  51.971  1.00  0.00     0.010 A 
ENDBRANCH   8  19
BRANCH   5  26
HETATM   26  N   UNL     1       4.522  25.372  57.580  1.00  0.00    -0.229 N 
HETATM   27  H   UNL     1       3.535  25.212  57.426  1.00  0.00     0.174 HD
HETATM   28  H   UNL     1       4.733  26.050  58.299  1.00  0.00     0.174 HD
ENDBRANCH   5  26
TORSDOF 4
ENDMDL
MODEL 9
REMARK VINA RESULT:      -8.6      3.734      7.173
REMARK  4 active torsions:
REMARK  status: ('A' for Active; 'I' for Inactive)
REMARK    1  A    between atoms: O_2  and  C_3 
REMARK    2  A    between atoms: C_5  and  C_6 
REMARK    3  A    between atoms: C_10  and  N_11 
REMARK    4  A    between atoms: C_14  and  C_15 
ROOT
HETATM    1  C   UNL     1       7.944  28.345  55.840  1.00  0.00     0.164 C 
HETATM    2  N   UNL     1       6.516  28.619  55.723  1.00  0.00    -0.074 N 
HETATM    3  C   UNL     1       5.818  28.568  54.546  1.00  0.00     0.736 A 
HETATM    4  N   UNL     1       4.547  28.754  54.793  1.00  0.00     0.131 NA
HETATM    5  C   UNL     1       4.512  28.853  56.153  1.00  0.00     0.753 A 
HETATM    6  N   UNL     1       5.684  28.750  56.773  1.00  0.00     0.037 NA
HETATM    7  N   UNL     1       6.430  28.287  53.375  1.00  0.00    -0.214 N 
HETATM    8  C   UNL     1       7.753  27.671  53.386  1.00  0.00     0.135 C 
HETATM    9  C   UNL     1       8.620  28.366  54.453  1.00  0.00     0.063 C 
HETATM   10  H   UNL     1       5.826  28.025  52.600  1.00  0.00     0.178 HD
ENDROOT
BRANCH   1  11
HETATM   11  C   UNL     1       8.639  29.310  56.789  1.00  0.00    -0.030 A 
HETATM   12  C   UNL     1       8.005  29.778  57.954  1.00  0.00     0.046 A 
HETATM   13  C   UNL     1       8.655  30.649  58.833  1.00  0.00     0.068 A 
HETATM   14  C   UNL     1       9.940  31.096  58.530  1.00  0.00     0.037 A 
HETATM   15  C   UNL     1      10.577  30.655  57.368  1.00  0.00     0.003 A 
HETATM   16  C   UNL     1       9.934  29.766  56.505  1.00  0.00     0.009 A 
BRANCH  13  17
HETATM   17  O   UNL     1       7.927  31.008  59.933  1.00  0.00    -0.356 OA
HETATM   18  C   UNL     1       6.906  31.974  59.714  1.00  0.00     0.210 C 
ENDBRANCH  13  17
ENDBRANCH   1  11
BRANCH   8  19
HETATM   19  C   UNL     1       7.721  26.151  53.523  1.00  0.00    -0.035 A 
HETATM   20  C   UNL     1       7.478  25.489  54.740  1.00  0.00     0.010 A 
HETATM   21  C   UNL     1       7.457  24.092  54.811  1.00  0.00     0.019 A 
HETATM   22  C   UNL     1       7.676  23.336  53.665  1.00  0.00     0.011 A 
HETATM   23 BR   UNL     1       7.647  21.449  53.762  1.00  0.00    -0.051 Br
HETATM   24  C   UNL     1       7.912  23.965  52.446  1.00  0.00     0.019 A 
HETATM   25  C   UNL     1       7.931  25.361  52.377  1.00  0.00     0.010 A 
ENDBRANCH   8  19
BRANCH   5  26
HETATM   26  N   UNL     1       3.339  29.046  56.748  1.00  0.00    -0.229 N 
HETATM   27  H   UNL     1       2.819  29.863  56.457  1.00  0.00     0.174 HD
HETATM   28  H   UNL     1       3.307  28.856  57.740  1.00  0.00     0.174 HD
ENDBRANCH   5  26
TORSDOF 4
ENDMDL
MODEL 10
REMARK VINA RESULT:      -8.6      4.186      7.040
REMARK  4 active torsions:
REMARK  status: ('A' for Active; 'I' for Inactive)
REMARK    1  A    between atoms: O_2  and  C_3 
REMARK    2  A    between atoms: C_5  and  C_6 
REMARK    3  A    between atoms: C_10  and  N_11 
REMARK    4  A    between atoms: C_14  and  C_15 
ROOT
HETATM    1  C   UNL     1       6.151  27.437  53.882  1.00  0.00     0.164 C 
HETATM    2  N   UNL     1       7.147  27.919  54.833  1.00  0.00    -0.074 N 
HETATM    3  C   UNL     1       7.305  27.420  56.098  1.00  0.00     0.736 A 
HETATM    4  N   UNL     1       8.347  27.984  56.653  1.00  0.00     0.131 NA
HETATM    5  C   UNL     1       8.832  28.778  55.656  1.00  0.00     0.753 A 
HETATM    6  N   UNL     1       8.152  28.755  54.513  1.00  0.00     0.037 NA
HETATM    7  N   UNL     1       6.502  26.446  56.578  1.00  0.00    -0.214 N 
HETATM    8  C   UNL     1       5.706  25.650  55.649  1.00  0.00     0.135 C 
HETATM    9  C   UNL     1       5.080  26.586  54.596  1.00  0.00     0.063 C 
HETATM   10  H   UNL     1       6.826  25.962  57.411  1.00  0.00     0.178 HD
ENDROOT
BRANCH   1  11
HETATM   11  C   UNL     1       5.500  28.572  53.105  1.00  0.00    -0.030 A 
HETATM   12  C   UNL     1       5.796  28.796  51.748  1.00  0.00     0.046 A 
HETATM   13  C   UNL     1       5.182  29.827  51.033  1.00  0.00     0.068 A 
HETATM   14  C   UNL     1       4.289  30.676  51.685  1.00  0.00     0.037 A 
HETATM   15  C   UNL     1       3.997  30.478  53.036  1.00  0.00     0.003 A 
HETATM   16  C   UNL     1       4.595  29.432  53.741  1.00  0.00     0.009 A 
BRANCH  13  17
HETATM   17  O   UNL     1       5.551  29.919  49.719  1.00  0.00    -0.356 OA
HETATM   18  C   UNL     1       5.495  28.709  48.973  1.00  0.00     0.210 C 
ENDBRANCH  13  17
ENDBRANCH   1  11
BRANCH   8  19
HETATM   19  C   UNL     1       6.465  24.473  55.043  1.00  0.00    -0.035 A 
HETATM   20  C   UNL     1       6.528  24.222  53.660  1.00  0.00     0.010 A 
HETATM   21  C   UNL     1       7.240  23.129  53.155  1.00  0.00     0.019 A 
HETATM   22  C   UNL     1       7.903  22.272  54.026  1.00  0.00     0.011 A 
HETATM   23 BR   UNL     1       8.865  20.796  53.343  1.00  0.00    -0.051 Br
HETATM   24  C   UNL     1       7.864  22.500  55.398  1.00  0.00     0.019 A 
HETATM   25  C   UNL     1       7.153  23.594  55.901  1.00  0.00     0.010 A 
ENDBRANCH   8  19
BRANCH   5  26
HETATM   26  N   UNL     1       9.919  29.506  55.892  1.00  0.00    -0.229 N 
HETATM   27  H   UNL     1      10.805  29.073  55.667  1.00  0.00     0.174 HD
HETATM   28  H   UNL     1       9.917  30.044  56.748  1.00  0.00     0.174 HD
ENDBRANCH   5  26
TORSDOF 4
ENDMDL
