MODEL 1
REMARK VINA RESULT:      -9.9      0.000      0.000
REMARK  11 active torsions:
REMARK  status: ('A' for Active; 'I' for Inactive)
REMARK    1  A    between atoms: C_3  and  N_4 
REMARK    2  A    between atoms: N_4  and  C_5 
REMARK    3  A    between atoms: C_7  and  C_8 
REMARK    4  A    between atoms: C_18  and  N_19 
REMARK       I    between atoms: N_19  and  C_20 
REMARK    5  A    between atoms: C_20  and  C_21 
REMARK    6  A    between atoms: C_22  and  C_23 
REMARK    7  A    between atoms: C_26  and  O_27 
REMARK    8  A    between atoms: O_27  and  C_28 
REMARK    9  A    between atoms: C_28  and  C_29 
REMARK   10  A    between atoms: C_29  and  C_30 
REMARK   11  A    between atoms: C_30  and  N_31 
ROOT
HETATM    1  C   UNL     1      10.772  29.681  56.472  1.00  0.00     0.050 C 
HETATM    2  C   UNL     1       9.891  30.197  57.579  1.00  0.00    -0.035 A 
HETATM    3  C   UNL     1       8.790  29.457  58.061  1.00  0.00     0.057 A 
HETATM    4  C   UNL     1       8.051  29.985  59.135  1.00  0.00     0.060 A 
HETATM    5  C   UNL     1       8.375  31.206  59.728  1.00  0.00     0.037 A 
HETATM    6  C   UNL     1       9.471  31.920  59.245  1.00  0.00     0.030 A 
HETATM    7  C   UNL     1      10.221  31.423  58.179  1.00  0.00     0.011 A 
ENDROOT
BRANCH   5   8
HETATM    8  N   UNL     1       7.676  31.757  60.823  1.00  0.00    -0.324 N 
HETATM    9  C   UNL     1       6.453  32.395  60.802  1.00  0.00     0.245 C 
HETATM   10  O   UNL     1       5.788  32.710  59.826  1.00  0.00    -0.268 OA
HETATM   11  H   UNL     1       8.137  31.658  61.717  1.00  0.00     0.169 HD
BRANCH   9  12
HETATM   12  C   UNL     1       5.989  32.711  62.179  1.00  0.00     0.075 C 
HETATM   13  C   UNL     1       6.858  33.107  63.121  1.00  0.00     0.017 C 
BRANCH  13  14
HETATM   14  C   UNL     1       6.364  33.426  64.457  1.00  0.00    -0.036 A 
HETATM   15  C   UNL     1       4.990  33.454  64.707  1.00  0.00     0.014 A 
HETATM   16  C   UNL     1       4.511  33.867  65.953  1.00  0.00     0.037 A 
HETATM   17  C   UNL     1       5.408  34.273  66.940  1.00  0.00     0.068 A 
HETATM   18  C   UNL     1       6.782  34.194  66.712  1.00  0.00     0.037 A 
HETATM   19  C   UNL     1       7.261  33.779  65.470  1.00  0.00     0.014 A 
BRANCH  17  20
HETATM   20  O   UNL     1       5.034  34.687  68.186  1.00  0.00    -0.351 OA
BRANCH  20  21
HETATM   21  C   UNL     1       6.098  35.014  69.081  1.00  0.00     0.177 C 
BRANCH  21  22
HETATM   22  C   UNL     1       5.869  34.226  70.369  1.00  0.00     0.054 C 
BRANCH  22  23
HETATM   23  C   UNL     1       6.915  33.123  70.513  1.00  0.00     0.236 C 
BRANCH  23  24
HETATM   24  N   UNL     1       7.823  33.376  71.700  1.00  0.00    -0.079 N 
HETATM   25  H   UNL     1       8.404  32.538  71.841  1.00  0.00     0.278 HD
HETATM   26  C   UNL     1       8.756  34.542  71.496  1.00  0.00     0.269 C 
HETATM   27  C   UNL     1       7.016  33.556  72.961  1.00  0.00     0.269 C 
ENDBRANCH  23  24
ENDBRANCH  22  23
ENDBRANCH  21  22
ENDBRANCH  20  21
ENDBRANCH  17  20
ENDBRANCH  13  14
ENDBRANCH   9  12
ENDBRANCH   5   8
BRANCH   3  28
HETATM   28  N   UNL     1       8.510  28.186  57.526  1.00  0.00    -0.188 N 
HETATM   29  H   UNL     1       9.137  27.442  57.788  1.00  0.00     0.184 HD
BRANCH  28  30
HETATM   30  C   UNL     1       7.790  27.794  56.399  1.00  0.00     0.727 A 
HETATM   31  N   UNL     1       7.914  26.559  55.889  1.00  0.00    -0.062 NA
HETATM   32  C   UNL     1       7.193  26.214  54.800  1.00  0.00     0.089 A 
HETATM   33  C   UNL     1       6.345  27.128  54.207  1.00  0.00     0.053 A 
HETATM   34  C   UNL     1       6.299  28.379  54.774  1.00  0.00     0.139 A 
HETATM   35  N   UNL     1       7.013  28.738  55.853  1.00  0.00    -0.075 NA
BRANCH  32  36
HETATM   36  C   UNL     1       7.393  24.829  54.314  1.00  0.00     0.011 A 
HETATM   37  C   UNL     1       7.696  24.562  52.972  1.00  0.00     0.130 A 
HETATM   38  N   UNL     1       7.877  23.324  52.430  1.00  0.00    -0.272 NA
HETATM   39  C   UNL     1       7.761  22.278  53.267  1.00  0.00     0.116 A 
HETATM   40  C   UNL     1       7.474  22.409  54.612  1.00  0.00     0.020 A 
HETATM   41  C   UNL     1       7.288  23.692  55.133  1.00  0.00     0.017 A 
ENDBRANCH  32  36
ENDBRANCH  28  30
ENDBRANCH   3  28
TORSDOF 11
ENDMDL
MODEL 2
REMARK VINA RESULT:      -9.8      2.152      3.353
REMARK  11 active torsions:
REMARK  status: ('A' for Active; 'I' for Inactive)
REMARK    1  A    between atoms: C_3  and  N_4 
REMARK    2  A    between atoms: N_4  and  C_5 
REMARK    3  A    between atoms: C_7  and  C_8 
REMARK    4  A    between atoms: C_18  and  N_19 
REMARK       I    between atoms: N_19  and  C_20 
REMARK    5  A    between atoms: C_20  and  C_21 
REMARK    6  A    between atoms: C_22  and  C_23 
REMARK    7  A    between atoms: C_26  and  O_27 
REMARK    8  A    between atoms: O_27  and  C_28 
REMARK    9  A    between atoms: C_28  and  C_29 
REMARK   10  A    between atoms: C_29  and  C_30 
REMARK   11  A    between atoms: C_30  and  N_31 
ROOT
HETATM    1  C   UNL     1       4.223  28.422  53.637  1.00  0.00     0.050 C 
HETATM    2  C   UNL     1       4.462  29.031  54.994  1.00  0.00    -0.035 A 
HETATM    3  C   UNL     1       4.855  28.251  56.102  1.00  0.00     0.057 A 
HETATM    4  C   UNL     1       5.112  28.905  57.320  1.00  0.00     0.060 A 
HETATM    5  C   UNL     1       4.989  30.288  57.459  1.00  0.00     0.037 A 
HETATM    6  C   UNL     1       4.607  31.045  56.351  1.00  0.00     0.030 A 
HETATM    7  C   UNL     1       4.343  30.424  55.131  1.00  0.00     0.011 A 
ENDROOT
BRANCH   5   8
HETATM    8  N   UNL     1       5.262  30.985  58.655  1.00  0.00    -0.324 N 
HETATM    9  C   UNL     1       6.413  31.672  58.981  1.00  0.00     0.245 C 
HETATM   10  O   UNL     1       7.461  31.721  58.354  1.00  0.00    -0.268 OA
HETATM   11  H   UNL     1       4.516  30.973  59.336  1.00  0.00     0.169 HD
BRANCH   9  12
HETATM   12  C   UNL     1       6.261  32.388  60.276  1.00  0.00     0.075 C 
HETATM   13  C   UNL     1       6.716  31.846  61.415  1.00  0.00     0.017 C 
BRANCH  13  14
HETATM   14  C   UNL     1       6.565  32.585  62.665  1.00  0.00    -0.036 A 
HETATM   15  C   UNL     1       7.685  32.868  63.451  1.00  0.00     0.014 A 
HETATM   16  C   UNL     1       7.532  33.476  64.700  1.00  0.00     0.037 A 
HETATM   17  C   UNL     1       6.255  33.779  65.171  1.00  0.00     0.068 A 
HETATM   18  C   UNL     1       5.140  33.547  64.366  1.00  0.00     0.037 A 
HETATM   19  C   UNL     1       5.292  32.944  63.118  1.00  0.00     0.014 A 
BRANCH  17  20
HETATM   20  O   UNL     1       6.009  34.376  66.373  1.00  0.00    -0.351 OA
BRANCH  20  21
HETATM   21  C   UNL     1       4.774  34.028  67.002  1.00  0.00     0.177 C 
BRANCH  21  22
HETATM   22  C   UNL     1       4.992  34.110  68.511  1.00  0.00     0.054 C 
BRANCH  22  23
HETATM   23  C   UNL     1       6.228  34.948  68.828  1.00  0.00     0.236 C 
BRANCH  23  24
HETATM   24  N   UNL     1       7.327  34.102  69.439  1.00  0.00    -0.079 N 
HETATM   25  H   UNL     1       7.698  33.484  68.706  1.00  0.00     0.278 HD
HETATM   26  C   UNL     1       8.478  34.918  69.969  1.00  0.00     0.269 C 
HETATM   27  C   UNL     1       6.772  33.204  70.516  1.00  0.00     0.269 C 
ENDBRANCH  23  24
ENDBRANCH  22  23
ENDBRANCH  21  22
ENDBRANCH  20  21
ENDBRANCH  17  20
ENDBRANCH  13  14
ENDBRANCH   9  12
ENDBRANCH   5   8
BRANCH   3  28
HETATM   28  N   UNL     1       5.066  26.868  55.948  1.00  0.00    -0.188 N 
HETATM   29  H   UNL     1       4.240  26.292  55.898  1.00  0.00     0.184 HD
BRANCH  28  30
HETATM   30  C   UNL     1       6.162  26.060  56.245  1.00  0.00     0.727 A 
HETATM   31  N   UNL     1       6.386  24.918  55.575  1.00  0.00    -0.062 NA
HETATM   32  C   UNL     1       7.465  24.167  55.886  1.00  0.00     0.089 A 
HETATM   33  C   UNL     1       8.322  24.560  56.893  1.00  0.00     0.053 A 
HETATM   34  C   UNL     1       8.004  25.726  57.549  1.00  0.00     0.139 A 
HETATM   35  N   UNL     1       6.934  26.481  57.254  1.00  0.00    -0.075 NA
BRANCH  32  36
HETATM   36  C   UNL     1       7.631  22.929  55.088  1.00  0.00     0.011 A 
HETATM   37  C   UNL     1       7.714  22.966  53.689  1.00  0.00     0.130 A 
HETATM   38  N   UNL     1       7.846  21.883  52.873  1.00  0.00    -0.272 NA
HETATM   39  C   UNL     1       7.910  20.682  53.473  1.00  0.00     0.116 A 
HETATM   40  C   UNL     1       7.848  20.511  54.843  1.00  0.00     0.020 A 
HETATM   41  C   UNL     1       7.706  21.643  55.650  1.00  0.00     0.017 A 
ENDBRANCH  32  36
ENDBRANCH  28  30
ENDBRANCH   3  28
TORSDOF 11
ENDMDL
MODEL 3
REMARK VINA RESULT:      -9.7      3.945     13.607
REMARK  11 active torsions:
REMARK  status: ('A' for Active; 'I' for Inactive)
REMARK    1  A    between atoms: C_3  and  N_4 
REMARK    2  A    between atoms: N_4  and  C_5 
REMARK    3  A    between atoms: C_7  and  C_8 
REMARK    4  A    between atoms: C_18  and  N_19 
REMARK       I    between atoms: N_19  and  C_20 
REMARK    5  A    between atoms: C_20  and  C_21 
REMARK    6  A    between atoms: C_22  and  C_23 
REMARK    7  A    between atoms: C_26  and  O_27 
REMARK    8  A    between atoms: O_27  and  C_28 
REMARK    9  A    between atoms: C_28  and  C_29 
REMARK   10  A    between atoms: C_29  and  C_30 
REMARK   11  A    between atoms: C_30  and  N_31 
ROOT
HETATM    1  C   UNL     1       7.189  33.826  64.947  1.00  0.00     0.050 C 
HETATM    2  C   UNL     1       7.231  33.048  63.659  1.00  0.00    -0.035 A 
HETATM    3  C   UNL     1       6.189  33.123  62.709  1.00  0.00     0.057 A 
HETATM    4  C   UNL     1       6.331  32.408  61.506  1.00  0.00     0.060 A 
HETATM    5  C   UNL     1       7.462  31.637  61.232  1.00  0.00     0.037 A 
HETATM    6  C   UNL     1       8.485  31.580  62.178  1.00  0.00     0.030 A 
HETATM    7  C   UNL     1       8.371  32.276  63.381  1.00  0.00     0.011 A 
ENDROOT
BRANCH   5   8
HETATM    8  N   UNL     1       7.654  30.927  60.028  1.00  0.00    -0.324 N 
HETATM    9  C   UNL     1       8.557  31.209  59.023  1.00  0.00     0.245 C 
HETATM   10  O   UNL     1       9.285  32.185  58.920  1.00  0.00    -0.268 OA
HETATM   11  H   UNL     1       7.059  30.120  59.908  1.00  0.00     0.169 HD
BRANCH   9  12
HETATM   12  C   UNL     1       8.549  30.147  57.982  1.00  0.00     0.075 C 
HETATM   13  C   UNL     1       7.559  29.243  57.933  1.00  0.00     0.017 C 
BRANCH  13  14
HETATM   14  C   UNL     1       7.576  28.226  56.886  1.00  0.00    -0.036 A 
HETATM   15  C   UNL     1       7.442  28.597  55.546  1.00  0.00     0.014 A 
HETATM   16  C   UNL     1       7.345  27.620  54.552  1.00  0.00     0.037 A 
HETATM   17  C   UNL     1       7.357  26.271  54.903  1.00  0.00     0.068 A 
HETATM   18  C   UNL     1       7.545  25.897  56.233  1.00  0.00     0.037 A 
HETATM   19  C   UNL     1       7.647  26.871  57.226  1.00  0.00     0.014 A 
BRANCH  17  20
HETATM   20  O   UNL     1       7.273  25.249  54.003  1.00  0.00    -0.351 OA
BRANCH  20  21
HETATM   21  C   UNL     1       7.269  23.930  54.553  1.00  0.00     0.177 C 
BRANCH  21  22
HETATM   22  C   UNL     1       8.289  23.106  53.771  1.00  0.00     0.054 C 
BRANCH  22  23
HETATM   23  C   UNL     1       9.138  22.266  54.721  1.00  0.00     0.236 C 
BRANCH  23  24
HETATM   24  N   UNL     1       8.729  20.806  54.682  1.00  0.00    -0.079 N 
HETATM   25  H   UNL     1       9.577  20.235  54.792  1.00  0.00     0.278 HD
HETATM   26  C   UNL     1       7.781  20.426  55.791  1.00  0.00     0.269 C 
HETATM   27  C   UNL     1       8.144  20.452  53.338  1.00  0.00     0.269 C 
ENDBRANCH  23  24
ENDBRANCH  22  23
ENDBRANCH  21  22
ENDBRANCH  20  21
ENDBRANCH  17  20
ENDBRANCH  13  14
ENDBRANCH   9  12
ENDBRANCH   5   8
BRANCH   3  28
HETATM   28  N   UNL     1       5.087  33.967  62.940  1.00  0.00    -0.188 N 
HETATM   29  H   UNL     1       4.262  33.531  63.322  1.00  0.00     0.184 HD
BRANCH  28  30
HETATM   30  C   UNL     1       4.736  35.200  62.396  1.00  0.00     0.727 A 
HETATM   31  N   UNL     1       5.475  36.298  62.624  1.00  0.00    -0.062 NA
HETATM   32  C   UNL     1       5.105  37.474  62.071  1.00  0.00     0.089 A 
HETATM   33  C   UNL     1       3.970  37.551  61.290  1.00  0.00     0.053 A 
HETATM   34  C   UNL     1       3.254  36.389  61.131  1.00  0.00     0.139 A 
HETATM   35  N   UNL     1       3.606  35.214  61.677  1.00  0.00    -0.075 NA
BRANCH  32  36
HETATM   36  C   UNL     1       5.986  38.626  62.375  1.00  0.00     0.011 A 
HETATM   37  C   UNL     1       6.486  39.452  61.359  1.00  0.00     0.130 A 
HETATM   38  N   UNL     1       7.316  40.518  61.539  1.00  0.00    -0.272 NA
HETATM   39  C   UNL     1       7.671  40.796  62.806  1.00  0.00     0.116 A 
HETATM   40  C   UNL     1       7.240  40.065  63.895  1.00  0.00     0.020 A 
HETATM   41  C   UNL     1       6.395  38.974  63.674  1.00  0.00     0.017 A 
ENDBRANCH  32  36
ENDBRANCH  28  30
ENDBRANCH   3  28
TORSDOF 11
ENDMDL
MODEL 4
REMARK VINA RESULT:      -9.6      2.355      4.673
REMARK  11 active torsions:
REMARK  status: ('A' for Active; 'I' for Inactive)
REMARK    1  A    between atoms: C_3  and  N_4 
REMARK    2  A    between atoms: N_4  and  C_5 
REMARK    3  A    between atoms: C_7  and  C_8 
REMARK    4  A    between atoms: C_18  and  N_19 
REMARK       I    between atoms: N_19  and  C_20 
REMARK    5  A    between atoms: C_20  and  C_21 
REMARK    6  A    between atoms: C_22  and  C_23 
REMARK    7  A    between atoms: C_26  and  O_27 
REMARK    8  A    between atoms: O_27  and  C_28 
REMARK    9  A    between atoms: C_28  and  C_29 
REMARK   10  A    between atoms: C_29  and  C_30 
REMARK   11  A    between atoms: C_30  and  N_31 
ROOT
HETATM    1  C   UNL     1       3.664  28.340  52.205  1.00  0.00     0.050 C 
HETATM    2  C   UNL     1       4.228  28.610  53.575  1.00  0.00    -0.035 A 
HETATM    3  C   UNL     1       4.755  27.578  54.381  1.00  0.00     0.057 A 
HETATM    4  C   UNL     1       5.313  27.922  55.625  1.00  0.00     0.060 A 
HETATM    5  C   UNL     1       5.358  29.242  56.076  1.00  0.00     0.037 A 
HETATM    6  C   UNL     1       4.840  30.251  55.264  1.00  0.00     0.030 A 
HETATM    7  C   UNL     1       4.278  29.939  54.027  1.00  0.00     0.011 A 
ENDROOT
BRANCH   5   8
HETATM    8  N   UNL     1       5.932  29.632  57.305  1.00  0.00    -0.324 N 
HETATM    9  C   UNL     1       7.250  29.963  57.547  1.00  0.00     0.245 C 
HETATM   10  O   UNL     1       8.199  29.876  56.782  1.00  0.00    -0.268 OA
HETATM   11  H   UNL     1       5.289  29.674  58.082  1.00  0.00     0.169 HD
BRANCH   9  12
HETATM   12  C   UNL     1       7.432  30.453  58.940  1.00  0.00     0.075 C 
HETATM   13  C   UNL     1       7.043  31.688  59.288  1.00  0.00     0.017 C 
BRANCH  13  14
HETATM   14  C   UNL     1       7.222  32.128  60.668  1.00  0.00    -0.036 A 
HETATM   15  C   UNL     1       8.464  31.990  61.292  1.00  0.00     0.014 A 
HETATM   16  C   UNL     1       8.610  32.306  62.645  1.00  0.00     0.037 A 
HETATM   17  C   UNL     1       7.506  32.737  63.379  1.00  0.00     0.068 A 
HETATM   18  C   UNL     1       6.277  32.927  62.746  1.00  0.00     0.037 A 
HETATM   19  C   UNL     1       6.132  32.616  61.395  1.00  0.00     0.014 A 
BRANCH  17  20
HETATM   20  O   UNL     1       7.553  33.072  64.701  1.00  0.00    -0.351 OA
BRANCH  20  21
HETATM   21  C   UNL     1       6.460  33.854  65.187  1.00  0.00     0.177 C 
BRANCH  21  22
HETATM   22  C   UNL     1       6.620  33.969  66.701  1.00  0.00     0.054 C 
BRANCH  22  23
HETATM   23  C   UNL     1       5.484  34.797  67.297  1.00  0.00     0.236 C 
BRANCH  23  24
HETATM   24  N   UNL     1       5.616  34.912  68.802  1.00  0.00    -0.079 N 
HETATM   25  H   UNL     1       4.812  35.451  69.152  1.00  0.00     0.278 HD
HETATM   26  C   UNL     1       5.604  33.578  69.503  1.00  0.00     0.269 C 
HETATM   27  C   UNL     1       6.850  35.695  69.172  1.00  0.00     0.269 C 
ENDBRANCH  23  24
ENDBRANCH  22  23
ENDBRANCH  21  22
ENDBRANCH  20  21
ENDBRANCH  17  20
ENDBRANCH  13  14
ENDBRANCH   9  12
ENDBRANCH   5   8
BRANCH   3  28
HETATM   28  N   UNL     1       4.792  26.258  53.895  1.00  0.00    -0.188 N 
HETATM   29  H   UNL     1       4.020  25.664  54.154  1.00  0.00     0.184 HD
BRANCH  28  30
HETATM   30  C   UNL     1       5.849  25.460  53.462  1.00  0.00     0.727 A 
HETATM   31  N   UNL     1       6.274  24.413  54.187  1.00  0.00    -0.062 NA
HETATM   32  C   UNL     1       7.296  23.659  53.728  1.00  0.00     0.089 A 
HETATM   33  C   UNL     1       7.909  23.969  52.530  1.00  0.00     0.053 A 
HETATM   34  C   UNL     1       7.432  25.073  51.865  1.00  0.00     0.139 A 
HETATM   35  N   UNL     1       6.421  25.834  52.310  1.00  0.00    -0.075 NA
BRANCH  32  36
HETATM   36  C   UNL     1       7.691  22.523  54.595  1.00  0.00     0.011 A 
HETATM   37  C   UNL     1       7.929  22.698  55.965  1.00  0.00     0.130 A 
HETATM   38  N   UNL     1       8.313  21.722  56.834  1.00  0.00    -0.272 NA
HETATM   39  C   UNL     1       8.466  20.488  56.324  1.00  0.00     0.116 A 
HETATM   40  C   UNL     1       8.254  20.184  54.993  1.00  0.00     0.020 A 
HETATM   41  C   UNL     1       7.866  21.210  54.128  1.00  0.00     0.017 A 
ENDBRANCH  32  36
ENDBRANCH  28  30
ENDBRANCH   3  28
TORSDOF 11
ENDMDL
MODEL 5
REMARK VINA RESULT:      -9.5      1.732      2.673
REMARK  11 active torsions:
REMARK  status: ('A' for Active; 'I' for Inactive)
REMARK    1  A    between atoms: C_3  and  N_4 
REMARK    2  A    between atoms: N_4  and  C_5 
REMARK    3  A    between atoms: C_7  and  C_8 
REMARK    4  A    between atoms: C_18  and  N_19 
REMARK       I    between atoms: N_19  and  C_20 
REMARK    5  A    between atoms: C_20  and  C_21 
REMARK    6  A    between atoms: C_22  and  C_23 
REMARK    7  A    between atoms: C_26  and  O_27 
REMARK    8  A    between atoms: O_27  and  C_28 
REMARK    9  A    between atoms: C_28  and  C_29 
REMARK   10  A    between atoms: C_29  and  C_30 
REMARK   11  A    between atoms: C_30  and  N_31 
ROOT
HETATM    1  C   UNL     1       8.043  27.887  53.966  1.00  0.00     0.050 C 
HETATM    2  C   UNL     1       7.922  28.520  55.327  1.00  0.00    -0.035 A 
HETATM    3  C   UNL     1       6.793  28.312  56.148  1.00  0.00     0.057 A 
HETATM    4  C   UNL     1       6.782  28.894  57.428  1.00  0.00     0.060 A 
HETATM    5  C   UNL     1       7.846  29.663  57.901  1.00  0.00     0.037 A 
HETATM    6  C   UNL     1       8.958  29.852  57.080  1.00  0.00     0.030 A 
HETATM    7  C   UNL     1       8.996  29.289  55.805  1.00  0.00     0.011 A 
ENDROOT
BRANCH   5   8
HETATM    8  N   UNL     1       7.886  30.242  59.187  1.00  0.00    -0.324 N 
HETATM    9  C   UNL     1       8.481  31.432  59.553  1.00  0.00     0.245 C 
HETATM   10  O   UNL     1       9.184  32.161  58.868  1.00  0.00    -0.268 OA
HETATM   11  H   UNL     1       7.416  29.714  59.908  1.00  0.00     0.169 HD
BRANCH   9  12
HETATM   12  C   UNL     1       8.187  31.764  60.972  1.00  0.00     0.075 C 
HETATM   13  C   UNL     1       7.104  32.485  61.296  1.00  0.00     0.017 C 
BRANCH  13  14
HETATM   14  C   UNL     1       6.837  32.777  62.701  1.00  0.00    -0.036 A 
HETATM   15  C   UNL     1       5.522  32.919  63.150  1.00  0.00     0.014 A 
HETATM   16  C   UNL     1       5.266  33.308  64.467  1.00  0.00     0.037 A 
HETATM   17  C   UNL     1       6.329  33.578  65.329  1.00  0.00     0.068 A 
HETATM   18  C   UNL     1       7.642  33.384  64.900  1.00  0.00     0.037 A 
HETATM   19  C   UNL     1       7.898  32.992  63.586  1.00  0.00     0.014 A 
BRANCH  17  20
HETATM   20  O   UNL     1       6.178  33.958  66.630  1.00  0.00    -0.351 OA
BRANCH  20  21
HETATM   21  C   UNL     1       4.932  34.575  66.960  1.00  0.00     0.177 C 
BRANCH  21  22
HETATM   22  C   UNL     1       4.998  34.977  68.432  1.00  0.00     0.054 C 
BRANCH  22  23
HETATM   23  C   UNL     1       5.715  33.904  69.247  1.00  0.00     0.236 C 
BRANCH  23  24
HETATM   24  N   UNL     1       6.746  34.514  70.177  1.00  0.00    -0.079 N 
HETATM   25  H   UNL     1       7.406  33.774  70.450  1.00  0.00     0.278 HD
HETATM   26  C   UNL     1       7.546  35.617  69.533  1.00  0.00     0.269 C 
HETATM   27  C   UNL     1       6.097  35.001  71.447  1.00  0.00     0.269 C 
ENDBRANCH  23  24
ENDBRANCH  22  23
ENDBRANCH  21  22
ENDBRANCH  20  21
ENDBRANCH  17  20
ENDBRANCH  13  14
ENDBRANCH   9  12
ENDBRANCH   5   8
BRANCH   3  28
HETATM   28  N   UNL     1       5.754  27.467  55.712  1.00  0.00    -0.188 N 
HETATM   29  H   UNL     1       4.979  27.348  56.345  1.00  0.00     0.184 HD
BRANCH  28  30
HETATM   30  C   UNL     1       5.730  26.441  54.770  1.00  0.00     0.727 A 
HETATM   31  N   UNL     1       6.451  25.321  54.941  1.00  0.00    -0.062 NA
HETATM   32  C   UNL     1       6.393  24.346  54.008  1.00  0.00     0.089 A 
HETATM   33  C   UNL     1       5.611  24.503  52.881  1.00  0.00     0.053 A 
HETATM   34  C   UNL     1       4.928  25.690  52.770  1.00  0.00     0.139 A 
HETATM   35  N   UNL     1       4.979  26.670  53.685  1.00  0.00    -0.075 NA
BRANCH  32  36
HETATM   36  C   UNL     1       7.219  23.147  54.287  1.00  0.00     0.011 A 
HETATM   37  C   UNL     1       7.610  22.817  55.592  1.00  0.00     0.130 A 
HETATM   38  N   UNL     1       8.383  21.751  55.943  1.00  0.00    -0.272 NA
HETATM   39  C   UNL     1       8.791  20.949  54.944  1.00  0.00     0.116 A 
HETATM   40  C   UNL     1       8.466  21.161  53.618  1.00  0.00     0.020 A 
HETATM   41  C   UNL     1       7.678  22.267  53.293  1.00  0.00     0.017 A 
ENDBRANCH  32  36
ENDBRANCH  28  30
ENDBRANCH   3  28
TORSDOF 11
ENDMDL
MODEL 6
REMARK VINA RESULT:      -9.3      3.992     13.218
REMARK  11 active torsions:
REMARK  status: ('A' for Active; 'I' for Inactive)
REMARK    1  A    between atoms: C_3  and  N_4 
REMARK    2  A    between atoms: N_4  and  C_5 
REMARK    3  A    between atoms: C_7  and  C_8 
REMARK    4  A    between atoms: C_18  and  N_19 
REMARK       I    between atoms: N_19  and  C_20 
REMARK    5  A    between atoms: C_20  and  C_21 
REMARK    6  A    between atoms: C_22  and  C_23 
REMARK    7  A    between atoms: C_26  and  O_27 
REMARK    8  A    between atoms: O_27  and  C_28 
REMARK    9  A    between atoms: C_28  and  C_29 
REMARK   10  A    between atoms: C_29  and  C_30 
REMARK   11  A    between atoms: C_30  and  N_31 
ROOT
HETATM    1  C   UNL     1       7.287  33.879  65.045  1.00  0.00     0.050 C 
HETATM    2  C   UNL     1       7.239  33.165  63.721  1.00  0.00    -0.035 A 
HETATM    3  C   UNL     1       6.267  33.472  62.744  1.00  0.00     0.057 A 
HETATM    4  C   UNL     1       6.325  32.797  61.511  1.00  0.00     0.060 A 
HETATM    5  C   UNL     1       7.307  31.844  61.233  1.00  0.00     0.037 A 
HETATM    6  C   UNL     1       8.264  31.559  62.207  1.00  0.00     0.030 A 
HETATM    7  C   UNL     1       8.230  32.210  63.440  1.00  0.00     0.011 A 
ENDROOT
BRANCH   5   8
HETATM    8  N   UNL     1       7.415  31.165  60.002  1.00  0.00    -0.324 N 
HETATM    9  C   UNL     1       8.367  31.355  59.020  1.00  0.00     0.245 C 
HETATM   10  O   UNL     1       9.231  32.217  58.970  1.00  0.00    -0.268 OA
HETATM   11  H   UNL     1       6.711  30.460  59.839  1.00  0.00     0.169 HD
BRANCH   9  12
HETATM   12  C   UNL     1       8.223  30.350  57.933  1.00  0.00     0.075 C 
HETATM   13  C   UNL     1       7.962  29.066  58.217  1.00  0.00     0.017 C 
BRANCH  13  14
HETATM   14  C   UNL     1       7.810  28.112  57.123  1.00  0.00    -0.036 A 
HETATM   15  C   UNL     1       7.635  28.568  55.815  1.00  0.00     0.014 A 
HETATM   16  C   UNL     1       7.377  27.662  54.782  1.00  0.00     0.037 A 
HETATM   17  C   UNL     1       7.272  26.301  55.065  1.00  0.00     0.068 A 
HETATM   18  C   UNL     1       7.500  25.837  56.361  1.00  0.00     0.037 A 
HETATM   19  C   UNL     1       7.760  26.740  57.391  1.00  0.00     0.014 A 
BRANCH  17  20
HETATM   20  O   UNL     1       7.028  25.344  54.124  1.00  0.00    -0.351 OA
BRANCH  20  21
HETATM   21  C   UNL     1       7.878  25.365  52.976  1.00  0.00     0.177 C 
BRANCH  21  22
HETATM   22  C   UNL     1       7.797  23.988  52.322  1.00  0.00     0.054 C 
BRANCH  22  23
HETATM   23  C   UNL     1       7.556  22.910  53.376  1.00  0.00     0.236 C 
BRANCH  23  24
HETATM   24  N   UNL     1       8.782  22.037  53.563  1.00  0.00    -0.079 N 
HETATM   25  H   UNL     1       9.525  22.397  52.949  1.00  0.00     0.278 HD
HETATM   26  C   UNL     1       9.312  22.054  54.973  1.00  0.00     0.269 C 
HETATM   27  C   UNL     1       8.503  20.624  53.117  1.00  0.00     0.269 C 
ENDBRANCH  23  24
ENDBRANCH  22  23
ENDBRANCH  21  22
ENDBRANCH  20  21
ENDBRANCH  17  20
ENDBRANCH  13  14
ENDBRANCH   9  12
ENDBRANCH   5   8
BRANCH   3  28
HETATM   28  N   UNL     1       5.328  34.492  62.983  1.00  0.00    -0.188 N 
HETATM   29  H   UNL     1       4.386  34.196  63.184  1.00  0.00     0.184 HD
BRANCH  28  30
HETATM   30  C   UNL     1       5.310  35.837  62.619  1.00  0.00     0.727 A 
HETATM   31  N   UNL     1       4.879  36.225  61.408  1.00  0.00    -0.062 NA
HETATM   32  C   UNL     1       4.869  37.539  61.096  1.00  0.00     0.089 A 
HETATM   33  C   UNL     1       5.310  38.476  62.008  1.00  0.00     0.053 A 
HETATM   34  C   UNL     1       5.762  37.994  63.213  1.00  0.00     0.139 A 
HETATM   35  N   UNL     1       5.783  36.691  63.536  1.00  0.00    -0.075 NA
BRANCH  32  36
HETATM   36  C   UNL     1       4.371  37.869  59.739  1.00  0.00     0.011 A 
HETATM   37  C   UNL     1       3.954  36.868  58.851  1.00  0.00     0.130 A 
HETATM   38  N   UNL     1       3.502  37.072  57.582  1.00  0.00    -0.272 NA
HETATM   39  C   UNL     1       3.449  38.347  57.159  1.00  0.00     0.116 A 
HETATM   40  C   UNL     1       3.824  39.423  57.941  1.00  0.00     0.020 A 
HETATM   41  C   UNL     1       4.288  39.177  59.235  1.00  0.00     0.017 A 
ENDBRANCH  32  36
ENDBRANCH  28  30
ENDBRANCH   3  28
TORSDOF 11
ENDMDL
MODEL 7
REMARK VINA RESULT:      -9.2      3.761      6.230
REMARK  11 active torsions:
REMARK  status: ('A' for Active; 'I' for Inactive)
REMARK    1  A    between atoms: C_3  and  N_4 
REMARK    2  A    between atoms: N_4  and  C_5 
REMARK    3  A    between atoms: C_7  and  C_8 
REMARK    4  A    between atoms: C_18  and  N_19 
REMARK       I    between atoms: N_19  and  C_20 
REMARK    5  A    between atoms: C_20  and  C_21 
REMARK    6  A    between atoms: C_22  and  C_23 
REMARK    7  A    between atoms: C_26  and  O_27 
REMARK    8  A    between atoms: O_27  and  C_28 
REMARK    9  A    between atoms: C_28  and  C_29 
REMARK   10  A    between atoms: C_29  and  C_30 
REMARK   11  A    between atoms: C_30  and  N_31 
ROOT
HETATM    1  C   UNL     1       7.221  23.426  52.984  1.00  0.00     0.050 C 
HETATM    2  C   UNL     1       7.306  24.514  54.021  1.00  0.00    -0.035 A 
HETATM    3  C   UNL     1       7.182  25.879  53.681  1.00  0.00     0.057 A 
HETATM    4  C   UNL     1       7.217  26.830  54.716  1.00  0.00     0.060 A 
HETATM    5  C   UNL     1       7.370  26.463  56.054  1.00  0.00     0.037 A 
HETATM    6  C   UNL     1       7.483  25.110  56.373  1.00  0.00     0.030 A 
HETATM    7  C   UNL     1       7.455  24.145  55.368  1.00  0.00     0.011 A 
ENDROOT
BRANCH   5   8
HETATM    8  N   UNL     1       7.384  27.383  57.123  1.00  0.00    -0.324 N 
HETATM    9  C   UNL     1       8.286  28.404  57.340  1.00  0.00     0.245 C 
HETATM   10  O   UNL     1       9.311  28.645  56.718  1.00  0.00    -0.268 OA
HETATM   11  H   UNL     1       6.637  27.269  57.795  1.00  0.00     0.169 HD
BRANCH   9  12
HETATM   12  C   UNL     1       7.882  29.240  58.502  1.00  0.00     0.075 C 
HETATM   13  C   UNL     1       8.722  30.149  59.017  1.00  0.00     0.017 C 
BRANCH  13  14
HETATM   14  C   UNL     1       8.285  30.963  60.147  1.00  0.00    -0.036 A 
HETATM   15  C   UNL     1       7.239  31.876  59.989  1.00  0.00     0.014 A 
HETATM   16  C   UNL     1       6.892  32.735  61.036  1.00  0.00     0.037 A 
HETATM   17  C   UNL     1       7.609  32.696  62.231  1.00  0.00     0.068 A 
HETATM   18  C   UNL     1       8.617  31.749  62.410  1.00  0.00     0.037 A 
HETATM   19  C   UNL     1       8.962  30.889  61.368  1.00  0.00     0.014 A 
BRANCH  17  20
HETATM   20  O   UNL     1       7.340  33.491  63.307  1.00  0.00    -0.351 OA
BRANCH  20  21
HETATM   21  C   UNL     1       5.991  33.945  63.427  1.00  0.00     0.177 C 
BRANCH  21  22
HETATM   22  C   UNL     1       5.424  33.357  64.717  1.00  0.00     0.054 C 
BRANCH  22  23
HETATM   23  C   UNL     1       6.190  33.885  65.927  1.00  0.00     0.236 C 
BRANCH  23  24
HETATM   24  N   UNL     1       5.313  33.924  67.162  1.00  0.00    -0.079 N 
HETATM   25  H   UNL     1       5.121  32.954  67.447  1.00  0.00     0.278 HD
HETATM   26  C   UNL     1       5.963  34.619  68.330  1.00  0.00     0.269 C 
HETATM   27  C   UNL     1       3.977  34.550  66.848  1.00  0.00     0.269 C 
ENDBRANCH  23  24
ENDBRANCH  22  23
ENDBRANCH  21  22
ENDBRANCH  20  21
ENDBRANCH  17  20
ENDBRANCH  13  14
ENDBRANCH   9  12
ENDBRANCH   5   8
BRANCH   3  28
HETATM   28  N   UNL     1       6.940  26.250  52.345  1.00  0.00    -0.188 N 
HETATM   29  H   UNL     1       7.706  26.129  51.701  1.00  0.00     0.184 HD
BRANCH  28  30
HETATM   30  C   UNL     1       6.009  27.119  51.780  1.00  0.00     0.727 A 
HETATM   31  N   UNL     1       5.249  26.743  50.739  1.00  0.00    -0.062 NA
HETATM   32  C   UNL     1       4.351  27.611  50.224  1.00  0.00     0.089 A 
HETATM   33  C   UNL     1       4.224  28.880  50.754  1.00  0.00     0.053 A 
HETATM   34  C   UNL     1       5.059  29.194  51.800  1.00  0.00     0.139 A 
HETATM   35  N   UNL     1       5.959  28.344  52.319  1.00  0.00    -0.075 NA
BRANCH  32  36
HETATM   36  C   UNL     1       3.556  27.104  49.081  1.00  0.00     0.011 A 
HETATM   37  C   UNL     1       2.443  27.805  48.596  1.00  0.00     0.130 A 
HETATM   38  N   UNL     1       1.642  27.409  47.568  1.00  0.00    -0.272 NA
HETATM   39  C   UNL     1       1.962  26.249  46.969  1.00  0.00     0.116 A 
HETATM   40  C   UNL     1       3.038  25.469  47.346  1.00  0.00     0.020 A 
HETATM   41  C   UNL     1       3.835  25.902  48.409  1.00  0.00     0.017 A 
ENDBRANCH  32  36
ENDBRANCH  28  30
ENDBRANCH   3  28
TORSDOF 11
ENDMDL
MODEL 8
REMARK VINA RESULT:      -9.0      3.879     12.974
REMARK  11 active torsions:
REMARK  status: ('A' for Active; 'I' for Inactive)
REMARK    1  A    between atoms: C_3  and  N_4 
REMARK    2  A    between atoms: N_4  and  C_5 
REMARK    3  A    between atoms: C_7  and  C_8 
REMARK    4  A    between atoms: C_18  and  N_19 
REMARK       I    between atoms: N_19  and  C_20 
REMARK    5  A    between atoms: C_20  and  C_21 
REMARK    6  A    between atoms: C_22  and  C_23 
REMARK    7  A    between atoms: C_26  and  O_27 
REMARK    8  A    between atoms: O_27  and  C_28 
REMARK    9  A    between atoms: C_28  and  C_29 
REMARK   10  A    between atoms: C_29  and  C_30 
REMARK   11  A    between atoms: C_30  and  N_31 
ROOT
HETATM    1  C   UNL     1       7.181  33.838  65.051  1.00  0.00     0.050 C 
HETATM    2  C   UNL     1       7.191  33.060  63.762  1.00  0.00    -0.035 A 
HETATM    3  C   UNL     1       6.106  33.102  62.859  1.00  0.00     0.057 A 
HETATM    4  C   UNL     1       6.216  32.390  61.651  1.00  0.00     0.060 A 
HETATM    5  C   UNL     1       7.357  31.654  61.327  1.00  0.00     0.037 A 
HETATM    6  C   UNL     1       8.423  31.631  62.226  1.00  0.00     0.030 A 
HETATM    7  C   UNL     1       8.341  32.324  63.434  1.00  0.00     0.011 A 
ENDROOT
BRANCH   5   8
HETATM    8  N   UNL     1       7.518  30.949  60.115  1.00  0.00    -0.324 N 
HETATM    9  C   UNL     1       8.378  31.249  59.078  1.00  0.00     0.245 C 
HETATM   10  O   UNL     1       9.085  32.238  58.951  1.00  0.00    -0.268 OA
HETATM   11  H   UNL     1       6.933  30.132  60.016  1.00  0.00     0.169 HD
BRANCH   9  12
HETATM   12  C   UNL     1       8.351  30.188  58.036  1.00  0.00     0.075 C 
HETATM   13  C   UNL     1       7.328  29.324  57.965  1.00  0.00     0.017 C 
BRANCH  13  14
HETATM   14  C   UNL     1       7.327  28.307  56.917  1.00  0.00    -0.036 A 
HETATM   15  C   UNL     1       7.265  26.953  57.256  1.00  0.00     0.014 A 
HETATM   16  C   UNL     1       7.376  25.975  56.264  1.00  0.00     0.037 A 
HETATM   17  C   UNL     1       7.573  26.353  54.937  1.00  0.00     0.068 A 
HETATM   18  C   UNL     1       7.580  27.704  54.589  1.00  0.00     0.037 A 
HETATM   19  C   UNL     1       7.466  28.681  55.577  1.00  0.00     0.014 A 
BRANCH  17  20
HETATM   20  O   UNL     1       7.688  25.471  53.902  1.00  0.00    -0.351 OA
BRANCH  20  21
HETATM   21  C   UNL     1       6.612  24.544  53.750  1.00  0.00     0.177 C 
BRANCH  21  22
HETATM   22  C   UNL     1       7.224  23.185  53.416  1.00  0.00     0.054 C 
BRANCH  22  23
HETATM   23  C   UNL     1       7.813  22.542  54.668  1.00  0.00     0.236 C 
BRANCH  23  24
HETATM   24  N   UNL     1       7.728  21.030  54.605  1.00  0.00    -0.079 N 
HETATM   25  H   UNL     1       6.765  20.776  54.345  1.00  0.00     0.278 HD
HETATM   26  C   UNL     1       8.648  20.427  53.575  1.00  0.00     0.269 C 
HETATM   27  C   UNL     1       7.979  20.424  55.962  1.00  0.00     0.269 C 
ENDBRANCH  23  24
ENDBRANCH  22  23
ENDBRANCH  21  22
ENDBRANCH  20  21
ENDBRANCH  17  20
ENDBRANCH  13  14
ENDBRANCH   9  12
ENDBRANCH   5   8
BRANCH   3  28
HETATM   28  N   UNL     1       4.989  33.911  63.140  1.00  0.00    -0.188 N 
HETATM   29  H   UNL     1       4.593  33.823  64.062  1.00  0.00     0.184 HD
BRANCH  28  30
HETATM   30  C   UNL     1       4.057  34.524  62.305  1.00  0.00     0.727 A 
HETATM   31  N   UNL     1       4.414  35.515  61.473  1.00  0.00    -0.062 NA
HETATM   32  C   UNL     1       3.482  36.078  60.673  1.00  0.00     0.089 A 
HETATM   33  C   UNL     1       2.171  35.648  60.719  1.00  0.00     0.053 A 
HETATM   34  C   UNL     1       1.885  34.649  61.619  1.00  0.00     0.139 A 
HETATM   35  N   UNL     1       2.798  34.083  62.423  1.00  0.00    -0.075 NA
BRANCH  32  36
HETATM   36  C   UNL     1       3.972  37.159  59.786  1.00  0.00     0.011 A 
HETATM   37  C   UNL     1       4.112  38.475  60.248  1.00  0.00     0.130 A 
HETATM   38  N   UNL     1       4.534  39.536  59.504  1.00  0.00    -0.272 NA
HETATM   39  C   UNL     1       4.847  39.285  58.221  1.00  0.00     0.116 A 
HETATM   40  C   UNL     1       4.760  38.031  57.648  1.00  0.00     0.020 A 
HETATM   41  C   UNL     1       4.318  36.967  58.438  1.00  0.00     0.017 A 
ENDBRANCH  32  36
ENDBRANCH  28  30
ENDBRANCH   3  28
TORSDOF 11
ENDMDL
MODEL 9
REMARK VINA RESULT:      -9.0      1.932      2.659
REMARK  11 active torsions:
REMARK  status: ('A' for Active; 'I' for Inactive)
REMARK    1  A    between atoms: C_3  and  N_4 
REMARK    2  A    between atoms: N_4  and  C_5 
REMARK    3  A    between atoms: C_7  and  C_8 
REMARK    4  A    between atoms: C_18  and  N_19 
REMARK       I    between atoms: N_19  and  C_20 
REMARK    5  A    between atoms: C_20  and  C_21 
REMARK    6  A    between atoms: C_22  and  C_23 
REMARK    7  A    between atoms: C_26  and  O_27 
REMARK    8  A    between atoms: O_27  and  C_28 
REMARK    9  A    between atoms: C_28  and  C_29 
REMARK   10  A    between atoms: C_29  and  C_30 
REMARK   11  A    between atoms: C_30  and  N_31 
ROOT
HETATM    1  C   UNL     1       4.618  31.255  54.322  1.00  0.00     0.050 C 
HETATM    2  C   UNL     1       4.975  31.353  55.781  1.00  0.00    -0.035 A 
HETATM    3  C   UNL     1       5.679  30.326  56.446  1.00  0.00     0.057 A 
HETATM    4  C   UNL     1       6.021  30.518  57.797  1.00  0.00     0.060 A 
HETATM    5  C   UNL     1       5.687  31.685  58.486  1.00  0.00     0.037 A 
HETATM    6  C   UNL     1       4.999  32.693  57.811  1.00  0.00     0.030 A 
HETATM    7  C   UNL     1       4.642  32.529  56.473  1.00  0.00     0.011 A 
ENDROOT
BRANCH   5   8
HETATM    8  N   UNL     1       6.035  31.929  59.832  1.00  0.00    -0.324 N 
HETATM    9  C   UNL     1       7.253  32.358  60.319  1.00  0.00     0.245 C 
HETATM   10  O   UNL     1       8.299  32.503  59.703  1.00  0.00    -0.268 OA
HETATM   11  H   UNL     1       5.294  31.771  60.500  1.00  0.00     0.169 HD
BRANCH   9  12
HETATM   12  C   UNL     1       7.180  32.629  61.779  1.00  0.00     0.075 C 
HETATM   13  C   UNL     1       6.070  33.144  62.326  1.00  0.00     0.017 C 
BRANCH  13  14
HETATM   14  C   UNL     1       6.029  33.380  63.766  1.00  0.00    -0.036 A 
HETATM   15  C   UNL     1       4.801  33.497  64.422  1.00  0.00     0.014 A 
HETATM   16  C   UNL     1       4.757  33.834  65.778  1.00  0.00     0.037 A 
HETATM   17  C   UNL     1       5.943  34.077  66.470  1.00  0.00     0.068 A 
HETATM   18  C   UNL     1       7.172  33.908  65.831  1.00  0.00     0.037 A 
HETATM   19  C   UNL     1       7.216  33.568  64.480  1.00  0.00     0.014 A 
BRANCH  17  20
HETATM   20  O   UNL     1       5.999  34.406  67.793  1.00  0.00    -0.351 OA
BRANCH  20  21
HETATM   21  C   UNL     1       7.308  34.577  68.339  1.00  0.00     0.177 C 
BRANCH  21  22
HETATM   22  C   UNL     1       7.218  34.291  69.836  1.00  0.00     0.054 C 
BRANCH  22  23
HETATM   23  C   UNL     1       6.040  33.368  70.134  1.00  0.00     0.236 C 
BRANCH  23  24
HETATM   24  N   UNL     1       6.162  32.744  71.511  1.00  0.00    -0.079 N 
HETATM   25  H   UNL     1       5.249  32.342  71.760  1.00  0.00     0.278 HD
HETATM   26  C   UNL     1       7.177  31.633  71.571  1.00  0.00     0.269 C 
HETATM   27  C   UNL     1       6.463  33.797  72.548  1.00  0.00     0.269 C 
ENDBRANCH  23  24
ENDBRANCH  22  23
ENDBRANCH  21  22
ENDBRANCH  20  21
ENDBRANCH  17  20
ENDBRANCH  13  14
ENDBRANCH   9  12
ENDBRANCH   5   8
BRANCH   3  28
HETATM   28  N   UNL     1       6.095  29.185  55.735  1.00  0.00    -0.188 N 
HETATM   29  H   UNL     1       6.316  29.320  54.761  1.00  0.00     0.184 HD
BRANCH  28  30
HETATM   30  C   UNL     1       5.896  27.825  55.968  1.00  0.00     0.727 A 
HETATM   31  N   UNL     1       6.458  26.895  55.180  1.00  0.00    -0.062 NA
HETATM   32  C   UNL     1       6.248  25.586  55.444  1.00  0.00     0.089 A 
HETATM   33  C   UNL     1       5.451  25.208  56.505  1.00  0.00     0.053 A 
HETATM   34  C   UNL     1       4.890  26.223  57.244  1.00  0.00     0.139 A 
HETATM   35  N   UNL     1       5.086  27.527  56.991  1.00  0.00    -0.075 NA
BRANCH  32  36
HETATM   36  C   UNL     1       6.914  24.635  54.523  1.00  0.00     0.011 A 
HETATM   37  C   UNL     1       7.141  23.302  54.889  1.00  0.00     0.130 A 
HETATM   38  N   UNL     1       7.762  22.363  54.121  1.00  0.00    -0.272 NA
HETATM   39  C   UNL     1       8.180  22.760  52.906  1.00  0.00     0.116 A 
HETATM   40  C   UNL     1       8.008  24.043  52.425  1.00  0.00     0.020 A 
HETATM   41  C   UNL     1       7.373  24.982  53.242  1.00  0.00     0.017 A 
ENDBRANCH  32  36
ENDBRANCH  28  30
ENDBRANCH   3  28
TORSDOF 11
ENDMDL
MODEL 10
REMARK VINA RESULT:      -8.9      3.909      6.553
REMARK  11 active torsions:
REMARK  status: ('A' for Active; 'I' for Inactive)
REMARK    1  A    between atoms: C_3  and  N_4 
REMARK    2  A    between atoms: N_4  and  C_5 
REMARK    3  A    between atoms: C_7  and  C_8 
REMARK    4  A    between atoms: C_18  and  N_19 
REMARK       I    between atoms: N_19  and  C_20 
REMARK    5  A    between atoms: C_20  and  C_21 
REMARK    6  A    between atoms: C_22  and  C_23 
REMARK    7  A    between atoms: C_26  and  O_27 
REMARK    8  A    between atoms: O_27  and  C_28 
REMARK    9  A    between atoms: C_28  and  C_29 
REMARK   10  A    between atoms: C_29  and  C_30 
REMARK   11  A    between atoms: C_30  and  N_31 
ROOT
HETATM    1  C   UNL     1       7.135  23.720  53.564  1.00  0.00     0.050 C 
HETATM    2  C   UNL     1       7.135  24.878  54.527  1.00  0.00    -0.035 A 
HETATM    3  C   UNL     1       6.297  25.999  54.344  1.00  0.00     0.057 A 
HETATM    4  C   UNL     1       6.317  27.013  55.318  1.00  0.00     0.060 A 
HETATM    5  C   UNL     1       7.136  26.940  56.447  1.00  0.00     0.037 A 
HETATM    6  C   UNL     1       7.952  25.821  56.615  1.00  0.00     0.030 A 
HETATM    7  C   UNL     1       7.955  24.802  55.664  1.00  0.00     0.011 A 
ENDROOT
BRANCH   5   8
HETATM    8  N   UNL     1       7.167  27.922  57.459  1.00  0.00    -0.324 N 
HETATM    9  C   UNL     1       8.147  28.868  57.680  1.00  0.00     0.245 C 
HETATM   10  O   UNL     1       9.229  28.973  57.121  1.00  0.00    -0.268 OA
HETATM   11  H   UNL     1       6.370  27.921  58.080  1.00  0.00     0.169 HD
BRANCH   9  12
HETATM   12  C   UNL     1       7.749  29.810  58.760  1.00  0.00     0.075 C 
HETATM   13  C   UNL     1       8.663  30.310  59.604  1.00  0.00     0.017 C 
BRANCH  13  14
HETATM   14  C   UNL     1       8.238  31.245  60.641  1.00  0.00    -0.036 A 
HETATM   15  C   UNL     1       8.884  31.259  61.879  1.00  0.00     0.014 A 
HETATM   16  C   UNL     1       8.409  32.073  62.911  1.00  0.00     0.037 A 
HETATM   17  C   UNL     1       7.273  32.856  62.709  1.00  0.00     0.068 A 
HETATM   18  C   UNL     1       6.658  32.885  61.457  1.00  0.00     0.037 A 
HETATM   19  C   UNL     1       7.134  32.076  60.426  1.00  0.00     0.014 A 
BRANCH  17  20
HETATM   20  O   UNL     1       6.740  33.684  63.654  1.00  0.00    -0.351 OA
BRANCH  20  21
HETATM   21  C   UNL     1       5.434  33.341  64.120  1.00  0.00     0.177 C 
BRANCH  21  22
HETATM   22  C   UNL     1       4.554  34.580  63.966  1.00  0.00     0.054 C 
BRANCH  22  23
HETATM   23  C   UNL     1       5.333  35.838  64.343  1.00  0.00     0.236 C 
BRANCH  23  24
HETATM   24  N   UNL     1       5.763  36.610  63.111  1.00  0.00    -0.079 N 
HETATM   25  H   UNL     1       6.723  36.327  62.877  1.00  0.00     0.278 HD
HETATM   26  C   UNL     1       4.903  36.331  61.905  1.00  0.00     0.269 C 
HETATM   27  C   UNL     1       5.809  38.090  63.399  1.00  0.00     0.269 C 
ENDBRANCH  23  24
ENDBRANCH  22  23
ENDBRANCH  21  22
ENDBRANCH  20  21
ENDBRANCH  17  20
ENDBRANCH  13  14
ENDBRANCH   9  12
ENDBRANCH   5   8
BRANCH   3  28
HETATM   28  N   UNL     1       5.406  26.040  53.255  1.00  0.00    -0.188 N 
HETATM   29  H   UNL     1       4.997  25.161  52.978  1.00  0.00     0.184 HD
BRANCH  28  30
HETATM   30  C   UNL     1       5.256  26.955  52.216  1.00  0.00     0.727 A 
HETATM   31  N   UNL     1       4.531  26.658  51.126  1.00  0.00    -0.062 NA
HETATM   32  C   UNL     1       4.403  27.576  50.142  1.00  0.00     0.089 A 
HETATM   33  C   UNL     1       5.023  28.804  50.250  1.00  0.00     0.053 A 
HETATM   34  C   UNL     1       5.771  29.017  51.384  1.00  0.00     0.139 A 
HETATM   35  N   UNL     1       5.911  28.114  52.367  1.00  0.00    -0.075 NA
BRANCH  32  36
HETATM   36  C   UNL     1       3.579  27.158  48.983  1.00  0.00     0.011 A 
HETATM   37  C   UNL     1       4.073  26.269  48.019  1.00  0.00     0.130 A 
HETATM   38  N   UNL     1       3.400  25.845  46.912  1.00  0.00    -0.272 NA
HETATM   39  C   UNL     1       2.153  26.321  46.747  1.00  0.00     0.116 A 
HETATM   40  C   UNL     1       1.550  27.196  47.630  1.00  0.00     0.020 A 
HETATM   41  C   UNL     1       2.271  27.615  48.751  1.00  0.00     0.017 A 
ENDBRANCH  32  36
ENDBRANCH  28  30
ENDBRANCH   3  28
TORSDOF 11
ENDMDL
