MODEL 1
REMARK VINA RESULT:      -7.5      0.000      0.000
REMARK  8 active torsions:
REMARK  status: ('A' for Active; 'I' for Inactive)
REMARK    1  A    between atoms: C_2  and  O_3 
REMARK    2  A    between atoms: O_3  and  C_4 
REMARK       I    between atoms: C_4  and  N_5 
REMARK    3  A    between atoms: C_8  and  N_9 
REMARK       I    between atoms: N_9  and  C_10 
REMARK    4  A    between atoms: C_10  and  C_11 
REMARK    5  A    between atoms: C_12  and  C_13 
REMARK    6  A    between atoms: N_18  and  C_19 
REMARK    7  A    between atoms: C_19  and  C_20 
REMARK    8  A    between atoms: C_20  and  O_21 
ROOT
HETATM    1  C   UNL     1       4.789  27.956  49.658  1.00  0.00     0.139 C 
HETATM    2  C   UNL     1       4.589  29.316  50.365  1.00  0.00     0.145 C 
HETATM    3  N   UNL     1       3.228  29.528  50.877  1.00  0.00    -0.335 N 
HETATM    4  C   UNL     1       2.111  28.983  50.246  1.00  0.00     0.255 C 
HETATM    5  O   UNL     1       0.958  29.180  50.623  1.00  0.00    -0.267 OA
HETATM    6  C   UNL     1       2.336  28.085  49.081  1.00  0.00     0.039 A 
HETATM    7  C   UNL     1       3.607  27.566  48.807  1.00  0.00    -0.027 A 
HETATM    8  C   UNL     1       1.242  27.717  48.285  1.00  0.00     0.017 A 
HETATM    9  C   UNL     1       1.412  26.836  47.217  1.00  0.00     0.001 A 
HETATM   10  C   UNL     1       2.673  26.310  46.947  1.00  0.00     0.001 A 
HETATM   11  C   UNL     1       3.766  26.669  47.737  1.00  0.00     0.009 A 
ENDROOT
BRANCH   1  12
HETATM   12  C   UNL     1       5.151  26.931  50.727  1.00  0.00     0.229 C 
HETATM   13  N   UNL     1       5.660  27.509  51.883  1.00  0.00    -0.356 N 
HETATM   14  H   UNL     1       5.975  28.471  51.844  1.00  0.00     0.162 HD
HETATM   15  O   UNL     1       4.962  25.725  50.620  1.00  0.00    -0.273 OA
BRANCH  13  16
HETATM   16  C   UNL     1       5.978  26.722  53.070  1.00  0.00     0.087 C 
HETATM   17  C   UNL     1       7.476  26.712  53.382  1.00  0.00     0.045 C 
HETATM   18  C   UNL     1       7.965  28.051  53.920  1.00  0.00     0.130 C 
HETATM   19  N   UNL     1       7.136  28.542  55.018  1.00  0.00    -0.328 N 
HETATM   20  C   UNL     1       7.648  29.381  56.003  1.00  0.00     0.362 C 
HETATM   21  C   UNL     1       5.696  28.551  54.807  1.00  0.00     0.130 C 
HETATM   22  O   UNL     1       6.952  30.026  56.777  1.00  0.00    -0.238 OA
HETATM   23  C   UNL     1       5.182  27.216  54.280  1.00  0.00     0.045 C 
BRANCH  20  24
HETATM   24  O   UNL     1       9.008  29.400  56.016  1.00  0.00    -0.304 OA
BRANCH  24  25
HETATM   25  C   UNL     1       9.626  29.387  57.312  1.00  0.00     0.176 C 
HETATM   26  C   UNL     1      11.028  29.964  57.239  1.00  0.00     0.034 C 
ENDBRANCH  24  25
ENDBRANCH  20  24
ENDBRANCH  13  16
ENDBRANCH   1  12
BRANCH   2  27
HETATM   27  C   UNL     1       4.994  30.460  49.449  1.00  0.00     0.006 A 
HETATM   28  S   UNL     1       5.922  31.758  50.101  1.00  0.00    -0.104 SA
HETATM   29  C   UNL     1       6.000  32.552  48.592  1.00  0.00     0.050 A 
HETATM   30  C   UNL     1       5.326  31.863  47.610  1.00  0.00     0.008 A 
HETATM   31  C   UNL     1       4.746  30.659  48.103  1.00  0.00     0.017 A 
ENDBRANCH   2  27
BRANCH   3  32
HETATM   32  C   UNL     1       3.031  30.131  52.206  1.00  0.00     0.153 C 
BRANCH  32  33
HETATM   33  C   UNL     1       2.829  31.650  52.268  1.00  0.00     0.187 C 
BRANCH  33  34
HETATM   34  O   UNL     1       2.517  32.058  53.598  1.00  0.00    -0.394 OA
HETATM   35  C   UNL     1       3.112  31.201  54.563  1.00  0.00     0.201 C 
ENDBRANCH  33  34
ENDBRANCH  32  33
ENDBRANCH   3  32
TORSDOF 8
ENDMDL
MODEL 2
REMARK VINA RESULT:      -7.4      8.455     13.599
REMARK  8 active torsions:
REMARK  status: ('A' for Active; 'I' for Inactive)
REMARK    1  A    between atoms: C_2  and  O_3 
REMARK    2  A    between atoms: O_3  and  C_4 
REMARK       I    between atoms: C_4  and  N_5 
REMARK    3  A    between atoms: C_8  and  N_9 
REMARK       I    between atoms: N_9  and  C_10 
REMARK    4  A    between atoms: C_10  and  C_11 
REMARK    5  A    between atoms: C_12  and  C_13 
REMARK    6  A    between atoms: N_18  and  C_19 
REMARK    7  A    between atoms: C_19  and  C_20 
REMARK    8  A    between atoms: C_20  and  O_21 
ROOT
HETATM    1  C   UNL     1       5.376  35.979  62.776  1.00  0.00     0.139 C 
HETATM    2  C   UNL     1       5.222  34.681  61.951  1.00  0.00     0.145 C 
HETATM    3  N   UNL     1       3.915  34.028  62.102  1.00  0.00    -0.335 N 
HETATM    4  C   UNL     1       3.189  34.100  63.291  1.00  0.00     0.255 C 
HETATM    5  O   UNL     1       2.116  33.527  63.464  1.00  0.00    -0.267 OA
HETATM    6  C   UNL     1       3.728  34.949  64.387  1.00  0.00     0.039 A 
HETATM    7  C   UNL     1       4.754  35.871  64.146  1.00  0.00    -0.027 A 
HETATM    8  C   UNL     1       3.157  34.855  65.663  1.00  0.00     0.017 A 
HETATM    9  C   UNL     1       3.605  35.675  66.700  1.00  0.00     0.001 A 
HETATM   10  C   UNL     1       4.620  36.599  66.462  1.00  0.00     0.001 A 
HETATM   11  C   UNL     1       5.191  36.701  65.192  1.00  0.00     0.009 A 
ENDROOT
BRANCH   1  12
HETATM   12  C   UNL     1       4.828  37.127  61.934  1.00  0.00     0.229 C 
HETATM   13  N   UNL     1       4.545  36.753  60.627  1.00  0.00    -0.356 N 
HETATM   14  H   UNL     1       4.933  35.886  60.277  1.00  0.00     0.162 HD
HETATM   15  O   UNL     1       4.598  38.251  62.365  1.00  0.00    -0.273 OA
BRANCH  13  16
HETATM   16  C   UNL     1       3.919  37.667  59.676  1.00  0.00     0.087 C 
HETATM   17  C   UNL     1       4.313  37.365  58.229  1.00  0.00     0.045 C 
HETATM   18  C   UNL     1       3.661  36.090  57.705  1.00  0.00     0.130 C 
HETATM   19  N   UNL     1       2.220  36.068  57.942  1.00  0.00    -0.328 N 
HETATM   20  C   UNL     1       1.355  35.355  57.120  1.00  0.00     0.362 C 
HETATM   21  C   UNL     1       1.768  36.378  59.290  1.00  0.00     0.130 C 
HETATM   22  O   UNL     1       0.198  35.085  57.420  1.00  0.00    -0.238 OA
HETATM   23  C   UNL     1       2.397  37.657  59.831  1.00  0.00     0.045 C 
BRANCH  20  24
HETATM   24  O   UNL     1       1.931  34.997  55.941  1.00  0.00    -0.304 OA
BRANCH  24  25
HETATM   25  C   UNL     1       1.175  34.097  55.117  1.00  0.00     0.176 C 
HETATM   26  C   UNL     1       1.826  32.726  55.089  1.00  0.00     0.034 C 
ENDBRANCH  24  25
ENDBRANCH  20  24
ENDBRANCH  13  16
ENDBRANCH   1  12
BRANCH   2  27
HETATM   27  C   UNL     1       6.343  33.706  62.274  1.00  0.00     0.006 A 
HETATM   28  S   UNL     1       7.005  32.749  61.003  1.00  0.00    -0.104 SA
HETATM   29  C   UNL     1       8.127  32.005  62.054  1.00  0.00     0.050 A 
HETATM   30  C   UNL     1       8.000  32.455  63.348  1.00  0.00     0.008 A 
HETATM   31  C   UNL     1       6.971  33.434  63.476  1.00  0.00     0.017 A 
ENDBRANCH   2  27
BRANCH   3  32
HETATM   32  C   UNL     1       3.231  33.473  60.922  1.00  0.00     0.153 C 
BRANCH  32  33
HETATM   33  C   UNL     1       3.471  31.994  60.598  1.00  0.00     0.187 C 
BRANCH  33  34
HETATM   34  O   UNL     1       3.068  31.703  59.262  1.00  0.00    -0.394 OA
HETATM   35  C   UNL     1       3.876  32.382  58.311  1.00  0.00     0.201 C 
ENDBRANCH  33  34
ENDBRANCH  32  33
ENDBRANCH   3  32
TORSDOF 8
ENDMDL
MODEL 3
REMARK VINA RESULT:      -7.0      2.036      2.353
REMARK  8 active torsions:
REMARK  status: ('A' for Active; 'I' for Inactive)
REMARK    1  A    between atoms: C_2  and  O_3 
REMARK    2  A    between atoms: O_3  and  C_4 
REMARK       I    between atoms: C_4  and  N_5 
REMARK    3  A    between atoms: C_8  and  N_9 
REMARK       I    between atoms: N_9  and  C_10 
REMARK    4  A    between atoms: C_10  and  C_11 
REMARK    5  A    between atoms: C_12  and  C_13 
REMARK    6  A    between atoms: N_18  and  C_19 
REMARK    7  A    between atoms: C_19  and  C_20 
REMARK    8  A    between atoms: C_20  and  O_21 
ROOT
HETATM    1  C   UNL     1       4.718  27.881  49.648  1.00  0.00     0.139 C 
HETATM    2  C   UNL     1       4.704  28.858  50.846  1.00  0.00     0.145 C 
HETATM    3  N   UNL     1       3.402  28.959  51.520  1.00  0.00    -0.335 N 
HETATM    4  C   UNL     1       2.201  28.803  50.828  1.00  0.00     0.255 C 
HETATM    5  O   UNL     1       1.098  28.926  51.354  1.00  0.00    -0.267 OA
HETATM    6  C   UNL     1       2.268  28.428  49.390  1.00  0.00     0.039 A 
HETATM    7  C   UNL     1       3.459  27.959  48.822  1.00  0.00    -0.027 A 
HETATM    8  C   UNL     1       1.102  28.497  48.615  1.00  0.00     0.017 A 
HETATM    9  C   UNL     1       1.120  28.104  47.277  1.00  0.00     0.001 A 
HETATM   10  C   UNL     1       2.301  27.629  46.710  1.00  0.00     0.001 A 
HETATM   11  C   UNL     1       3.465  27.553  47.477  1.00  0.00     0.009 A 
ENDROOT
BRANCH   1  12
HETATM   12  C   UNL     1       5.018  26.489  50.194  1.00  0.00     0.229 C 
HETATM   13  N   UNL     1       6.110  26.466  51.050  1.00  0.00    -0.356 N 
HETATM   14  H   UNL     1       6.742  27.258  51.050  1.00  0.00     0.162 HD
HETATM   15  O   UNL     1       4.339  25.495  49.963  1.00  0.00    -0.273 OA
BRANCH  13  16
HETATM   16  C   UNL     1       6.514  25.259  51.765  1.00  0.00     0.087 C 
HETATM   17  C   UNL     1       7.799  25.457  52.571  1.00  0.00     0.045 C 
HETATM   18  C   UNL     1       7.581  26.327  53.804  1.00  0.00     0.130 C 
HETATM   19  N   UNL     1       6.444  25.878  54.604  1.00  0.00    -0.328 N 
HETATM   20  C   UNL     1       6.377  26.108  55.973  1.00  0.00     0.362 C 
HETATM   21  C   UNL     1       5.194  25.636  53.899  1.00  0.00     0.130 C 
HETATM   22  O   UNL     1       5.351  25.997  56.633  1.00  0.00    -0.238 OA
HETATM   23  C   UNL     1       5.385  24.757  52.668  1.00  0.00     0.045 C 
BRANCH  20  24
HETATM   24  O   UNL     1       7.579  26.463  56.502  1.00  0.00    -0.304 OA
BRANCH  24  25
HETATM   25  C   UNL     1       8.040  25.672  57.607  1.00  0.00     0.176 C 
HETATM   26  C   UNL     1       8.806  24.459  57.110  1.00  0.00     0.034 C 
ENDBRANCH  24  25
ENDBRANCH  20  24
ENDBRANCH  13  16
ENDBRANCH   1  12
BRANCH   2  27
HETATM   27  C   UNL     1       5.187  30.235  50.419  1.00  0.00     0.006 A 
HETATM   28  S   UNL     1       4.558  31.623  51.224  1.00  0.00    -0.104 SA
HETATM   29  C   UNL     1       5.518  32.685  50.292  1.00  0.00     0.050 A 
HETATM   30  C   UNL     1       6.291  32.010  49.374  1.00  0.00     0.008 A 
HETATM   31  C   UNL     1       6.100  30.600  49.446  1.00  0.00     0.017 A 
ENDBRANCH   2  27
BRANCH   3  32
HETATM   32  C   UNL     1       3.339  28.996  52.990  1.00  0.00     0.153 C 
BRANCH  32  33
HETATM   33  C   UNL     1       4.668  29.030  53.753  1.00  0.00     0.187 C 
BRANCH  33  34
HETATM   34  O   UNL     1       4.664  30.077  54.720  1.00  0.00    -0.394 OA
HETATM   35  C   UNL     1       5.039  29.605  56.006  1.00  0.00     0.201 C 
ENDBRANCH  33  34
ENDBRANCH  32  33
ENDBRANCH   3  32
TORSDOF 8
ENDMDL
MODEL 4
REMARK VINA RESULT:      -6.7      9.048     13.608
REMARK  8 active torsions:
REMARK  status: ('A' for Active; 'I' for Inactive)
REMARK    1  A    between atoms: C_2  and  O_3 
REMARK    2  A    between atoms: O_3  and  C_4 
REMARK       I    between atoms: C_4  and  N_5 
REMARK    3  A    between atoms: C_8  and  N_9 
REMARK       I    between atoms: N_9  and  C_10 
REMARK    4  A    between atoms: C_10  and  C_11 
REMARK    5  A    between atoms: C_12  and  C_13 
REMARK    6  A    between atoms: N_18  and  C_19 
REMARK    7  A    between atoms: C_19  and  C_20 
REMARK    8  A    between atoms: C_20  and  O_21 
ROOT
HETATM    1  C   UNL     1       5.024  36.079  62.592  1.00  0.00     0.139 C 
HETATM    2  C   UNL     1       4.796  34.777  61.792  1.00  0.00     0.145 C 
HETATM    3  N   UNL     1       3.529  34.100  62.101  1.00  0.00    -0.335 N 
HETATM    4  C   UNL     1       2.952  34.162  63.369  1.00  0.00     0.255 C 
HETATM    5  O   UNL     1       1.919  33.569  63.672  1.00  0.00    -0.267 OA
HETATM    6  C   UNL     1       3.604  35.024  64.391  1.00  0.00     0.039 A 
HETATM    7  C   UNL     1       4.576  35.964  64.027  1.00  0.00    -0.027 A 
HETATM    8  C   UNL     1       3.193  34.923  65.728  1.00  0.00     0.017 A 
HETATM    9  C   UNL     1       3.749  35.753  66.701  1.00  0.00     0.001 A 
HETATM   10  C   UNL     1       4.709  36.696  66.342  1.00  0.00     0.001 A 
HETATM   11  C   UNL     1       5.121  36.804  65.012  1.00  0.00     0.009 A 
ENDROOT
BRANCH   1  12
HETATM   12  C   UNL     1       4.357  37.214  61.822  1.00  0.00     0.229 C 
HETATM   13  N   UNL     1       4.637  37.186  60.463  1.00  0.00    -0.356 N 
HETATM   14  H   UNL     1       5.411  36.617  60.140  1.00  0.00     0.162 HD
HETATM   15  O   UNL     1       3.600  38.038  62.323  1.00  0.00    -0.273 OA
BRANCH  13  16
HETATM   16  C   UNL     1       4.023  38.118  59.522  1.00  0.00     0.087 C 
HETATM   17  C   UNL     1       4.935  39.301  59.192  1.00  0.00     0.045 C 
HETATM   18  C   UNL     1       6.106  38.900  58.303  1.00  0.00     0.130 C 
HETATM   19  N   UNL     1       5.678  38.139  57.133  1.00  0.00    -0.328 N 
HETATM   20  C   UNL     1       6.407  38.146  55.948  1.00  0.00     0.362 C 
HETATM   21  C   UNL     1       4.781  37.016  57.366  1.00  0.00     0.130 C 
HETATM   22  O   UNL     1       6.246  37.334  55.045  1.00  0.00    -0.238 OA
HETATM   23  C   UNL     1       3.594  37.397  58.242  1.00  0.00     0.045 C 
BRANCH  20  24
HETATM   24  O   UNL     1       7.313  39.158  55.900  1.00  0.00    -0.304 OA
BRANCH  24  25
HETATM   25  C   UNL     1       7.902  39.416  54.617  1.00  0.00     0.176 C 
HETATM   26  C   UNL     1       9.416  39.352  54.703  1.00  0.00     0.034 C 
ENDBRANCH  24  25
ENDBRANCH  20  24
ENDBRANCH  13  16
ENDBRANCH   1  12
BRANCH   2  27
HETATM   27  C   UNL     1       5.966  33.823  61.978  1.00  0.00     0.006 A 
HETATM   28  S   UNL     1       6.359  32.731  60.704  1.00  0.00    -0.104 SA
HETATM   29  C   UNL     1       7.678  32.083  61.572  1.00  0.00     0.050 A 
HETATM   30  C   UNL     1       7.816  32.665  62.812  1.00  0.00     0.008 A 
HETATM   31  C   UNL     1       6.829  33.666  63.046  1.00  0.00     0.017 A 
ENDBRANCH   2  27
BRANCH   3  32
HETATM   32  C   UNL     1       2.718  33.530  61.013  1.00  0.00     0.153 C 
BRANCH  32  33
HETATM   33  C   UNL     1       2.960  34.066  59.598  1.00  0.00     0.187 C 
BRANCH  33  34
HETATM   34  O   UNL     1       2.994  32.995  58.656  1.00  0.00    -0.394 OA
HETATM   35  C   UNL     1       3.948  33.231  57.629  1.00  0.00     0.201 C 
ENDBRANCH  33  34
ENDBRANCH  32  33
ENDBRANCH   3  32
TORSDOF 8
ENDMDL
MODEL 5
REMARK VINA RESULT:      -6.4     10.644     14.455
REMARK  8 active torsions:
REMARK  status: ('A' for Active; 'I' for Inactive)
REMARK    1  A    between atoms: C_2  and  O_3 
REMARK    2  A    between atoms: O_3  and  C_4 
REMARK       I    between atoms: C_4  and  N_5 
REMARK    3  A    between atoms: C_8  and  N_9 
REMARK       I    between atoms: N_9  and  C_10 
REMARK    4  A    between atoms: C_10  and  C_11 
REMARK    5  A    between atoms: C_12  and  C_13 
REMARK    6  A    between atoms: N_18  and  C_19 
REMARK    7  A    between atoms: C_19  and  C_20 
REMARK    8  A    between atoms: C_20  and  O_21 
ROOT
HETATM    1  C   UNL     1       4.320  37.819  61.771  1.00  0.00     0.139 C 
HETATM    2  C   UNL     1       3.795  38.152  60.357  1.00  0.00     0.145 C 
HETATM    3  N   UNL     1       4.853  38.447  59.381  1.00  0.00    -0.335 N 
HETATM    4  C   UNL     1       6.055  39.046  59.757  1.00  0.00     0.255 C 
HETATM    5  O   UNL     1       6.939  39.346  58.959  1.00  0.00    -0.267 OA
HETATM    6  C   UNL     1       6.288  39.292  61.206  1.00  0.00     0.039 A 
HETATM    7  C   UNL     1       5.483  38.688  62.178  1.00  0.00    -0.027 A 
HETATM    8  C   UNL     1       7.367  40.099  61.592  1.00  0.00     0.017 A 
HETATM    9  C   UNL     1       7.644  40.308  62.944  1.00  0.00     0.001 A 
HETATM   10  C   UNL     1       6.850  39.701  63.914  1.00  0.00     0.001 A 
HETATM   11  C   UNL     1       5.776  38.894  63.537  1.00  0.00     0.009 A 
ENDROOT
BRANCH   1  12
HETATM   12  C   UNL     1       4.618  36.323  61.810  1.00  0.00     0.229 C 
HETATM   13  N   UNL     1       4.959  35.871  63.077  1.00  0.00    -0.356 N 
HETATM   14  H   UNL     1       5.221  36.552  63.780  1.00  0.00     0.162 HD
HETATM   15  O   UNL     1       4.513  35.573  60.847  1.00  0.00    -0.273 OA
BRANCH  13  16
HETATM   16  C   UNL     1       5.187  34.458  63.363  1.00  0.00     0.087 C 
HETATM   17  C   UNL     1       6.501  34.216  64.109  1.00  0.00     0.045 C 
HETATM   18  C   UNL     1       6.438  34.682  65.559  1.00  0.00     0.130 C 
HETATM   19  N   UNL     1       5.260  34.169  66.254  1.00  0.00    -0.328 N 
HETATM   20  C   UNL     1       5.251  33.970  67.631  1.00  0.00     0.362 C 
HETATM   21  C   UNL     1       3.976  34.333  65.589  1.00  0.00     0.130 C 
HETATM   22  O   UNL     1       4.231  33.803  68.288  1.00  0.00    -0.238 OA
HETATM   23  C   UNL     1       4.011  33.862  64.140  1.00  0.00     0.045 C 
BRANCH  20  24
HETATM   24  O   UNL     1       6.502  33.973  68.166  1.00  0.00    -0.304 OA
BRANCH  24  25
HETATM   25  C   UNL     1       6.780  35.017  69.111  1.00  0.00     0.176 C 
HETATM   26  C   UNL     1       8.177  34.858  69.684  1.00  0.00     0.034 C 
ENDBRANCH  24  25
ENDBRANCH  20  24
ENDBRANCH  13  16
ENDBRANCH   1  12
BRANCH   2  27
HETATM   27  C   UNL     1       2.793  39.295  60.414  1.00  0.00     0.006 A 
HETATM   28  S   UNL     1       1.829  39.627  59.024  1.00  0.00    -0.104 SA
HETATM   29  C   UNL     1       1.011  40.903  59.809  1.00  0.00     0.050 A 
HETATM   30  C   UNL     1       1.464  41.092  61.095  1.00  0.00     0.008 A 
HETATM   31  C   UNL     1       2.491  40.168  61.443  1.00  0.00     0.017 A 
ENDBRANCH   2  27
BRANCH   3  32
HETATM   32  C   UNL     1       4.762  37.905  58.015  1.00  0.00     0.153 C 
BRANCH  32  33
HETATM   33  C   UNL     1       3.866  36.679  57.801  1.00  0.00     0.187 C 
BRANCH  33  34
HETATM   34  O   UNL     1       4.626  35.588  57.286  1.00  0.00    -0.394 OA
HETATM   35  C   UNL     1       5.159  35.880  56.002  1.00  0.00     0.201 C 
ENDBRANCH  33  34
ENDBRANCH  32  33
ENDBRANCH   3  32
TORSDOF 8
ENDMDL
MODEL 6
REMARK VINA RESULT:      -6.4      2.635      3.865
REMARK  8 active torsions:
REMARK  status: ('A' for Active; 'I' for Inactive)
REMARK    1  A    between atoms: C_2  and  O_3 
REMARK    2  A    between atoms: O_3  and  C_4 
REMARK       I    between atoms: C_4  and  N_5 
REMARK    3  A    between atoms: C_8  and  N_9 
REMARK       I    between atoms: N_9  and  C_10 
REMARK    4  A    between atoms: C_10  and  C_11 
REMARK    5  A    between atoms: C_12  and  C_13 
REMARK    6  A    between atoms: N_18  and  C_19 
REMARK    7  A    between atoms: C_19  and  C_20 
REMARK    8  A    between atoms: C_20  and  O_21 
ROOT
HETATM    1  C   UNL     1       4.534  28.870  50.386  1.00  0.00     0.139 C 
HETATM    2  C   UNL     1       3.994  30.317  50.434  1.00  0.00     0.145 C 
HETATM    3  N   UNL     1       2.564  30.432  50.119  1.00  0.00    -0.335 N 
HETATM    4  C   UNL     1       1.933  29.559  49.233  1.00  0.00     0.255 C 
HETATM    5  O   UNL     1       0.750  29.657  48.915  1.00  0.00    -0.267 OA
HETATM    6  C   UNL     1       2.728  28.430  48.680  1.00  0.00     0.039 A 
HETATM    7  C   UNL     1       3.960  28.074  49.241  1.00  0.00    -0.027 A 
HETATM    8  C   UNL     1       2.202  27.685  47.616  1.00  0.00     0.017 A 
HETATM    9  C   UNL     1       2.900  26.589  47.108  1.00  0.00     0.001 A 
HETATM   10  C   UNL     1       4.121  26.226  47.670  1.00  0.00     0.001 A 
HETATM   11  C   UNL     1       4.650  26.961  48.732  1.00  0.00     0.009 A 
ENDROOT
BRANCH   1  12
HETATM   12  C   UNL     1       4.297  28.246  51.758  1.00  0.00     0.229 C 
HETATM   13  N   UNL     1       5.320  27.393  52.150  1.00  0.00    -0.356 N 
HETATM   14  H   UNL     1       5.973  27.066  51.448  1.00  0.00     0.162 HD
HETATM   15  O   UNL     1       3.340  28.505  52.479  1.00  0.00    -0.273 OA
BRANCH  13  16
HETATM   16  C   UNL     1       5.347  26.766  53.468  1.00  0.00     0.087 C 
HETATM   17  C   UNL     1       4.758  25.354  53.457  1.00  0.00     0.045 C 
HETATM   18  C   UNL     1       5.672  24.350  52.765  1.00  0.00     0.130 C 
HETATM   19  N   UNL     1       7.043  24.414  53.264  1.00  0.00    -0.328 N 
HETATM   20  C   UNL     1       7.886  23.309  53.231  1.00  0.00     0.362 C 
HETATM   21  C   UNL     1       7.660  25.731  53.334  1.00  0.00     0.130 C 
HETATM   22  O   UNL     1       9.100  23.373  53.382  1.00  0.00    -0.238 OA
HETATM   23  C   UNL     1       6.769  26.750  54.034  1.00  0.00     0.045 C 
BRANCH  20  24
HETATM   24  O   UNL     1       7.213  22.146  53.021  1.00  0.00    -0.304 OA
BRANCH  24  25
HETATM   25  C   UNL     1       7.932  20.939  53.317  1.00  0.00     0.176 C 
HETATM   26  C   UNL     1       7.803  20.590  54.788  1.00  0.00     0.034 C 
ENDBRANCH  24  25
ENDBRANCH  20  24
ENDBRANCH  13  16
ENDBRANCH   1  12
BRANCH   2  27
HETATM   27  C   UNL     1       4.811  31.222  49.524  1.00  0.00     0.006 A 
HETATM   28  S   UNL     1       4.149  31.685  48.001  1.00  0.00    -0.104 SA
HETATM   29  C   UNL     1       5.515  32.636  47.619  1.00  0.00     0.050 A 
HETATM   30  C   UNL     1       6.466  32.597  48.613  1.00  0.00     0.008 A 
HETATM   31  C   UNL     1       6.061  31.782  49.710  1.00  0.00     0.017 A 
ENDBRANCH   2  27
BRANCH   3  32
HETATM   32  C   UNL     1       1.708  31.329  50.913  1.00  0.00     0.153 C 
BRANCH  32  33
HETATM   33  C   UNL     1       1.727  32.820  50.555  1.00  0.00     0.187 C 
BRANCH  33  34
HETATM   34  O   UNL     1       1.883  33.614  51.729  1.00  0.00    -0.394 OA
HETATM   35  C   UNL     1       2.393  32.851  52.814  1.00  0.00     0.201 C 
ENDBRANCH  33  34
ENDBRANCH  32  33
ENDBRANCH   3  32
TORSDOF 8
ENDMDL
MODEL 7
REMARK VINA RESULT:      -6.3      7.889     12.763
REMARK  8 active torsions:
REMARK  status: ('A' for Active; 'I' for Inactive)
REMARK    1  A    between atoms: C_2  and  O_3 
REMARK    2  A    between atoms: O_3  and  C_4 
REMARK       I    between atoms: C_4  and  N_5 
REMARK    3  A    between atoms: C_8  and  N_9 
REMARK       I    between atoms: N_9  and  C_10 
REMARK    4  A    between atoms: C_10  and  C_11 
REMARK    5  A    between atoms: C_12  and  C_13 
REMARK    6  A    between atoms: N_18  and  C_19 
REMARK    7  A    between atoms: C_19  and  C_20 
REMARK    8  A    between atoms: C_20  and  O_21 
ROOT
HETATM    1  C   UNL     1       5.250  35.589  61.576  1.00  0.00     0.139 C 
HETATM    2  C   UNL     1       5.032  34.061  61.500  1.00  0.00     0.145 C 
HETATM    3  N   UNL     1       3.923  33.573  62.330  1.00  0.00    -0.335 N 
HETATM    4  C   UNL     1       3.572  34.194  63.529  1.00  0.00     0.255 C 
HETATM    5  O   UNL     1       2.680  33.784  64.267  1.00  0.00    -0.267 OA
HETATM    6  C   UNL     1       4.292  35.441  63.906  1.00  0.00     0.039 A 
HETATM    7  C   UNL     1       5.074  36.131  62.972  1.00  0.00    -0.027 A 
HETATM    8  C   UNL     1       4.135  35.951  65.202  1.00  0.00     0.017 A 
HETATM    9  C   UNL     1       4.755  37.145  65.570  1.00  0.00     0.001 A 
HETATM   10  C   UNL     1       5.527  37.839  64.642  1.00  0.00     0.001 A 
HETATM   11  C   UNL     1       5.685  37.339  63.348  1.00  0.00     0.009 A 
ENDROOT
BRANCH   1  12
HETATM   12  C   UNL     1       4.336  36.236  60.539  1.00  0.00     0.229 C 
HETATM   13  N   UNL     1       4.320  35.554  59.330  1.00  0.00    -0.356 N 
HETATM   14  H   UNL     1       5.054  34.880  59.145  1.00  0.00     0.162 HD
HETATM   15  O   UNL     1       3.635  37.218  60.753  1.00  0.00    -0.273 OA
BRANCH  13  16
HETATM   16  C   UNL     1       3.440  35.939  58.231  1.00  0.00     0.087 C 
HETATM   17  C   UNL     1       4.053  37.023  57.343  1.00  0.00     0.045 C 
HETATM   18  C   UNL     1       5.190  36.490  56.479  1.00  0.00     0.130 C 
HETATM   19  N   UNL     1       4.815  35.276  55.758  1.00  0.00    -0.328 N 
HETATM   20  C   UNL     1       5.409  34.931  54.549  1.00  0.00     0.362 C 
HETATM   21  C   UNL     1       4.195  34.212  56.533  1.00  0.00     0.130 C 
HETATM   22  O   UNL     1       5.331  33.816  54.046  1.00  0.00    -0.238 OA
HETATM   23  C   UNL     1       3.046  34.719  57.396  1.00  0.00     0.045 C 
BRANCH  20  24
HETATM   24  O   UNL     1       6.079  35.969  53.981  1.00  0.00    -0.304 OA
BRANCH  24  25
HETATM   25  C   UNL     1       7.167  35.618  53.114  1.00  0.00     0.176 C 
HETATM   26  C   UNL     1       8.189  36.740  53.061  1.00  0.00     0.034 C 
ENDBRANCH  24  25
ENDBRANCH  20  24
ENDBRANCH  13  16
ENDBRANCH   1  12
BRANCH   2  27
HETATM   27  C   UNL     1       6.316  33.321  61.843  1.00  0.00     0.006 A 
HETATM   28  S   UNL     1       7.122  32.436  60.602  1.00  0.00    -0.104 SA
HETATM   29  C   UNL     1       8.375  31.961  61.660  1.00  0.00     0.050 A 
HETATM   30  C   UNL     1       8.187  32.444  62.934  1.00  0.00     0.008 A 
HETATM   31  C   UNL     1       7.000  33.227  63.040  1.00  0.00     0.017 A 
ENDBRANCH   2  27
BRANCH   3  32
HETATM   32  C   UNL     1       3.003  32.554  61.799  1.00  0.00     0.153 C 
BRANCH  32  33
HETATM   33  C   UNL     1       3.555  31.587  60.745  1.00  0.00     0.187 C 
BRANCH  33  34
HETATM   34  O   UNL     1       3.020  31.891  59.459  1.00  0.00    -0.394 OA
HETATM   35  C   UNL     1       3.564  31.048  58.452  1.00  0.00     0.201 C 
ENDBRANCH  33  34
ENDBRANCH  32  33
ENDBRANCH   3  32
TORSDOF 8
ENDMDL
MODEL 8
REMARK VINA RESULT:      -6.3      2.118      2.915
REMARK  8 active torsions:
REMARK  status: ('A' for Active; 'I' for Inactive)
REMARK    1  A    between atoms: C_2  and  O_3 
REMARK    2  A    between atoms: O_3  and  C_4 
REMARK       I    between atoms: C_4  and  N_5 
REMARK    3  A    between atoms: C_8  and  N_9 
REMARK       I    between atoms: N_9  and  C_10 
REMARK    4  A    between atoms: C_10  and  C_11 
REMARK    5  A    between atoms: C_12  and  C_13 
REMARK    6  A    between atoms: N_18  and  C_19 
REMARK    7  A    between atoms: C_19  and  C_20 
REMARK    8  A    between atoms: C_20  and  O_21 
ROOT
HETATM    1  C   UNL     1       4.550  29.809  51.654  1.00  0.00     0.139 C 
HETATM    2  C   UNL     1       3.975  31.184  51.248  1.00  0.00     0.145 C 
HETATM    3  N   UNL     1       2.647  31.116  50.621  1.00  0.00    -0.335 N 
HETATM    4  C   UNL     1       2.253  30.023  49.850  1.00  0.00     0.255 C 
HETATM    5  O   UNL     1       1.169  29.956  49.276  1.00  0.00    -0.267 OA
HETATM    6  C   UNL     1       3.182  28.864  49.756  1.00  0.00     0.039 A 
HETATM    7  C   UNL     1       4.267  28.737  50.632  1.00  0.00    -0.027 A 
HETATM    8  C   UNL     1       2.926  27.863  48.808  1.00  0.00     0.017 A 
HETATM    9  C   UNL     1       3.748  26.739  48.729  1.00  0.00     0.001 A 
HETATM   10  C   UNL     1       4.823  26.605  49.605  1.00  0.00     0.001 A 
HETATM   11  C   UNL     1       5.082  27.596  50.553  1.00  0.00     0.009 A 
ENDROOT
BRANCH   1  12
HETATM   12  C   UNL     1       4.029  29.488  53.051  1.00  0.00     0.229 C 
HETATM   13  N   UNL     1       4.825  30.013  54.060  1.00  0.00    -0.356 N 
HETATM   14  H   UNL     1       5.760  30.324  53.826  1.00  0.00     0.162 HD
HETATM   15  O   UNL     1       2.987  28.884  53.279  1.00  0.00    -0.273 OA
BRANCH  13  16
HETATM   16  C   UNL     1       4.460  29.913  55.470  1.00  0.00     0.087 C 
HETATM   17  C   UNL     1       4.249  28.465  55.918  1.00  0.00     0.045 C 
HETATM   18  C   UNL     1       5.559  27.692  56.019  1.00  0.00     0.130 C 
HETATM   19  N   UNL     1       6.566  28.410  56.795  1.00  0.00    -0.328 N 
HETATM   20  C   UNL     1       7.572  27.741  57.485  1.00  0.00     0.362 C 
HETATM   21  C   UNL     1       6.799  29.804  56.448  1.00  0.00     0.130 C 
HETATM   22  O   UNL     1       8.578  28.288  57.920  1.00  0.00    -0.238 OA
HETATM   23  C   UNL     1       5.503  30.601  56.353  1.00  0.00     0.045 C 
BRANCH  20  24
HETATM   24  O   UNL     1       7.311  26.415  57.630  1.00  0.00    -0.304 OA
BRANCH  24  25
HETATM   25  C   UNL     1       8.373  25.520  57.267  1.00  0.00     0.176 C 
HETATM   26  C   UNL     1       7.943  24.620  56.123  1.00  0.00     0.034 C 
ENDBRANCH  24  25
ENDBRANCH  20  24
ENDBRANCH  13  16
ENDBRANCH   1  12
BRANCH   2  27
HETATM   27  C   UNL     1       4.949  31.926  50.345  1.00  0.00     0.006 A 
HETATM   28  S   UNL     1       5.452  33.513  50.791  1.00  0.00    -0.104 SA
HETATM   29  C   UNL     1       6.470  33.648  49.427  1.00  0.00     0.050 A 
HETATM   30  C   UNL     1       6.423  32.524  48.634  1.00  0.00     0.008 A 
HETATM   31  C   UNL     1       5.547  31.533  49.162  1.00  0.00     0.017 A 
ENDBRANCH   2  27
BRANCH   3  32
HETATM   32  C   UNL     1       1.613  32.098  50.985  1.00  0.00     0.153 C 
BRANCH  32  33
HETATM   33  C   UNL     1       1.965  33.123  52.070  1.00  0.00     0.187 C 
BRANCH  33  34
HETATM   34  O   UNL     1       1.858  32.537  53.365  1.00  0.00    -0.394 OA
HETATM   35  C   UNL     1       2.813  33.080  54.267  1.00  0.00     0.201 C 
ENDBRANCH  33  34
ENDBRANCH  32  33
ENDBRANCH   3  32
TORSDOF 8
ENDMDL
MODEL 9
REMARK VINA RESULT:      -6.0      2.617      3.760
REMARK  8 active torsions:
REMARK  status: ('A' for Active; 'I' for Inactive)
REMARK    1  A    between atoms: C_2  and  O_3 
REMARK    2  A    between atoms: O_3  and  C_4 
REMARK       I    between atoms: C_4  and  N_5 
REMARK    3  A    between atoms: C_8  and  N_9 
REMARK       I    between atoms: N_9  and  C_10 
REMARK    4  A    between atoms: C_10  and  C_11 
REMARK    5  A    between atoms: C_12  and  C_13 
REMARK    6  A    between atoms: N_18  and  C_19 
REMARK    7  A    between atoms: C_19  and  C_20 
REMARK    8  A    between atoms: C_20  and  O_21 
ROOT
HETATM    1  C   UNL     1       3.549  29.433  48.971  1.00  0.00     0.139 C 
HETATM    2  C   UNL     1       2.847  30.646  48.319  1.00  0.00     0.145 C 
HETATM    3  N   UNL     1       1.472  30.375  47.878  1.00  0.00    -0.335 N 
HETATM    4  C   UNL     1       1.076  29.114  47.436  1.00  0.00     0.255 C 
HETATM    5  O   UNL     1      -0.053  28.868  47.018  1.00  0.00    -0.267 OA
HETATM    6  C   UNL     1       2.064  28.004  47.514  1.00  0.00     0.039 A 
HETATM    7  C   UNL     1       3.236  28.136  48.268  1.00  0.00    -0.027 A 
HETATM    8  C   UNL     1       1.782  26.795  46.864  1.00  0.00     0.017 A 
HETATM    9  C   UNL     1       2.664  25.719  46.961  1.00  0.00     0.001 A 
HETATM   10  C   UNL     1       3.826  25.843  47.718  1.00  0.00     0.001 A 
HETATM   11  C   UNL     1       4.113  27.043  48.371  1.00  0.00     0.009 A 
ENDROOT
BRANCH   1  12
HETATM   12  C   UNL     1       3.191  29.438  50.454  1.00  0.00     0.229 C 
HETATM   13  N   UNL     1       4.186  28.893  51.254  1.00  0.00    -0.356 N 
HETATM   14  H   UNL     1       4.909  28.336  50.814  1.00  0.00     0.162 HD
HETATM   15  O   UNL     1       2.165  29.925  50.916  1.00  0.00    -0.273 OA
BRANCH  13  16
HETATM   16  C   UNL     1       4.097  28.888  52.711  1.00  0.00     0.087 C 
HETATM   17  C   UNL     1       3.584  27.556  53.262  1.00  0.00     0.045 C 
HETATM   18  C   UNL     1       4.620  26.444  53.144  1.00  0.00     0.130 C 
HETATM   19  N   UNL     1       5.922  26.841  53.674  1.00  0.00    -0.328 N 
HETATM   20  C   UNL     1       6.818  25.910  54.188  1.00  0.00     0.362 C 
HETATM   21  C   UNL     1       6.459  28.115  53.220  1.00  0.00     0.130 C 
HETATM   22  O   UNL     1       8.003  26.146  54.392  1.00  0.00    -0.238 OA
HETATM   23  C   UNL     1       5.444  29.246  53.340  1.00  0.00     0.045 C 
BRANCH  20  24
HETATM   24  O   UNL     1       6.233  24.710  54.445  1.00  0.00    -0.304 OA
BRANCH  24  25
HETATM   25  C   UNL     1       6.913  23.554  53.934  1.00  0.00     0.176 C 
HETATM   26  C   UNL     1       7.510  22.742  55.069  1.00  0.00     0.034 C 
ENDBRANCH  24  25
ENDBRANCH  20  24
ENDBRANCH  13  16
ENDBRANCH   1  12
BRANCH   2  27
HETATM   27  C   UNL     1       3.677  31.186  47.164  1.00  0.00     0.006 A 
HETATM   28  S   UNL     1       4.990  32.248  47.509  1.00  0.00    -0.104 SA
HETATM   29  C   UNL     1       5.409  32.377  45.858  1.00  0.00     0.050 A 
HETATM   30  C   UNL     1       4.566  31.647  45.053  1.00  0.00     0.008 A 
HETATM   31  C   UNL     1       3.567  30.961  45.804  1.00  0.00     0.017 A 
ENDBRANCH   2  27
BRANCH   3  32
HETATM   32  C   UNL     1       0.417  31.375  48.114  1.00  0.00     0.153 C 
BRANCH  32  33
HETATM   33  C   UNL     1       0.786  32.607  48.947  1.00  0.00     0.187 C 
BRANCH  33  34
HETATM   34  O   UNL     1       0.146  32.560  50.221  1.00  0.00    -0.394 OA
HETATM   35  C   UNL     1      -1.158  32.003  50.131  1.00  0.00     0.201 C 
ENDBRANCH  33  34
ENDBRANCH  32  33
ENDBRANCH   3  32
TORSDOF 8
ENDMDL
MODEL 10
REMARK VINA RESULT:      -6.0      5.868      8.730
REMARK  8 active torsions:
REMARK  status: ('A' for Active; 'I' for Inactive)
REMARK    1  A    between atoms: C_2  and  O_3 
REMARK    2  A    between atoms: O_3  and  C_4 
REMARK       I    between atoms: C_4  and  N_5 
REMARK    3  A    between atoms: C_8  and  N_9 
REMARK       I    between atoms: N_9  and  C_10 
REMARK    4  A    between atoms: C_10  and  C_11 
REMARK    5  A    between atoms: C_12  and  C_13 
REMARK    6  A    between atoms: N_18  and  C_19 
REMARK    7  A    between atoms: C_19  and  C_20 
REMARK    8  A    between atoms: C_20  and  O_21 
ROOT
HETATM    1  C   UNL     1       4.486  33.792  56.949  1.00  0.00     0.139 C 
HETATM    2  C   UNL     1       3.927  34.242  55.580  1.00  0.00     0.145 C 
HETATM    3  N   UNL     1       3.198  33.191  54.858  1.00  0.00    -0.335 N 
HETATM    4  C   UNL     1       3.534  31.844  54.981  1.00  0.00     0.255 C 
HETATM    5  O   UNL     1       2.974  30.947  54.356  1.00  0.00    -0.267 OA
HETATM    6  C   UNL     1       4.600  31.477  55.952  1.00  0.00     0.039 A 
HETATM    7  C   UNL     1       5.043  32.391  56.915  1.00  0.00    -0.027 A 
HETATM    8  C   UNL     1       5.123  30.177  55.928  1.00  0.00     0.017 A 
HETATM    9  C   UNL     1       6.087  29.786  56.858  1.00  0.00     0.001 A 
HETATM   10  C   UNL     1       6.524  30.690  57.823  1.00  0.00     0.001 A 
HETATM   11  C   UNL     1       6.005  31.985  57.856  1.00  0.00     0.009 A 
ENDROOT
BRANCH   1  12
HETATM   12  C   UNL     1       3.386  33.999  57.985  1.00  0.00     0.229 C 
HETATM   13  N   UNL     1       3.866  34.026  59.287  1.00  0.00    -0.356 N 
HETATM   14  H   UNL     1       4.799  33.675  59.467  1.00  0.00     0.162 HD
HETATM   15  O   UNL     1       2.206  34.185  57.712  1.00  0.00    -0.273 OA
BRANCH  13  16
HETATM   16  C   UNL     1       3.001  34.312  60.429  1.00  0.00     0.087 C 
HETATM   17  C   UNL     1       3.113  33.252  61.527  1.00  0.00     0.045 C 
HETATM   18  C   UNL     1       4.435  33.337  62.281  1.00  0.00     0.130 C 
HETATM   19  N   UNL     1       4.727  34.694  62.736  1.00  0.00    -0.328 N 
HETATM   20  C   UNL     1       5.511  34.936  63.859  1.00  0.00     0.362 C 
HETATM   21  C   UNL     1       4.609  35.760  61.753  1.00  0.00     0.130 C 
HETATM   22  O   UNL     1       6.001  36.027  64.125  1.00  0.00    -0.238 OA
HETATM   23  C   UNL     1       3.288  35.704  60.994  1.00  0.00     0.045 C 
BRANCH  20  24
HETATM   24  O   UNL     1       5.668  33.830  64.634  1.00  0.00    -0.304 OA
BRANCH  24  25
HETATM   25  C   UNL     1       7.004  33.559  65.083  1.00  0.00     0.176 C 
HETATM   26  C   UNL     1       7.823  32.931  63.970  1.00  0.00     0.034 C 
ENDBRANCH  24  25
ENDBRANCH  20  24
ENDBRANCH  13  16
ENDBRANCH   1  12
BRANCH   2  27
HETATM   27  C   UNL     1       5.038  34.810  54.710  1.00  0.00     0.006 A 
HETATM   28  S   UNL     1       5.749  36.317  55.147  1.00  0.00    -0.104 SA
HETATM   29  C   UNL     1       6.834  36.267  53.830  1.00  0.00     0.050 A 
HETATM   30  C   UNL     1       6.657  35.142  53.058  1.00  0.00     0.008 A 
HETATM   31  C   UNL     1       5.622  34.303  53.564  1.00  0.00     0.017 A 
ENDBRANCH   2  27
BRANCH   3  32
HETATM   32  C   UNL     1       1.941  33.516  54.164  1.00  0.00     0.153 C 
BRANCH  32  33
HETATM   33  C   UNL     1       2.038  33.963  52.700  1.00  0.00     0.187 C 
BRANCH  33  34
HETATM   34  O   UNL     1       1.872  32.849  51.826  1.00  0.00    -0.394 OA
HETATM   35  C   UNL     1       3.082  32.524  51.156  1.00  0.00     0.201 C 
ENDBRANCH  33  34
ENDBRANCH  32  33
ENDBRANCH   3  32
TORSDOF 8
ENDMDL
