MODEL 1
REMARK VINA RESULT:     -10.9      0.000      0.000
REMARK  8 active torsions:
REMARK  status: ('A' for Active; 'I' for Inactive)
REMARK    1  A    between atoms: C_4  and  S_5 
REMARK    2  A    between atoms: S_5  and  C_6 
REMARK    3  A    between atoms: C_6  and  C_7 
REMARK       I    between atoms: C_7  and  N_8 
REMARK    4  A    between atoms: N_8  and  C_9 
REMARK    5  A    between atoms: C_20  and  C_21 
REMARK    6  A    between atoms: C_27  and  C_28 
REMARK       I    between atoms: C_28  and  N_29 
REMARK    7  A    between atoms: N_29  and  C_30 
REMARK    8  A    between atoms: C_31  and  O_32 
ROOT
HETATM    1  C   UNL     1       4.905  33.099  57.446  1.00  0.00     0.069 C 
HETATM    2  C   UNL     1       5.384  31.666  57.433  1.00  0.00     0.019 C 
HETATM    3  N   UNL     1       4.842  30.866  56.439  1.00  0.00    -0.353 N 
HETATM    4  C   UNL     1       4.981  29.496  56.358  1.00  0.00     0.087 C 
HETATM    5  C   UNL     1       5.847  28.881  57.199  1.00  0.00     0.055 C 
HETATM    6  C   UNL     1       5.937  27.366  57.283  1.00  0.00     0.019 C 
HETATM    7  N   UNL     1       6.011  26.109  57.353  1.00  0.00    -0.096 N 
HETATM    8  C   UNL     1       6.782  29.705  58.082  1.00  0.00     0.104 C 
HETATM    9  C   UNL     1       6.314  31.148  58.276  1.00  0.00     0.046 C 
HETATM   10  H   UNL     1       4.150  31.278  55.818  1.00  0.00     0.166 HD
ENDROOT
BRANCH   4  11
HETATM   11  S   UNL     1       4.172  28.629  55.073  1.00  0.00    -0.102 SA
BRANCH  11  12
HETATM   12  C   UNL     1       5.532  28.221  53.933  1.00  0.00     0.184 C 
BRANCH  12  13
HETATM   13  C   UNL     1       5.621  26.718  53.628  1.00  0.00     0.231 C 
HETATM   14  N   UNL     1       6.787  26.104  54.043  1.00  0.00    -0.327 N 
HETATM   15  H   UNL     1       7.450  26.719  54.506  1.00  0.00     0.169 HD
HETATM   16  O   UNL     1       4.704  26.168  53.022  1.00  0.00    -0.272 OA
BRANCH  14  17
HETATM   17  C   UNL     1       7.160  24.751  53.950  1.00  0.00     0.034 A 
HETATM   18  C   UNL     1       7.131  23.854  55.018  1.00  0.00     0.031 A 
HETATM   19  C   UNL     1       7.535  22.526  54.838  1.00  0.00     0.026 A 
HETATM   20  C   UNL     1       7.964  22.090  53.587  1.00  0.00     0.034 A 
HETATM   21 CL   UNL     1       8.459  20.459  53.367  1.00  0.00    -0.084 Cl
HETATM   22  C   UNL     1       7.998  22.974  52.511  1.00  0.00     0.026 A 
HETATM   23  C   UNL     1       7.598  24.301  52.695  1.00  0.00     0.031 A 
ENDBRANCH  14  17
ENDBRANCH  12  13
ENDBRANCH  11  12
ENDBRANCH   4  11
BRANCH   8  24
HETATM   24  C   UNL     1       8.194  29.627  57.476  1.00  0.00    -0.044 A 
HETATM   25  C   UNL     1       9.339  29.884  58.256  1.00  0.00     0.008 A 
HETATM   26  C   UNL     1      10.613  29.871  57.686  1.00  0.00     0.001 A 
HETATM   27  C   UNL     1      10.763  29.614  56.326  1.00  0.00     0.000 A 
HETATM   28  C   UNL     1       9.641  29.370  55.537  1.00  0.00     0.001 A 
HETATM   29  C   UNL     1       8.363  29.377  56.104  1.00  0.00     0.008 A 
ENDBRANCH   8  24
BRANCH   9  30
HETATM   30  C   UNL     1       6.841  31.975  59.415  1.00  0.00     0.255 C 
HETATM   31  N   UNL     1       6.072  31.985  60.559  1.00  0.00    -0.321 N 
HETATM   32  H   UNL     1       5.099  31.731  60.511  1.00  0.00     0.169 HD
HETATM   33  O   UNL     1       7.837  32.678  59.250  1.00  0.00    -0.268 OA
BRANCH  31  34
HETATM   34  C   UNL     1       6.496  32.532  61.794  1.00  0.00     0.068 A 
HETATM   35  C   UNL     1       7.465  31.922  62.616  1.00  0.00     0.095 A 
HETATM   36  C   UNL     1       7.848  32.563  63.802  1.00  0.00     0.039 A 
HETATM   37  C   UNL     1       7.252  33.767  64.184  1.00  0.00     0.003 A 
HETATM   38  C   UNL     1       6.249  34.331  63.401  1.00  0.00     0.002 A 
HETATM   39  C   UNL     1       5.859  33.706  62.217  1.00  0.00     0.032 A 
BRANCH  35  40
HETATM   40  O   UNL     1       7.888  30.669  62.252  1.00  0.00    -0.354 OA
HETATM   41  C   UNL     1       9.253  30.505  61.903  1.00  0.00     0.210 C 
ENDBRANCH  35  40
ENDBRANCH  31  34
ENDBRANCH   9  30
TORSDOF 8
ENDMDL
MODEL 2
REMARK VINA RESULT:     -10.6      0.810      1.755
REMARK  8 active torsions:
REMARK  status: ('A' for Active; 'I' for Inactive)
REMARK    1  A    between atoms: C_4  and  S_5 
REMARK    2  A    between atoms: S_5  and  C_6 
REMARK    3  A    between atoms: C_6  and  C_7 
REMARK       I    between atoms: C_7  and  N_8 
REMARK    4  A    between atoms: N_8  and  C_9 
REMARK    5  A    between atoms: C_20  and  C_21 
REMARK    6  A    between atoms: C_27  and  C_28 
REMARK       I    between atoms: C_28  and  N_29 
REMARK    7  A    between atoms: N_29  and  C_30 
REMARK    8  A    between atoms: C_31  and  O_32 
ROOT
HETATM    1  C   UNL     1       4.848  32.929  57.360  1.00  0.00     0.069 C 
HETATM    2  C   UNL     1       5.377  31.514  57.364  1.00  0.00     0.019 C 
HETATM    3  N   UNL     1       4.868  30.685  56.376  1.00  0.00    -0.353 N 
HETATM    4  C   UNL     1       5.056  29.319  56.312  1.00  0.00     0.087 C 
HETATM    5  C   UNL     1       5.938  28.745  57.163  1.00  0.00     0.055 C 
HETATM    6  C   UNL     1       6.081  27.235  57.265  1.00  0.00     0.019 C 
HETATM    7  N   UNL     1       6.198  25.982  57.349  1.00  0.00    -0.096 N 
HETATM    8  C   UNL     1       6.840  29.610  58.041  1.00  0.00     0.104 C 
HETATM    9  C   UNL     1       6.320  31.039  58.218  1.00  0.00     0.046 C 
HETATM   10  H   UNL     1       4.166  31.065  55.748  1.00  0.00     0.166 HD
ENDROOT
BRANCH   4  11
HETATM   11  S   UNL     1       4.285  28.412  55.032  1.00  0.00    -0.102 SA
BRANCH  11  12
HETATM   12  C   UNL     1       5.670  28.005  53.923  1.00  0.00     0.184 C 
BRANCH  12  13
HETATM   13  C   UNL     1       5.804  26.496  53.668  1.00  0.00     0.231 C 
HETATM   14  N   UNL     1       7.024  25.949  54.018  1.00  0.00    -0.327 N 
HETATM   15  H   UNL     1       7.690  26.609  54.409  1.00  0.00     0.169 HD
HETATM   16  O   UNL     1       4.871  25.885  53.151  1.00  0.00    -0.272 OA
BRANCH  14  17
HETATM   17  C   UNL     1       7.448  24.610  53.947  1.00  0.00     0.034 A 
HETATM   18  C   UNL     1       7.498  23.865  52.768  1.00  0.00     0.031 A 
HETATM   19  C   UNL     1       7.920  22.530  52.792  1.00  0.00     0.026 A 
HETATM   20  C   UNL     1       8.299  21.939  53.995  1.00  0.00     0.034 A 
HETATM   21 CL   UNL     1       8.819  20.301  54.022  1.00  0.00    -0.084 Cl
HETATM   22  C   UNL     1       8.256  22.671  55.179  1.00  0.00     0.026 A 
HETATM   23  C   UNL     1       7.829  24.002  55.153  1.00  0.00     0.031 A 
ENDBRANCH  14  17
ENDBRANCH  12  13
ENDBRANCH  11  12
ENDBRANCH   4  11
BRANCH   8  24
HETATM   24  C   UNL     1       8.257  29.575  57.444  1.00  0.00    -0.044 A 
HETATM   25  C   UNL     1       9.391  29.844  58.235  1.00  0.00     0.008 A 
HETATM   26  C   UNL     1      10.668  29.869  57.673  1.00  0.00     0.001 A 
HETATM   27  C   UNL     1      10.831  29.641  56.310  1.00  0.00     0.000 A 
HETATM   28  C   UNL     1       9.720  29.387  55.510  1.00  0.00     0.001 A 
HETATM   29  C   UNL     1       8.439  29.355  56.069  1.00  0.00     0.008 A 
ENDBRANCH   8  24
BRANCH   9  30
HETATM   30  C   UNL     1       6.812  31.896  59.350  1.00  0.00     0.255 C 
HETATM   31  N   UNL     1       6.028  31.905  60.484  1.00  0.00    -0.321 N 
HETATM   32  H   UNL     1       5.062  31.625  60.428  1.00  0.00     0.169 HD
HETATM   33  O   UNL     1       7.792  32.620  59.186  1.00  0.00    -0.268 OA
BRANCH  31  34
HETATM   34  C   UNL     1       6.423  32.481  61.715  1.00  0.00     0.068 A 
HETATM   35  C   UNL     1       5.857  33.664  62.231  1.00  0.00     0.095 A 
HETATM   36  C   UNL     1       6.288  34.134  63.478  1.00  0.00     0.039 A 
HETATM   37  C   UNL     1       7.291  33.463  64.183  1.00  0.00     0.003 A 
HETATM   38  C   UNL     1       7.892  32.332  63.638  1.00  0.00     0.002 A 
HETATM   39  C   UNL     1       7.472  31.852  62.399  1.00  0.00     0.032 A 
BRANCH  35  40
HETATM   40  O   UNL     1       4.994  34.347  61.412  1.00  0.00    -0.354 OA
HETATM   41  C   UNL     1       3.605  34.256  61.687  1.00  0.00     0.210 C 
ENDBRANCH  35  40
ENDBRANCH  31  34
ENDBRANCH   9  30
TORSDOF 8
ENDMDL
MODEL 3
REMARK VINA RESULT:     -10.1      1.476      2.257
REMARK  8 active torsions:
REMARK  status: ('A' for Active; 'I' for Inactive)
REMARK    1  A    between atoms: C_4  and  S_5 
REMARK    2  A    between atoms: S_5  and  C_6 
REMARK    3  A    between atoms: C_6  and  C_7 
REMARK       I    between atoms: C_7  and  N_8 
REMARK    4  A    between atoms: N_8  and  C_9 
REMARK    5  A    between atoms: C_20  and  C_21 
REMARK    6  A    between atoms: C_27  and  C_28 
REMARK       I    between atoms: C_28  and  N_29 
REMARK    7  A    between atoms: N_29  and  C_30 
REMARK    8  A    between atoms: C_31  and  O_32 
ROOT
HETATM    1  C   UNL     1       4.180  32.920  55.646  1.00  0.00     0.069 C 
HETATM    2  C   UNL     1       4.603  31.510  55.990  1.00  0.00     0.019 C 
HETATM    3  N   UNL     1       4.324  30.553  55.028  1.00  0.00    -0.353 N 
HETATM    4  C   UNL     1       4.439  29.189  55.207  1.00  0.00     0.087 C 
HETATM    5  C   UNL     1       5.028  28.731  56.337  1.00  0.00     0.055 C 
HETATM    6  C   UNL     1       5.047  27.251  56.683  1.00  0.00     0.019 C 
HETATM    7  N   UNL     1       5.063  26.023  56.969  1.00  0.00    -0.096 N 
HETATM    8  C   UNL     1       5.716  29.700  57.296  1.00  0.00     0.104 C 
HETATM    9  C   UNL     1       5.256  31.149  57.125  1.00  0.00     0.046 C 
HETATM   10  H   UNL     1       3.836  30.849  54.186  1.00  0.00     0.166 HD
ENDROOT
BRANCH   4  11
HETATM   11  S   UNL     1       3.980  28.116  53.907  1.00  0.00    -0.102 SA
BRANCH  11  12
HETATM   12  C   UNL     1       5.582  27.512  53.286  1.00  0.00     0.184 C 
BRANCH  12  13
HETATM   13  C   UNL     1       5.698  25.981  53.332  1.00  0.00     0.231 C 
HETATM   14  N   UNL     1       6.922  25.499  53.755  1.00  0.00    -0.327 N 
HETATM   15  H   UNL     1       7.603  26.215  53.991  1.00  0.00     0.169 HD
HETATM   16  O   UNL     1       4.748  25.291  52.969  1.00  0.00    -0.272 OA
BRANCH  14  17
HETATM   17  C   UNL     1       7.335  24.168  53.940  1.00  0.00     0.034 A 
HETATM   18  C   UNL     1       7.785  23.336  52.914  1.00  0.00     0.031 A 
HETATM   19  C   UNL     1       8.163  22.016  53.187  1.00  0.00     0.026 A 
HETATM   20  C   UNL     1       8.096  21.526  54.488  1.00  0.00     0.034 A 
HETATM   21 CL   UNL     1       8.562  19.905  54.823  1.00  0.00    -0.084 Cl
HETATM   22  C   UNL     1       7.650  22.344  55.523  1.00  0.00     0.026 A 
HETATM   23  C   UNL     1       7.269  23.660  55.247  1.00  0.00     0.031 A 
ENDBRANCH  14  17
ENDBRANCH  12  13
ENDBRANCH  11  12
ENDBRANCH   4  11
BRANCH   8  24
HETATM   24  C   UNL     1       7.236  29.546  57.115  1.00  0.00    -0.044 A 
HETATM   25  C   UNL     1       8.125  29.740  58.191  1.00  0.00     0.008 A 
HETATM   26  C   UNL     1       9.505  29.658  58.005  1.00  0.00     0.001 A 
HETATM   27  C   UNL     1      10.021  29.395  56.740  1.00  0.00     0.000 A 
HETATM   28  C   UNL     1       9.158  29.212  55.662  1.00  0.00     0.001 A 
HETATM   29  C   UNL     1       7.774  29.288  55.844  1.00  0.00     0.008 A 
ENDBRANCH   8  24
BRANCH   9  30
HETATM   30  C   UNL     1       5.483  32.157  58.217  1.00  0.00     0.255 C 
HETATM   31  N   UNL     1       5.243  31.716  59.502  1.00  0.00    -0.321 N 
HETATM   32  H   UNL     1       4.663  30.908  59.655  1.00  0.00     0.169 HD
HETATM   33  O   UNL     1       5.746  33.322  57.928  1.00  0.00    -0.268 OA
BRANCH  31  34
HETATM   34  C   UNL     1       5.591  32.444  60.665  1.00  0.00     0.068 A 
HETATM   35  C   UNL     1       4.686  33.276  61.355  1.00  0.00     0.095 A 
HETATM   36  C   UNL     1       5.114  33.924  62.521  1.00  0.00     0.039 A 
HETATM   37  C   UNL     1       6.429  33.780  62.972  1.00  0.00     0.003 A 
HETATM   38  C   UNL     1       7.336  33.010  62.251  1.00  0.00     0.002 A 
HETATM   39  C   UNL     1       6.923  32.357  61.090  1.00  0.00     0.032 A 
BRANCH  35  40
HETATM   40  O   UNL     1       3.465  33.488  60.766  1.00  0.00    -0.354 OA
HETATM   41  C   UNL     1       2.563  34.376  61.407  1.00  0.00     0.210 C 
ENDBRANCH  35  40
ENDBRANCH  31  34
ENDBRANCH   9  30
TORSDOF 8
ENDMDL
MODEL 4
REMARK VINA RESULT:     -10.0      3.698     10.166
REMARK  8 active torsions:
REMARK  status: ('A' for Active; 'I' for Inactive)
REMARK    1  A    between atoms: C_4  and  S_5 
REMARK    2  A    between atoms: S_5  and  C_6 
REMARK    3  A    between atoms: C_6  and  C_7 
REMARK       I    between atoms: C_7  and  N_8 
REMARK    4  A    between atoms: N_8  and  C_9 
REMARK    5  A    between atoms: C_20  and  C_21 
REMARK    6  A    between atoms: C_27  and  C_28 
REMARK       I    between atoms: C_28  and  N_29 
REMARK    7  A    between atoms: N_29  and  C_30 
REMARK    8  A    between atoms: C_31  and  O_32 
ROOT
HETATM    1  C   UNL     1       8.599  26.481  57.263  1.00  0.00     0.069 C 
HETATM    2  C   UNL     1       7.342  27.257  56.945  1.00  0.00     0.019 C 
HETATM    3  N   UNL     1       7.345  28.585  57.343  1.00  0.00    -0.353 N 
HETATM    4  C   UNL     1       6.246  29.419  57.335  1.00  0.00     0.087 C 
HETATM    5  C   UNL     1       5.109  28.988  56.737  1.00  0.00     0.055 C 
HETATM    6  C   UNL     1       3.813  29.777  56.827  1.00  0.00     0.019 C 
HETATM    7  N   UNL     1       2.738  30.432  56.901  1.00  0.00    -0.096 N 
HETATM    8  C   UNL     1       5.105  27.691  55.931  1.00  0.00     0.104 C 
HETATM    9  C   UNL     1       6.270  26.761  56.276  1.00  0.00     0.046 C 
HETATM   10  H   UNL     1       8.161  28.933  57.840  1.00  0.00     0.166 HD
ENDROOT
BRANCH   4  11
HETATM   11  S   UNL     1       6.409  31.052  57.937  1.00  0.00    -0.102 SA
BRANCH  11  12
HETATM   12  C   UNL     1       7.968  30.992  58.875  1.00  0.00     0.184 C 
BRANCH  12  13
HETATM   13  C   UNL     1       7.968  31.933  60.089  1.00  0.00     0.231 C 
HETATM   14  N   UNL     1       7.120  31.565  61.115  1.00  0.00    -0.327 N 
HETATM   15  H   UNL     1       6.596  30.711  60.949  1.00  0.00     0.169 HD
HETATM   16  O   UNL     1       8.668  32.944  60.071  1.00  0.00    -0.272 OA
BRANCH  14  17
HETATM   17  C   UNL     1       6.916  32.183  62.362  1.00  0.00     0.034 A 
HETATM   18  C   UNL     1       7.941  32.532  63.242  1.00  0.00     0.031 A 
HETATM   19  C   UNL     1       7.645  33.132  64.472  1.00  0.00     0.026 A 
HETATM   20  C   UNL     1       6.322  33.387  64.823  1.00  0.00     0.034 A 
HETATM   21 CL   UNL     1       5.959  34.125  66.333  1.00  0.00    -0.084 Cl
HETATM   22  C   UNL     1       5.288  33.046  63.955  1.00  0.00     0.026 A 
HETATM   23  C   UNL     1       5.586  32.443  62.729  1.00  0.00     0.031 A 
ENDBRANCH  14  17
ENDBRANCH  12  13
ENDBRANCH  11  12
ENDBRANCH   4  11
BRANCH   8  24
HETATM   24  C   UNL     1       5.079  28.062  54.438  1.00  0.00    -0.044 A 
HETATM   25  C   UNL     1       3.862  28.227  53.747  1.00  0.00     0.008 A 
HETATM   26  C   UNL     1       3.846  28.504  52.380  1.00  0.00     0.001 A 
HETATM   27  C   UNL     1       5.043  28.608  51.678  1.00  0.00     0.000 A 
HETATM   28  C   UNL     1       6.255  28.437  52.343  1.00  0.00     0.001 A 
HETATM   29  C   UNL     1       6.277  28.164  53.713  1.00  0.00     0.008 A 
ENDBRANCH   8  24
BRANCH   9  30
HETATM   30  C   UNL     1       6.213  25.301  55.920  1.00  0.00     0.255 C 
HETATM   31  N   UNL     1       7.189  24.853  55.056  1.00  0.00    -0.321 N 
HETATM   32  H   UNL     1       7.682  25.510  54.473  1.00  0.00     0.169 HD
HETATM   33  O   UNL     1       5.266  24.617  56.304  1.00  0.00    -0.268 OA
BRANCH  31  34
HETATM   34  C   UNL     1       7.423  23.488  54.766  1.00  0.00     0.068 A 
HETATM   35  C   UNL     1       7.369  22.955  53.462  1.00  0.00     0.095 A 
HETATM   36  C   UNL     1       7.655  21.597  53.273  1.00  0.00     0.039 A 
HETATM   37  C   UNL     1       7.952  20.774  54.363  1.00  0.00     0.003 A 
HETATM   38  C   UNL     1       7.940  21.292  55.655  1.00  0.00     0.002 A 
HETATM   39  C   UNL     1       7.659  22.642  55.858  1.00  0.00     0.032 A 
BRANCH  35  40
HETATM   40  O   UNL     1       6.920  23.788  52.470  1.00  0.00    -0.354 OA
HETATM   41  C   UNL     1       7.819  24.760  51.961  1.00  0.00     0.210 C 
ENDBRANCH  35  40
ENDBRANCH  31  34
ENDBRANCH   9  30
TORSDOF 8
ENDMDL
MODEL 5
REMARK VINA RESULT:      -9.8      4.216     10.519
REMARK  8 active torsions:
REMARK  status: ('A' for Active; 'I' for Inactive)
REMARK    1  A    between atoms: C_4  and  S_5 
REMARK    2  A    between atoms: S_5  and  C_6 
REMARK    3  A    between atoms: C_6  and  C_7 
REMARK       I    between atoms: C_7  and  N_8 
REMARK    4  A    between atoms: N_8  and  C_9 
REMARK    5  A    between atoms: C_20  and  C_21 
REMARK    6  A    between atoms: C_27  and  C_28 
REMARK       I    between atoms: C_28  and  N_29 
REMARK    7  A    between atoms: N_29  and  C_30 
REMARK    8  A    between atoms: C_31  and  O_32 
ROOT
HETATM    1  C   UNL     1       3.293  29.372  53.558  1.00  0.00     0.069 C 
HETATM    2  C   UNL     1       4.712  29.034  53.950  1.00  0.00     0.019 C 
HETATM    3  N   UNL     1       5.003  29.159  55.299  1.00  0.00    -0.353 N 
HETATM    4  C   UNL     1       6.268  29.094  55.848  1.00  0.00     0.087 C 
HETATM    5  C   UNL     1       7.299  28.710  55.057  1.00  0.00     0.055 C 
HETATM    6  C   UNL     1       8.739  28.770  55.540  1.00  0.00     0.019 C 
HETATM    7  N   UNL     1       9.934  28.820  55.941  1.00  0.00    -0.096 N 
HETATM    8  C   UNL     1       7.037  28.181  53.649  1.00  0.00     0.104 C 
HETATM    9  C   UNL     1       5.669  28.586  53.096  1.00  0.00     0.046 C 
HETATM   10  H   UNL     1       4.270  29.493  55.918  1.00  0.00     0.166 HD
ENDROOT
BRANCH   4  11
HETATM   11  S   UNL     1       6.467  29.342  57.566  1.00  0.00    -0.102 SA
BRANCH  11  12
HETATM   12  C   UNL     1       6.120  31.118  57.770  1.00  0.00     0.184 C 
BRANCH  12  13
HETATM   13  C   UNL     1       6.851  31.733  58.973  1.00  0.00     0.231 C 
HETATM   14  N   UNL     1       6.093  31.846  60.123  1.00  0.00    -0.327 N 
HETATM   15  H   UNL     1       5.140  31.506  60.040  1.00  0.00     0.169 HD
HETATM   16  O   UNL     1       8.014  32.111  58.845  1.00  0.00    -0.272 OA
BRANCH  14  17
HETATM   17  C   UNL     1       6.471  32.326  61.390  1.00  0.00     0.034 A 
HETATM   18  C   UNL     1       7.513  31.795  62.151  1.00  0.00     0.031 A 
HETATM   19  C   UNL     1       7.810  32.327  63.412  1.00  0.00     0.026 A 
HETATM   20  C   UNL     1       7.069  33.394  63.912  1.00  0.00     0.034 A 
HETATM   21 CL   UNL     1       7.437  34.047  65.459  1.00  0.00    -0.084 Cl
HETATM   22  C   UNL     1       6.027  33.935  63.163  1.00  0.00     0.026 A 
HETATM   23  C   UNL     1       5.729  33.400  61.907  1.00  0.00     0.031 A 
ENDBRANCH  14  17
ENDBRANCH  12  13
ENDBRANCH  11  12
ENDBRANCH   4  11
BRANCH   8  24
HETATM   24  C   UNL     1       7.227  26.655  53.674  1.00  0.00    -0.044 A 
HETATM   25  C   UNL     1       7.901  25.984  52.635  1.00  0.00     0.008 A 
HETATM   26  C   UNL     1       8.017  24.594  52.635  1.00  0.00     0.001 A 
HETATM   27  C   UNL     1       7.449  23.850  53.664  1.00  0.00     0.000 A 
HETATM   28  C   UNL     1       6.767  24.495  54.694  1.00  0.00     0.001 A 
HETATM   29  C   UNL     1       6.653  25.887  54.701  1.00  0.00     0.008 A 
ENDBRANCH   8  24
BRANCH   9  30
HETATM   30  C   UNL     1       5.396  28.534  51.619  1.00  0.00     0.255 C 
HETATM   31  N   UNL     1       4.589  27.501  51.191  1.00  0.00    -0.321 N 
HETATM   32  H   UNL     1       4.472  26.684  51.769  1.00  0.00     0.169 HD
HETATM   33  O   UNL     1       5.975  29.312  50.864  1.00  0.00    -0.268 OA
BRANCH  31  34
HETATM   34  C   UNL     1       4.058  27.401  49.884  1.00  0.00     0.068 A 
HETATM   35  C   UNL     1       2.989  28.197  49.421  1.00  0.00     0.095 A 
HETATM   36  C   UNL     1       2.560  28.052  48.096  1.00  0.00     0.039 A 
HETATM   37  C   UNL     1       3.154  27.106  47.256  1.00  0.00     0.003 A 
HETATM   38  C   UNL     1       4.163  26.278  47.737  1.00  0.00     0.002 A 
HETATM   39  C   UNL     1       4.603  26.413  49.053  1.00  0.00     0.032 A 
BRANCH  35  40
HETATM   40  O   UNL     1       2.359  28.988  50.348  1.00  0.00    -0.354 OA
HETATM   41  C   UNL     1       2.357  30.390  50.132  1.00  0.00     0.210 C 
ENDBRANCH  35  40
ENDBRANCH  31  34
ENDBRANCH   9  30
TORSDOF 8
ENDMDL
MODEL 6
REMARK VINA RESULT:      -9.8      4.080     10.181
REMARK  8 active torsions:
REMARK  status: ('A' for Active; 'I' for Inactive)
REMARK    1  A    between atoms: C_4  and  S_5 
REMARK    2  A    between atoms: S_5  and  C_6 
REMARK    3  A    between atoms: C_6  and  C_7 
REMARK       I    between atoms: C_7  and  N_8 
REMARK    4  A    between atoms: N_8  and  C_9 
REMARK    5  A    between atoms: C_20  and  C_21 
REMARK    6  A    between atoms: C_27  and  C_28 
REMARK       I    between atoms: C_28  and  N_29 
REMARK    7  A    between atoms: N_29  and  C_30 
REMARK    8  A    between atoms: C_31  and  O_32 
ROOT
HETATM    1  C   UNL     1       3.976  30.091  56.750  1.00  0.00     0.069 C 
HETATM    2  C   UNL     1       5.430  29.683  56.717  1.00  0.00     0.019 C 
HETATM    3  N   UNL     1       6.167  30.012  57.843  1.00  0.00    -0.353 N 
HETATM    4  C   UNL     1       7.540  29.917  57.949  1.00  0.00     0.087 C 
HETATM    5  C   UNL     1       8.226  29.297  56.959  1.00  0.00     0.055 C 
HETATM    6  C   UNL     1       9.745  29.293  56.923  1.00  0.00     0.019 C 
HETATM    7  N   UNL     1      11.006  29.291  56.894  1.00  0.00    -0.096 N 
HETATM    8  C   UNL     1       7.481  28.558  55.850  1.00  0.00     0.104 C 
HETATM    9  C   UNL     1       6.022  28.997  55.705  1.00  0.00     0.046 C 
HETATM   10  H   UNL     1       5.701  30.523  58.587  1.00  0.00     0.166 HD
ENDROOT
BRANCH   4  11
HETATM   11  S   UNL     1       8.321  30.440  59.423  1.00  0.00    -0.102 SA
BRANCH  11  12
HETATM   12  C   UNL     1       7.238  31.783  60.008  1.00  0.00     0.184 C 
BRANCH  12  13
HETATM   13  C   UNL     1       7.129  31.834  61.539  1.00  0.00     0.231 C 
HETATM   14  N   UNL     1       6.480  32.944  62.044  1.00  0.00    -0.327 N 
HETATM   15  H   UNL     1       6.147  33.598  61.341  1.00  0.00     0.169 HD
HETATM   16  O   UNL     1       7.635  30.938  62.212  1.00  0.00    -0.272 OA
BRANCH  14  17
HETATM   17  C   UNL     1       6.186  33.270  63.380  1.00  0.00     0.034 A 
HETATM   18  C   UNL     1       4.893  33.405  63.888  1.00  0.00     0.031 A 
HETATM   19  C   UNL     1       4.692  33.747  65.230  1.00  0.00     0.026 A 
HETATM   20  C   UNL     1       5.785  33.950  66.070  1.00  0.00     0.034 A 
HETATM   21 CL   UNL     1       5.537  34.368  67.719  1.00  0.00    -0.084 Cl
HETATM   22  C   UNL     1       7.080  33.817  65.577  1.00  0.00     0.026 A 
HETATM   23  C   UNL     1       7.278  33.480  64.235  1.00  0.00     0.031 A 
ENDBRANCH  14  17
ENDBRANCH  12  13
ENDBRANCH  11  12
ENDBRANCH   4  11
BRANCH   8  24
HETATM   24  C   UNL     1       7.611  27.049  56.116  1.00  0.00    -0.044 A 
HETATM   25  C   UNL     1       7.696  26.542  57.428  1.00  0.00     0.008 A 
HETATM   26  C   UNL     1       7.875  25.178  57.660  1.00  0.00     0.001 A 
HETATM   27  C   UNL     1       7.985  24.300  56.586  1.00  0.00     0.000 A 
HETATM   28  C   UNL     1       7.916  24.784  55.282  1.00  0.00     0.001 A 
HETATM   29  C   UNL     1       7.732  26.149  55.044  1.00  0.00     0.008 A 
ENDBRANCH   8  24
BRANCH   9  30
HETATM   30  C   UNL     1       5.261  28.714  54.439  1.00  0.00     0.255 C 
HETATM   31  N   UNL     1       5.967  28.870  53.265  1.00  0.00    -0.321 N 
HETATM   32  H   UNL     1       6.802  29.433  53.252  1.00  0.00     0.169 HD
HETATM   33  O   UNL     1       4.056  28.480  54.492  1.00  0.00    -0.268 OA
BRANCH  31  34
HETATM   34  C   UNL     1       5.492  28.460  51.997  1.00  0.00     0.068 A 
HETATM   35  C   UNL     1       5.311  27.108  51.640  1.00  0.00     0.095 A 
HETATM   36  C   UNL     1       4.798  26.803  50.372  1.00  0.00     0.039 A 
HETATM   37  C   UNL     1       4.506  27.822  49.461  1.00  0.00     0.003 A 
HETATM   38  C   UNL     1       4.748  29.151  49.795  1.00  0.00     0.002 A 
HETATM   39  C   UNL     1       5.256  29.469  51.053  1.00  0.00     0.032 A 
BRANCH  35  40
HETATM   40  O   UNL     1       5.766  26.166  52.528  1.00  0.00    -0.354 OA
HETATM   41  C   UNL     1       4.840  25.206  53.010  1.00  0.00     0.210 C 
ENDBRANCH  35  40
ENDBRANCH  31  34
ENDBRANCH   9  30
TORSDOF 8
ENDMDL
MODEL 7
REMARK VINA RESULT:      -9.3      4.203     10.012
REMARK  8 active torsions:
REMARK  status: ('A' for Active; 'I' for Inactive)
REMARK    1  A    between atoms: C_4  and  S_5 
REMARK    2  A    between atoms: S_5  and  C_6 
REMARK    3  A    between atoms: C_6  and  C_7 
REMARK       I    between atoms: C_7  and  N_8 
REMARK    4  A    between atoms: N_8  and  C_9 
REMARK    5  A    between atoms: C_20  and  C_21 
REMARK    6  A    between atoms: C_27  and  C_28 
REMARK       I    between atoms: C_28  and  N_29 
REMARK    7  A    between atoms: N_29  and  C_30 
REMARK    8  A    between atoms: C_31  and  O_32 
ROOT
HETATM    1  C   UNL     1       3.922  29.766  56.871  1.00  0.00     0.069 C 
HETATM    2  C   UNL     1       5.398  29.458  56.778  1.00  0.00     0.019 C 
HETATM    3  N   UNL     1       6.148  29.796  57.893  1.00  0.00    -0.353 N 
HETATM    4  C   UNL     1       7.527  29.788  57.954  1.00  0.00     0.087 C 
HETATM    5  C   UNL     1       8.219  29.250  56.922  1.00  0.00     0.055 C 
HETATM    6  C   UNL     1       9.734  29.348  56.840  1.00  0.00     0.019 C 
HETATM    7  N   UNL     1      10.991  29.431  56.772  1.00  0.00    -0.096 N 
HETATM    8  C   UNL     1       7.488  28.502  55.809  1.00  0.00     0.104 C 
HETATM    9  C   UNL     1       6.000  28.848  55.725  1.00  0.00     0.046 C 
HETATM   10  H   UNL     1       5.674  30.249  58.669  1.00  0.00     0.166 HD
ENDROOT
BRANCH   4  11
HETATM   11  S   UNL     1       8.320  30.311  59.422  1.00  0.00    -0.102 SA
BRANCH  11  12
HETATM   12  C   UNL     1       7.848  32.066  59.542  1.00  0.00     0.184 C 
BRANCH  12  13
HETATM   13  C   UNL     1       6.894  32.347  60.712  1.00  0.00     0.231 C 
HETATM   14  N   UNL     1       7.510  32.702  61.897  1.00  0.00    -0.327 N 
HETATM   15  H   UNL     1       8.524  32.740  61.855  1.00  0.00     0.169 HD
HETATM   16  O   UNL     1       5.683  32.211  60.552  1.00  0.00    -0.272 OA
BRANCH  14  17
HETATM   17  C   UNL     1       6.928  33.054  63.128  1.00  0.00     0.034 A 
HETATM   18  C   UNL     1       7.651  33.291  64.298  1.00  0.00     0.031 A 
HETATM   19  C   UNL     1       6.987  33.621  65.486  1.00  0.00     0.026 A 
HETATM   20  C   UNL     1       5.599  33.721  65.505  1.00  0.00     0.034 A 
HETATM   21 CL   UNL     1       4.785  34.129  66.963  1.00  0.00    -0.084 Cl
HETATM   22  C   UNL     1       4.864  33.489  64.345  1.00  0.00     0.026 A 
HETATM   23  C   UNL     1       5.529  33.154  63.162  1.00  0.00     0.031 A 
ENDBRANCH  14  17
ENDBRANCH  12  13
ENDBRANCH  11  12
ENDBRANCH   4  11
BRANCH   8  24
HETATM   24  C   UNL     1       7.726  26.997  56.015  1.00  0.00    -0.044 A 
HETATM   25  C   UNL     1       7.592  26.082  54.951  1.00  0.00     0.008 A 
HETATM   26  C   UNL     1       7.750  24.712  55.159  1.00  0.00     0.001 A 
HETATM   27  C   UNL     1       8.030  24.231  56.435  1.00  0.00     0.000 A 
HETATM   28  C   UNL     1       8.153  25.119  57.501  1.00  0.00     0.001 A 
HETATM   29  C   UNL     1       8.001  26.493  57.297  1.00  0.00     0.008 A 
ENDBRANCH   8  24
BRANCH   9  30
HETATM   30  C   UNL     1       5.219  28.560  54.473  1.00  0.00     0.255 C 
HETATM   31  N   UNL     1       5.351  29.480  53.455  1.00  0.00    -0.321 N 
HETATM   32  H   UNL     1       5.676  30.410  53.659  1.00  0.00     0.169 HD
HETATM   33  O   UNL     1       4.431  27.616  54.450  1.00  0.00    -0.268 OA
BRANCH  31  34
HETATM   34  C   UNL     1       4.863  29.281  52.141  1.00  0.00     0.068 A 
HETATM   35  C   UNL     1       3.745  29.965  51.621  1.00  0.00     0.095 A 
HETATM   36  C   UNL     1       3.363  29.729  50.294  1.00  0.00     0.039 A 
HETATM   37  C   UNL     1       4.054  28.801  49.510  1.00  0.00     0.003 A 
HETATM   38  C   UNL     1       5.115  28.081  50.049  1.00  0.00     0.002 A 
HETATM   39  C   UNL     1       5.508  28.308  51.368  1.00  0.00     0.032 A 
BRANCH  35  40
HETATM   40  O   UNL     1       3.028  30.740  52.498  1.00  0.00    -0.354 OA
HETATM   41  C   UNL     1       2.690  32.058  52.097  1.00  0.00     0.210 C 
ENDBRANCH  35  40
ENDBRANCH  31  34
ENDBRANCH   9  30
TORSDOF 8
ENDMDL
MODEL 8
REMARK VINA RESULT:      -9.2      5.619     11.637
REMARK  8 active torsions:
REMARK  status: ('A' for Active; 'I' for Inactive)
REMARK    1  A    between atoms: C_4  and  S_5 
REMARK    2  A    between atoms: S_5  and  C_6 
REMARK    3  A    between atoms: C_6  and  C_7 
REMARK       I    between atoms: C_7  and  N_8 
REMARK    4  A    between atoms: N_8  and  C_9 
REMARK    5  A    between atoms: C_20  and  C_21 
REMARK    6  A    between atoms: C_27  and  C_28 
REMARK       I    between atoms: C_28  and  N_29 
REMARK    7  A    between atoms: N_29  and  C_30 
REMARK    8  A    between atoms: C_31  and  O_32 
ROOT
HETATM    1  C   UNL     1       2.699  30.845  60.369  1.00  0.00     0.069 C 
HETATM    2  C   UNL     1       3.657  31.927  60.811  1.00  0.00     0.019 C 
HETATM    3  N   UNL     1       3.422  32.449  62.073  1.00  0.00    -0.353 N 
HETATM    4  C   UNL     1       4.040  33.567  62.597  1.00  0.00     0.087 C 
HETATM    5  C   UNL     1       5.079  34.111  61.919  1.00  0.00     0.055 C 
HETATM    6  C   UNL     1       5.704  35.430  62.343  1.00  0.00     0.019 C 
HETATM    7  N   UNL     1       6.222  36.525  62.695  1.00  0.00    -0.096 N 
HETATM    8  C   UNL     1       5.670  33.395  60.707  1.00  0.00     0.104 C 
HETATM    9  C   UNL     1       4.721  32.365  60.091  1.00  0.00     0.046 C 
HETATM   10  H   UNL     1       2.621  32.102  62.594  1.00  0.00     0.166 HD
ENDROOT
BRANCH   4  11
HETATM   11  S   UNL     1       3.577  34.134  64.184  1.00  0.00    -0.102 SA
BRANCH  11  12
HETATM   12  C   UNL     1       4.920  33.519  65.249  1.00  0.00     0.184 C 
BRANCH  12  13
HETATM   13  C   UNL     1       5.183  34.428  66.459  1.00  0.00     0.231 C 
HETATM   14  N   UNL     1       5.853  33.827  67.508  1.00  0.00    -0.327 N 
HETATM   15  H   UNL     1       6.097  32.853  67.355  1.00  0.00     0.169 HD
HETATM   16  O   UNL     1       4.769  35.585  66.447  1.00  0.00    -0.272 OA
BRANCH  14  17
HETATM   17  C   UNL     1       6.273  34.386  68.728  1.00  0.00     0.034 A 
HETATM   18  C   UNL     1       7.249  35.377  68.841  1.00  0.00     0.031 A 
HETATM   19  C   UNL     1       7.618  35.866  70.101  1.00  0.00     0.026 A 
HETATM   20  C   UNL     1       7.007  35.368  71.249  1.00  0.00     0.034 A 
HETATM   21 CL   UNL     1       7.460  35.971  72.794  1.00  0.00    -0.084 Cl
HETATM   22  C   UNL     1       6.031  34.380  71.151  1.00  0.00     0.026 A 
HETATM   23  C   UNL     1       5.668  33.890  69.893  1.00  0.00     0.031 A 
ENDBRANCH  14  17
ENDBRANCH  12  13
ENDBRANCH  11  12
ENDBRANCH   4  11
BRANCH   8  24
HETATM   24  C   UNL     1       7.009  32.770  61.134  1.00  0.00    -0.044 A 
HETATM   25  C   UNL     1       8.126  32.773  60.274  1.00  0.00     0.008 A 
HETATM   26  C   UNL     1       9.318  32.152  60.645  1.00  0.00     0.001 A 
HETATM   27  C   UNL     1       9.412  31.505  61.873  1.00  0.00     0.000 A 
HETATM   28  C   UNL     1       8.315  31.481  62.731  1.00  0.00     0.001 A 
HETATM   29  C   UNL     1       7.119  32.106  62.367  1.00  0.00     0.008 A 
ENDBRANCH   8  24
BRANCH   9  30
HETATM   30  C   UNL     1       4.933  31.876  58.685  1.00  0.00     0.255 C 
HETATM   31  N   UNL     1       5.395  30.582  58.562  1.00  0.00    -0.321 N 
HETATM   32  H   UNL     1       5.853  30.137  59.340  1.00  0.00     0.169 HD
HETATM   33  O   UNL     1       4.806  32.654  57.742  1.00  0.00    -0.268 OA
BRANCH  31  34
HETATM   34  C   UNL     1       5.462  29.880  57.335  1.00  0.00     0.068 A 
HETATM   35  C   UNL     1       6.674  29.604  56.668  1.00  0.00     0.095 A 
HETATM   36  C   UNL     1       6.639  28.867  55.477  1.00  0.00     0.039 A 
HETATM   37  C   UNL     1       5.421  28.445  54.937  1.00  0.00     0.003 A 
HETATM   38  C   UNL     1       4.224  28.778  55.565  1.00  0.00     0.002 A 
HETATM   39  C   UNL     1       4.243  29.508  56.752  1.00  0.00     0.032 A 
BRANCH  35  40
HETATM   40  O   UNL     1       7.808  30.183  57.177  1.00  0.00    -0.354 OA
HETATM   41  C   UNL     1       8.722  29.352  57.874  1.00  0.00     0.210 C 
ENDBRANCH  35  40
ENDBRANCH  31  34
ENDBRANCH   9  30
TORSDOF 8
ENDMDL
MODEL 9
REMARK VINA RESULT:      -9.1      3.858     10.275
REMARK  8 active torsions:
REMARK  status: ('A' for Active; 'I' for Inactive)
REMARK    1  A    between atoms: C_4  and  S_5 
REMARK    2  A    between atoms: S_5  and  C_6 
REMARK    3  A    between atoms: C_6  and  C_7 
REMARK       I    between atoms: C_7  and  N_8 
REMARK    4  A    between atoms: N_8  and  C_9 
REMARK    5  A    between atoms: C_20  and  C_21 
REMARK    6  A    between atoms: C_27  and  C_28 
REMARK       I    between atoms: C_28  and  N_29 
REMARK    7  A    between atoms: N_29  and  C_30 
REMARK    8  A    between atoms: C_31  and  O_32 
ROOT
HETATM    1  C   UNL     1       8.901  28.046  57.062  1.00  0.00     0.069 C 
HETATM    2  C   UNL     1       7.600  28.783  57.277  1.00  0.00     0.019 C 
HETATM    3  N   UNL     1       7.706  30.003  57.926  1.00  0.00    -0.353 N 
HETATM    4  C   UNL     1       6.644  30.746  58.399  1.00  0.00     0.087 C 
HETATM    5  C   UNL     1       5.387  30.365  58.068  1.00  0.00     0.055 C 
HETATM    6  C   UNL     1       4.165  31.032  58.679  1.00  0.00     0.019 C 
HETATM    7  N   UNL     1       3.151  31.584  59.186  1.00  0.00    -0.096 N 
HETATM    8  C   UNL     1       5.162  29.256  57.043  1.00  0.00     0.104 C 
HETATM    9  C   UNL     1       6.384  28.357  56.847  1.00  0.00     0.046 C 
HETATM   10  H   UNL     1       8.627  30.301  58.236  1.00  0.00     0.166 HD
ENDROOT
BRANCH   4  11
HETATM   11  S   UNL     1       6.959  32.236  59.258  1.00  0.00    -0.102 SA
BRANCH  11  12
HETATM   12  C   UNL     1       8.302  31.777  60.399  1.00  0.00     0.184 C 
BRANCH  12  13
HETATM   13  C   UNL     1       7.862  31.791  61.871  1.00  0.00     0.231 C 
HETATM   14  N   UNL     1       7.256  32.960  62.290  1.00  0.00    -0.327 N 
HETATM   15  H   UNL     1       7.168  33.674  61.573  1.00  0.00     0.169 HD
HETATM   16  O   UNL     1       8.096  30.815  62.581  1.00  0.00    -0.272 OA
BRANCH  14  17
HETATM   17  C   UNL     1       6.714  33.276  63.548  1.00  0.00     0.034 A 
HETATM   18  C   UNL     1       7.477  33.527  64.690  1.00  0.00     0.031 A 
HETATM   19  C   UNL     1       6.851  33.820  65.908  1.00  0.00     0.026 A 
HETATM   20  C   UNL     1       5.462  33.867  65.986  1.00  0.00     0.034 A 
HETATM   21 CL   UNL     1       4.695  34.228  67.482  1.00  0.00    -0.084 Cl
HETATM   22  C   UNL     1       4.688  33.620  64.855  1.00  0.00     0.026 A 
HETATM   23  C   UNL     1       5.315  33.323  63.641  1.00  0.00     0.031 A 
ENDBRANCH  14  17
ENDBRANCH  12  13
ENDBRANCH  11  12
ENDBRANCH   4  11
BRANCH   8  24
HETATM   24  C   UNL     1       4.703  29.911  55.729  1.00  0.00    -0.044 A 
HETATM   25  C   UNL     1       4.798  31.303  55.534  1.00  0.00     0.008 A 
HETATM   26  C   UNL     1       4.325  31.898  54.364  1.00  0.00     0.001 A 
HETATM   27  C   UNL     1       3.738  31.114  53.376  1.00  0.00     0.000 A 
HETATM   28  C   UNL     1       3.624  29.737  53.556  1.00  0.00     0.001 A 
HETATM   29  C   UNL     1       4.101  29.137  54.724  1.00  0.00     0.008 A 
ENDBRANCH   8  24
BRANCH   9  30
HETATM   30  C   UNL     1       6.239  26.996  56.225  1.00  0.00     0.255 C 
HETATM   31  N   UNL     1       6.913  26.801  55.038  1.00  0.00    -0.321 N 
HETATM   32  H   UNL     1       7.197  27.594  54.487  1.00  0.00     0.169 HD
HETATM   33  O   UNL     1       5.462  26.180  56.717  1.00  0.00    -0.268 OA
BRANCH  31  34
HETATM   34  C   UNL     1       7.064  25.541  54.412  1.00  0.00     0.068 A 
HETATM   35  C   UNL     1       6.324  25.147  53.278  1.00  0.00     0.095 A 
HETATM   36  C   UNL     1       6.575  23.893  52.707  1.00  0.00     0.039 A 
HETATM   37  C   UNL     1       7.516  23.029  53.273  1.00  0.00     0.003 A 
HETATM   38  C   UNL     1       8.196  23.396  54.431  1.00  0.00     0.002 A 
HETATM   39  C   UNL     1       7.959  24.642  55.009  1.00  0.00     0.032 A 
BRANCH  35  40
HETATM   40  O   UNL     1       5.314  25.983  52.877  1.00  0.00    -0.354 OA
HETATM   41  C   UNL     1       5.475  26.679  51.651  1.00  0.00     0.210 C 
ENDBRANCH  35  40
ENDBRANCH  31  34
ENDBRANCH   9  30
TORSDOF 8
ENDMDL
MODEL 10
REMARK VINA RESULT:      -8.8      5.440     11.585
REMARK  8 active torsions:
REMARK  status: ('A' for Active; 'I' for Inactive)
REMARK    1  A    between atoms: C_4  and  S_5 
REMARK    2  A    between atoms: S_5  and  C_6 
REMARK    3  A    between atoms: C_6  and  C_7 
REMARK       I    between atoms: C_7  and  N_8 
REMARK    4  A    between atoms: N_8  and  C_9 
REMARK    5  A    between atoms: C_20  and  C_21 
REMARK    6  A    between atoms: C_27  and  C_28 
REMARK       I    between atoms: C_28  and  N_29 
REMARK    7  A    between atoms: N_29  and  C_30 
REMARK    8  A    between atoms: C_31  and  O_32 
ROOT
HETATM    1  C   UNL     1       7.188  31.963  61.685  1.00  0.00     0.069 C 
HETATM    2  C   UNL     1       5.867  32.688  61.579  1.00  0.00     0.019 C 
HETATM    3  N   UNL     1       5.387  33.226  62.762  1.00  0.00    -0.353 N 
HETATM    4  C   UNL     1       4.123  33.752  62.941  1.00  0.00     0.087 C 
HETATM    5  C   UNL     1       3.334  33.925  61.854  1.00  0.00     0.055 C 
HETATM    6  C   UNL     1       1.878  34.344  61.984  1.00  0.00     0.019 C 
HETATM    7  N   UNL     1       0.671  34.691  62.093  1.00  0.00    -0.096 N 
HETATM    8  C   UNL     1       3.898  33.721  60.449  1.00  0.00     0.104 C 
HETATM    9  C   UNL     1       5.173  32.876  60.427  1.00  0.00     0.046 C 
HETATM   10  H   UNL     1       5.926  33.074  63.610  1.00  0.00     0.166 HD
ENDROOT
BRANCH   4  11
HETATM   11  S   UNL     1       3.654  34.329  64.522  1.00  0.00    -0.102 SA
BRANCH  11  12
HETATM   12  C   UNL     1       5.108  35.284  65.061  1.00  0.00     0.184 C 
BRANCH  12  13
HETATM   13  C   UNL     1       5.953  34.541  66.106  1.00  0.00     0.231 C 
HETATM   14  N   UNL     1       5.895  35.064  67.384  1.00  0.00    -0.327 N 
HETATM   15  H   UNL     1       5.296  35.878  67.484  1.00  0.00     0.169 HD
HETATM   16  O   UNL     1       6.638  33.582  65.759  1.00  0.00    -0.272 OA
BRANCH  14  17
HETATM   17  C   UNL     1       6.513  34.603  68.560  1.00  0.00     0.034 A 
HETATM   18  C   UNL     1       7.779  35.005  68.989  1.00  0.00     0.031 A 
HETATM   19  C   UNL     1       8.326  34.481  70.168  1.00  0.00     0.026 A 
HETATM   20  C   UNL     1       7.605  33.558  70.921  1.00  0.00     0.034 A 
HETATM   21 CL   UNL     1       8.277  32.918  72.368  1.00  0.00    -0.084 Cl
HETATM   22  C   UNL     1       6.341  33.149  70.506  1.00  0.00     0.026 A 
HETATM   23  C   UNL     1       5.799  33.669  69.327  1.00  0.00     0.031 A 
ENDBRANCH  14  17
ENDBRANCH  12  13
ENDBRANCH  11  12
ENDBRANCH   4  11
BRANCH   8  24
HETATM   24  C   UNL     1       4.107  35.108  59.818  1.00  0.00    -0.044 A 
HETATM   25  C   UNL     1       4.399  36.236  60.610  1.00  0.00     0.008 A 
HETATM   26  C   UNL     1       4.528  37.501  60.037  1.00  0.00     0.001 A 
HETATM   27  C   UNL     1       4.354  37.664  58.666  1.00  0.00     0.000 A 
HETATM   28  C   UNL     1       4.053  36.562  57.868  1.00  0.00     0.001 A 
HETATM   29  C   UNL     1       3.928  35.291  58.437  1.00  0.00     0.008 A 
ENDBRANCH   8  24
BRANCH   9  30
HETATM   30  C   UNL     1       5.633  32.220  59.154  1.00  0.00     0.255 C 
HETATM   31  N   UNL     1       5.099  30.976  58.891  1.00  0.00    -0.321 N 
HETATM   32  H   UNL     1       4.701  30.433  59.639  1.00  0.00     0.169 HD
HETATM   33  O   UNL     1       6.520  32.744  58.485  1.00  0.00    -0.268 OA
BRANCH  31  34
HETATM   34  C   UNL     1       5.249  30.297  57.659  1.00  0.00     0.068 A 
HETATM   35  C   UNL     1       6.319  29.420  57.386  1.00  0.00     0.095 A 
HETATM   36  C   UNL     1       6.358  28.762  56.149  1.00  0.00     0.039 A 
HETATM   37  C   UNL     1       5.374  29.001  55.186  1.00  0.00     0.003 A 
HETATM   38  C   UNL     1       4.357  29.917  55.436  1.00  0.00     0.002 A 
HETATM   39  C   UNL     1       4.304  30.577  56.663  1.00  0.00     0.032 A 
BRANCH  35  40
HETATM   40  O   UNL     1       7.324  29.358  58.317  1.00  0.00    -0.354 OA
HETATM   41  C   UNL     1       8.593  29.882  57.961  1.00  0.00     0.210 C 
ENDBRANCH  35  40
ENDBRANCH  31  34
ENDBRANCH   9  30
TORSDOF 8
ENDMDL
