MODEL 1
REMARK VINA RESULT:      -9.8      0.000      0.000
REMARK  5 active torsions:
REMARK  status: ('A' for Active; 'I' for Inactive)
REMARK    1  A    between atoms: O_2  and  C_3 
REMARK    2  A    between atoms: C_6  and  C_7 
REMARK    3  A    between atoms: C_12  and  C_13 
REMARK    4  A    between atoms: N_14  and  N_15 
REMARK       I    between atoms: N_15  and  C_16 
REMARK    5  A    between atoms: C_16  and  C_17 
ROOT
HETATM    1  C   UNL     1       8.737  24.468  56.734  1.00  0.00     0.154 C 
HETATM    2  N   UNL     1       7.846  25.387  56.933  1.00  0.00    -0.183 NA
ENDROOT
BRANCH   1   3
HETATM    3  C   UNL     1       8.304  23.183  56.230  1.00  0.00     0.031 A 
HETATM    4  C   UNL     1       7.601  22.872  55.022  1.00  0.00     0.100 A 
HETATM    5  N   UNL     1       7.339  21.555  54.948  1.00  0.00    -0.174 NA
HETATM    6  N   UNL     1       7.886  21.037  56.053  1.00  0.00    -0.288 N 
HETATM    7  H   UNL     1       7.815  20.036  56.201  1.00  0.00     0.188 HD
HETATM    8  C   UNL     1       8.476  21.963  56.853  1.00  0.00     0.124 A 
BRANCH   4   9
HETATM    9  C   UNL     1       7.164  23.769  53.949  1.00  0.00    -0.005 A 
HETATM   10  C   UNL     1       7.986  23.975  52.833  1.00  0.00     0.016 A 
HETATM   11  C   UNL     1       7.588  24.825  51.793  1.00  0.00     0.037 A 
HETATM   12  C   UNL     1       6.362  25.484  51.859  1.00  0.00     0.068 A 
HETATM   13  C   UNL     1       5.546  25.293  52.976  1.00  0.00     0.037 A 
HETATM   14  C   UNL     1       5.945  24.450  54.019  1.00  0.00     0.016 A 
BRANCH  12  15
HETATM   15  O   UNL     1       5.852  26.334  50.917  1.00  0.00    -0.356 OA
HETATM   16  C   UNL     1       5.101  27.444  51.394  1.00  0.00     0.210 C 
ENDBRANCH  12  15
ENDBRANCH   4   9
ENDBRANCH   1   3
BRANCH   2  17
HETATM   17  N   UNL     1       8.240  26.618  57.399  1.00  0.00    -0.243 N 
HETATM   18  C   UNL     1       8.283  27.801  56.671  1.00  0.00     0.271 C 
HETATM   19  O   UNL     1       7.986  27.926  55.487  1.00  0.00    -0.266 OA
HETATM   20  H   UNL     1       8.236  26.673  58.412  1.00  0.00     0.192 HD
BRANCH  18  21
HETATM   21  C   UNL     1       8.695  29.013  57.439  1.00  0.00     0.036 A 
HETATM   22  C   UNL     1       7.946  29.494  58.524  1.00  0.00     0.057 A 
HETATM   23  C   UNL     1       8.418  30.615  59.176  1.00  0.00     0.106 A 
HETATM   24  C   UNL     1       9.581  31.247  58.801  1.00  0.00     0.105 A 
HETATM   25  O   UNL     1       7.822  31.217  60.242  1.00  0.00    -0.323 OA
HETATM   26  O   UNL     1       9.861  32.325  59.581  1.00  0.00    -0.323 OA
HETATM   27  C   UNL     1      10.346  30.792  57.752  1.00  0.00     0.041 A 
HETATM   28  C   UNL     1       8.745  32.300  60.494  1.00  0.00     0.352 A 
HETATM   29  C   UNL     1       9.896  29.659  57.066  1.00  0.00     0.020 A 
ENDBRANCH  18  21
ENDBRANCH   2  17
TORSDOF 5
ENDMDL
MODEL 2
REMARK VINA RESULT:      -9.6      2.427      4.015
REMARK  5 active torsions:
REMARK  status: ('A' for Active; 'I' for Inactive)
REMARK    1  A    between atoms: O_2  and  C_3 
REMARK    2  A    between atoms: C_6  and  C_7 
REMARK    3  A    between atoms: C_12  and  C_13 
REMARK    4  A    between atoms: N_14  and  N_15 
REMARK       I    between atoms: N_15  and  C_16 
REMARK    5  A    between atoms: C_16  and  C_17 
ROOT
HETATM    1  C   UNL     1       6.042  27.783  53.936  1.00  0.00     0.154 C 
HETATM    2  N   UNL     1       7.304  28.063  54.023  1.00  0.00    -0.183 NA
ENDROOT
BRANCH   1   3
HETATM    3  C   UNL     1       5.590  26.963  52.832  1.00  0.00     0.031 A 
HETATM    4  C   UNL     1       5.862  25.585  52.554  1.00  0.00     0.100 A 
HETATM    5  N   UNL     1       5.293  25.211  51.394  1.00  0.00    -0.174 NA
HETATM    6  N   UNL     1       4.652  26.303  50.963  1.00  0.00    -0.288 N 
HETATM    7  H   UNL     1       4.137  26.244  50.091  1.00  0.00     0.188 HD
HETATM    8  C   UNL     1       4.794  27.377  51.782  1.00  0.00     0.124 A 
BRANCH   4   9
HETATM    9  C   UNL     1       6.640  24.620  53.335  1.00  0.00    -0.005 A 
HETATM   10  C   UNL     1       7.597  23.818  52.699  1.00  0.00     0.016 A 
HETATM   11  C   UNL     1       8.356  22.891  53.426  1.00  0.00     0.037 A 
HETATM   12  C   UNL     1       8.163  22.752  54.799  1.00  0.00     0.068 A 
HETATM   13  C   UNL     1       7.201  23.540  55.434  1.00  0.00     0.037 A 
HETATM   14  C   UNL     1       6.437  24.461  54.709  1.00  0.00     0.016 A 
BRANCH  12  15
HETATM   15  O   UNL     1       8.835  21.893  55.625  1.00  0.00    -0.356 OA
HETATM   16  C   UNL     1       8.071  20.861  56.234  1.00  0.00     0.210 C 
ENDBRANCH  12  15
ENDBRANCH   4   9
ENDBRANCH   1   3
BRANCH   2  17
HETATM   17  N   UNL     1       7.752  28.829  55.072  1.00  0.00    -0.243 N 
HETATM   18  C   UNL     1       8.201  28.362  56.301  1.00  0.00     0.271 C 
HETATM   19  O   UNL     1       8.254  27.186  56.646  1.00  0.00    -0.266 OA
HETATM   20  H   UNL     1       8.005  29.770  54.789  1.00  0.00     0.192 HD
BRANCH  18  21
HETATM   21  C   UNL     1       8.692  29.409  57.246  1.00  0.00     0.036 A 
HETATM   22  C   UNL     1       7.956  29.791  58.378  1.00  0.00     0.057 A 
HETATM   23  C   UNL     1       8.502  30.760  59.196  1.00  0.00     0.106 A 
HETATM   24  C   UNL     1       9.725  31.334  58.935  1.00  0.00     0.105 A 
HETATM   25  O   UNL     1       7.930  31.250  60.329  1.00  0.00    -0.323 OA
HETATM   26  O   UNL     1      10.073  32.259  59.870  1.00  0.00    -0.323 OA
HETATM   27  C   UNL     1      10.478  30.971  57.843  1.00  0.00     0.041 A 
HETATM   28  C   UNL     1       8.933  32.199  60.752  1.00  0.00     0.352 A 
HETATM   29  C   UNL     1       9.954  29.993  56.991  1.00  0.00     0.020 A 
ENDBRANCH  18  21
ENDBRANCH   2  17
TORSDOF 5
ENDMDL
MODEL 3
REMARK VINA RESULT:      -8.6      2.847      4.396
REMARK  5 active torsions:
REMARK  status: ('A' for Active; 'I' for Inactive)
REMARK    1  A    between atoms: O_2  and  C_3 
REMARK    2  A    between atoms: C_6  and  C_7 
REMARK    3  A    between atoms: C_12  and  C_13 
REMARK    4  A    between atoms: N_14  and  N_15 
REMARK       I    between atoms: N_15  and  C_16 
REMARK    5  A    between atoms: C_16  and  C_17 
ROOT
HETATM    1  C   UNL     1       5.769  27.437  54.648  1.00  0.00     0.154 C 
HETATM    2  N   UNL     1       6.381  28.577  54.590  1.00  0.00    -0.183 NA
ENDROOT
BRANCH   1   3
HETATM    3  C   UNL     1       5.437  26.766  53.409  1.00  0.00     0.031 A 
HETATM    4  C   UNL     1       5.842  25.475  52.940  1.00  0.00     0.100 A 
HETATM    5  N   UNL     1       5.357  25.243  51.707  1.00  0.00    -0.174 NA
HETATM    6  N   UNL     1       4.639  26.332  51.413  1.00  0.00    -0.288 N 
HETATM    7  H   UNL     1       4.167  26.368  50.516  1.00  0.00     0.188 HD
HETATM    8  C   UNL     1       4.651  27.273  52.393  1.00  0.00     0.124 A 
BRANCH   4   9
HETATM    9  C   UNL     1       6.671  24.467  53.605  1.00  0.00    -0.005 A 
HETATM   10  C   UNL     1       7.579  23.706  52.857  1.00  0.00     0.016 A 
HETATM   11  C   UNL     1       8.385  22.739  53.472  1.00  0.00     0.037 A 
HETATM   12  C   UNL     1       8.289  22.518  54.844  1.00  0.00     0.068 A 
HETATM   13  C   UNL     1       7.374  23.264  55.592  1.00  0.00     0.037 A 
HETATM   14  C   UNL     1       6.564  24.226  54.978  1.00  0.00     0.016 A 
BRANCH  12  15
HETATM   15  O   UNL     1       9.014  21.613  55.569  1.00  0.00    -0.356 OA
HETATM   16  C   UNL     1       8.281  20.614  56.266  1.00  0.00     0.210 C 
ENDBRANCH  12  15
ENDBRANCH   4   9
ENDBRANCH   1   3
BRANCH   2  17
HETATM   17  N   UNL     1       6.715  29.222  55.756  1.00  0.00    -0.243 N 
HETATM   18  C   UNL     1       5.918  30.116  56.461  1.00  0.00     0.271 C 
HETATM   19  O   UNL     1       4.791  30.480  56.140  1.00  0.00    -0.266 OA
HETATM   20  H   UNL     1       7.494  28.784  56.237  1.00  0.00     0.192 HD
BRANCH  18  21
HETATM   21  C   UNL     1       6.501  30.629  57.736  1.00  0.00     0.036 A 
HETATM   22  C   UNL     1       7.590  30.001  58.360  1.00  0.00     0.057 A 
HETATM   23  C   UNL     1       8.064  30.560  59.529  1.00  0.00     0.106 A 
HETATM   24  C   UNL     1       7.512  31.697  60.074  1.00  0.00     0.105 A 
HETATM   25  O   UNL     1       9.105  30.086  60.266  1.00  0.00    -0.323 OA
HETATM   26  O   UNL     1       8.135  32.078  61.222  1.00  0.00    -0.323 OA
HETATM   27  C   UNL     1       6.454  32.346  59.479  1.00  0.00     0.041 A 
HETATM   28  C   UNL     1       9.145  31.055  61.337  1.00  0.00     0.352 A 
HETATM   29  C   UNL     1       5.947  31.804  58.293  1.00  0.00     0.020 A 
ENDBRANCH  18  21
ENDBRANCH   2  17
TORSDOF 5
ENDMDL
MODEL 4
REMARK VINA RESULT:      -8.5      4.187      7.187
REMARK  5 active torsions:
REMARK  status: ('A' for Active; 'I' for Inactive)
REMARK    1  A    between atoms: O_2  and  C_3 
REMARK    2  A    between atoms: C_6  and  C_7 
REMARK    3  A    between atoms: C_12  and  C_13 
REMARK    4  A    between atoms: N_14  and  N_15 
REMARK       I    between atoms: N_15  and  C_16 
REMARK    5  A    between atoms: C_16  and  C_17 
ROOT
HETATM    1  C   UNL     1       8.703  31.001  59.420  1.00  0.00     0.154 C 
HETATM    2  N   UNL     1       9.109  31.975  60.171  1.00  0.00    -0.183 NA
ENDROOT
BRANCH   1   3
HETATM    3  C   UNL     1       9.587  30.512  58.383  1.00  0.00     0.031 A 
HETATM    4  C   UNL     1       9.378  29.460  57.434  1.00  0.00     0.100 A 
HETATM    5  N   UNL     1      10.472  29.283  56.671  1.00  0.00    -0.174 NA
HETATM    6  N   UNL     1      11.336  30.211  57.095  1.00  0.00    -0.288 N 
HETATM    7  H   UNL     1      12.242  30.265  56.642  1.00  0.00     0.188 HD
HETATM    8  C   UNL     1      10.860  30.974  58.113  1.00  0.00     0.124 A 
BRANCH   4   9
HETATM    9  C   UNL     1       8.196  28.619  57.231  1.00  0.00    -0.005 A 
HETATM   10  C   UNL     1       8.338  27.228  57.134  1.00  0.00     0.016 A 
HETATM   11  C   UNL     1       7.222  26.403  56.943  1.00  0.00     0.037 A 
HETATM   12  C   UNL     1       5.949  26.960  56.843  1.00  0.00     0.068 A 
HETATM   13  C   UNL     1       5.804  28.347  56.925  1.00  0.00     0.037 A 
HETATM   14  C   UNL     1       6.918  29.173  57.109  1.00  0.00     0.016 A 
BRANCH  12  15
HETATM   15  O   UNL     1       4.780  26.274  56.662  1.00  0.00    -0.356 OA
HETATM   16  C   UNL     1       4.659  25.025  57.329  1.00  0.00     0.210 C 
ENDBRANCH  12  15
ENDBRANCH   4   9
ENDBRANCH   1   3
BRANCH   2  17
HETATM   17  N   UNL     1       8.289  32.443  61.168  1.00  0.00    -0.243 N 
HETATM   18  C   UNL     1       8.057  31.838  62.398  1.00  0.00     0.271 C 
HETATM   19  O   UNL     1       8.544  30.779  62.779  1.00  0.00    -0.266 OA
HETATM   20  H   UNL     1       8.067  33.428  61.063  1.00  0.00     0.192 HD
BRANCH  18  21
HETATM   21  C   UNL     1       7.164  32.592  63.326  1.00  0.00     0.036 A 
HETATM   22  C   UNL     1       5.782  32.698  63.105  1.00  0.00     0.057 A 
HETATM   23  C   UNL     1       5.041  33.407  64.028  1.00  0.00     0.106 A 
HETATM   24  C   UNL     1       5.613  33.986  65.138  1.00  0.00     0.105 A 
HETATM   25  O   UNL     1       3.697  33.612  63.972  1.00  0.00    -0.323 OA
HETATM   26  O   UNL     1       4.701  34.629  65.916  1.00  0.00    -0.323 OA
HETATM   27  C   UNL     1       6.961  33.887  65.393  1.00  0.00     0.041 A 
HETATM   28  C   UNL     1       3.488  34.386  65.173  1.00  0.00     0.352 A 
HETATM   29  C   UNL     1       7.743  33.178  64.476  1.00  0.00     0.020 A 
ENDBRANCH  18  21
ENDBRANCH   2  17
TORSDOF 5
ENDMDL
MODEL 5
REMARK VINA RESULT:      -8.5      4.021      8.479
REMARK  5 active torsions:
REMARK  status: ('A' for Active; 'I' for Inactive)
REMARK    1  A    between atoms: O_2  and  C_3 
REMARK    2  A    between atoms: C_6  and  C_7 
REMARK    3  A    between atoms: C_12  and  C_13 
REMARK    4  A    between atoms: N_14  and  N_15 
REMARK       I    between atoms: N_15  and  C_16 
REMARK    5  A    between atoms: C_16  and  C_17 
ROOT
HETATM    1  C   UNL     1       5.894  26.645  54.457  1.00  0.00     0.154 C 
HETATM    2  N   UNL     1       6.332  26.953  53.277  1.00  0.00    -0.183 NA
ENDROOT
BRANCH   1   3
HETATM    3  C   UNL     1       6.805  26.737  55.578  1.00  0.00     0.031 A 
HETATM    4  C   UNL     1       7.684  25.743  56.116  1.00  0.00     0.100 A 
HETATM    5  N   UNL     1       8.328  26.213  57.200  1.00  0.00    -0.174 NA
HETATM    6  N   UNL     1       7.902  27.474  57.328  1.00  0.00    -0.288 N 
HETATM    7  H   UNL     1       8.273  28.031  58.091  1.00  0.00     0.188 HD
HETATM    8  C   UNL     1       6.994  27.840  56.387  1.00  0.00     0.124 A 
BRANCH   4   9
HETATM    9  C   UNL     1       7.927  24.374  55.653  1.00  0.00    -0.005 A 
HETATM   10  C   UNL     1       8.007  23.327  56.582  1.00  0.00     0.016 A 
HETATM   11  C   UNL     1       8.235  22.010  56.162  1.00  0.00     0.037 A 
HETATM   12  C   UNL     1       8.390  21.725  54.807  1.00  0.00     0.068 A 
HETATM   13  C   UNL     1       8.326  22.767  53.880  1.00  0.00     0.037 A 
HETATM   14  C   UNL     1       8.105  24.084  54.297  1.00  0.00     0.016 A 
BRANCH  12  15
HETATM   15  O   UNL     1       8.613  20.489  54.264  1.00  0.00    -0.356 OA
HETATM   16  C   UNL     1       8.377  20.351  52.869  1.00  0.00     0.210 C 
ENDBRANCH  12  15
ENDBRANCH   4   9
ENDBRANCH   1   3
BRANCH   2  17
HETATM   17  N   UNL     1       5.478  26.884  52.203  1.00  0.00    -0.243 N 
HETATM   18  C   UNL     1       5.219  27.899  51.289  1.00  0.00     0.271 C 
HETATM   19  O   UNL     1       5.706  29.024  51.309  1.00  0.00    -0.266 OA
HETATM   20  H   UNL     1       5.248  25.930  51.946  1.00  0.00     0.192 HD
BRANCH  18  21
HETATM   21  C   UNL     1       4.291  27.539  50.177  1.00  0.00     0.036 A 
HETATM   22  C   UNL     1       3.247  28.387  49.777  1.00  0.00     0.057 A 
HETATM   23  C   UNL     1       2.451  27.968  48.730  1.00  0.00     0.106 A 
HETATM   24  C   UNL     1       2.663  26.774  48.080  1.00  0.00     0.105 A 
HETATM   25  O   UNL     1       1.398  28.659  48.215  1.00  0.00    -0.323 OA
HETATM   26  O   UNL     1       1.769  26.564  47.077  1.00  0.00    -0.323 OA
HETATM   27  C   UNL     1       3.688  25.928  48.436  1.00  0.00     0.041 A 
HETATM   28  C   UNL     1       0.971  27.762  47.165  1.00  0.00     0.352 A 
HETATM   29  C   UNL     1       4.512  26.320  49.496  1.00  0.00     0.020 A 
ENDBRANCH  18  21
ENDBRANCH   2  17
TORSDOF 5
ENDMDL
MODEL 6
REMARK VINA RESULT:      -8.5      2.958      7.013
REMARK  5 active torsions:
REMARK  status: ('A' for Active; 'I' for Inactive)
REMARK    1  A    between atoms: O_2  and  C_3 
REMARK    2  A    between atoms: C_6  and  C_7 
REMARK    3  A    between atoms: C_12  and  C_13 
REMARK    4  A    between atoms: N_14  and  N_15 
REMARK       I    between atoms: N_15  and  C_16 
REMARK    5  A    between atoms: C_16  and  C_17 
ROOT
HETATM    1  C   UNL     1       7.427  23.430  52.563  1.00  0.00     0.154 C 
HETATM    2  N   UNL     1       6.350  24.129  52.732  1.00  0.00    -0.183 NA
ENDROOT
BRANCH   1   3
HETATM    3  C   UNL     1       7.688  22.332  53.469  1.00  0.00     0.031 A 
HETATM    4  C   UNL     1       7.904  22.355  54.884  1.00  0.00     0.100 A 
HETATM    5  N   UNL     1       8.166  21.120  55.347  1.00  0.00    -0.174 NA
HETATM    6  N   UNL     1       8.085  20.329  54.271  1.00  0.00    -0.288 N 
HETATM    7  H   UNL     1       8.242  19.335  54.393  1.00  0.00     0.188 HD
HETATM    8  C   UNL     1       7.801  21.000  53.124  1.00  0.00     0.124 A 
BRANCH   4   9
HETATM    9  C   UNL     1       7.882  23.495  55.805  1.00  0.00    -0.005 A 
HETATM   10  C   UNL     1       9.013  23.790  56.578  1.00  0.00     0.016 A 
HETATM   11  C   UNL     1       9.016  24.876  57.462  1.00  0.00     0.037 A 
HETATM   12  C   UNL     1       7.885  25.680  57.587  1.00  0.00     0.068 A 
HETATM   13  C   UNL     1       6.751  25.381  56.829  1.00  0.00     0.037 A 
HETATM   14  C   UNL     1       6.743  24.293  55.950  1.00  0.00     0.016 A 
BRANCH  12  15
HETATM   15  O   UNL     1       7.755  26.768  58.405  1.00  0.00    -0.356 OA
HETATM   16  C   UNL     1       7.417  28.001  57.783  1.00  0.00     0.210 C 
ENDBRANCH  12  15
ENDBRANCH   4   9
ENDBRANCH   1   3
BRANCH   2  17
HETATM   17  N   UNL     1       6.079  25.167  51.874  1.00  0.00    -0.243 N 
HETATM   18  C   UNL     1       5.256  26.257  52.131  1.00  0.00     0.271 C 
HETATM   19  O   UNL     1       4.629  26.454  53.167  1.00  0.00    -0.266 OA
HETATM   20  H   UNL     1       6.753  25.237  51.119  1.00  0.00     0.192 HD
BRANCH  18  21
HETATM   21  C   UNL     1       5.182  27.277  51.044  1.00  0.00     0.036 A 
HETATM   22  C   UNL     1       5.448  28.635  51.281  1.00  0.00     0.057 A 
HETATM   23  C   UNL     1       5.365  29.497  50.206  1.00  0.00     0.106 A 
HETATM   24  C   UNL     1       5.047  29.062  48.940  1.00  0.00     0.105 A 
HETATM   25  O   UNL     1       5.588  30.839  50.252  1.00  0.00    -0.323 OA
HETATM   26  O   UNL     1       5.027  30.075  48.033  1.00  0.00    -0.323 OA
HETATM   27  C   UNL     1       4.796  27.736  48.672  1.00  0.00     0.041 A 
HETATM   28  C   UNL     1       5.373  31.198  48.869  1.00  0.00     0.352 A 
HETATM   29  C   UNL     1       4.869  26.835  49.738  1.00  0.00     0.020 A 
ENDBRANCH  18  21
ENDBRANCH   2  17
TORSDOF 5
ENDMDL
MODEL 7
REMARK VINA RESULT:      -8.4      3.299      8.838
REMARK  5 active torsions:
REMARK  status: ('A' for Active; 'I' for Inactive)
REMARK    1  A    between atoms: O_2  and  C_3 
REMARK    2  A    between atoms: C_6  and  C_7 
REMARK    3  A    between atoms: C_12  and  C_13 
REMARK    4  A    between atoms: N_14  and  N_15 
REMARK       I    between atoms: N_15  and  C_16 
REMARK    5  A    between atoms: C_16  and  C_17 
ROOT
HETATM    1  C   UNL     1       5.619  27.932  55.443  1.00  0.00     0.154 C 
HETATM    2  N   UNL     1       6.466  27.483  54.571  1.00  0.00    -0.183 NA
ENDROOT
BRANCH   1   3
HETATM    3  C   UNL     1       5.193  29.312  55.348  1.00  0.00     0.031 A 
HETATM    4  C   UNL     1       5.538  30.427  56.178  1.00  0.00     0.100 A 
HETATM    5  N   UNL     1       4.885  31.534  55.782  1.00  0.00    -0.174 NA
HETATM    6  N   UNL     1       4.176  31.149  54.716  1.00  0.00    -0.288 N 
HETATM    7  H   UNL     1       3.604  31.841  54.244  1.00  0.00     0.188 HD
HETATM    8  C   UNL     1       4.323  29.833  54.411  1.00  0.00     0.124 A 
BRANCH   4   9
HETATM    9  C   UNL     1       6.446  30.480  57.326  1.00  0.00    -0.005 A 
HETATM   10  C   UNL     1       6.274  31.466  58.307  1.00  0.00     0.016 A 
HETATM   11  C   UNL     1       7.127  31.535  59.416  1.00  0.00     0.037 A 
HETATM   12  C   UNL     1       8.167  30.618  59.555  1.00  0.00     0.068 A 
HETATM   13  C   UNL     1       8.351  29.642  58.573  1.00  0.00     0.037 A 
HETATM   14  C   UNL     1       7.504  29.576  57.462  1.00  0.00     0.016 A 
BRANCH  12  15
HETATM   15  O   UNL     1       9.067  30.569  60.585  1.00  0.00    -0.356 OA
HETATM   16  C   UNL     1       9.490  31.813  61.126  1.00  0.00     0.210 C 
ENDBRANCH  12  15
ENDBRANCH   4   9
ENDBRANCH   1   3
BRANCH   2  17
HETATM   17  N   UNL     1       6.871  26.173  54.638  1.00  0.00    -0.243 N 
HETATM   18  C   UNL     1       6.469  25.141  53.799  1.00  0.00     0.271 C 
HETATM   19  O   UNL     1       5.673  25.240  52.871  1.00  0.00    -0.266 OA
HETATM   20  H   UNL     1       7.720  26.053  55.181  1.00  0.00     0.192 HD
BRANCH  18  21
HETATM   21  C   UNL     1       7.111  23.817  54.055  1.00  0.00     0.036 A 
HETATM   22  C   UNL     1       7.335  23.340  55.355  1.00  0.00     0.057 A 
HETATM   23  C   UNL     1       7.925  22.098  55.485  1.00  0.00     0.106 A 
HETATM   24  C   UNL     1       8.277  21.337  54.395  1.00  0.00     0.105 A 
HETATM   25  O   UNL     1       8.216  21.483  56.663  1.00  0.00    -0.323 OA
HETATM   26  O   UNL     1       8.836  20.149  54.751  1.00  0.00    -0.323 OA
HETATM   27  C   UNL     1       8.057  21.769  53.108  1.00  0.00     0.041 A 
HETATM   28  C   UNL     1       8.793  20.246  56.189  1.00  0.00     0.352 A 
HETATM   29  C   UNL     1       7.463  23.024  52.939  1.00  0.00     0.020 A 
ENDBRANCH  18  21
ENDBRANCH   2  17
TORSDOF 5
ENDMDL
MODEL 8
REMARK VINA RESULT:      -8.3      3.740      8.240
REMARK  5 active torsions:
REMARK  status: ('A' for Active; 'I' for Inactive)
REMARK    1  A    between atoms: O_2  and  C_3 
REMARK    2  A    between atoms: C_6  and  C_7 
REMARK    3  A    between atoms: C_12  and  C_13 
REMARK    4  A    between atoms: N_14  and  N_15 
REMARK       I    between atoms: N_15  and  C_16 
REMARK    5  A    between atoms: C_16  and  C_17 
ROOT
HETATM    1  C   UNL     1       8.171  28.892  57.246  1.00  0.00     0.154 C 
HETATM    2  N   UNL     1       8.001  27.721  57.771  1.00  0.00    -0.183 NA
ENDROOT
BRANCH   1   3
HETATM    3  C   UNL     1       8.161  30.049  58.116  1.00  0.00     0.031 A 
HETATM    4  C   UNL     1       7.143  31.040  58.297  1.00  0.00     0.100 A 
HETATM    5  N   UNL     1       7.547  31.985  59.165  1.00  0.00    -0.174 NA
HETATM    6  N   UNL     1       8.766  31.593  59.552  1.00  0.00    -0.288 N 
HETATM    7  H   UNL     1       9.263  32.165  60.226  1.00  0.00     0.188 HD
HETATM    8  C   UNL     1       9.181  30.443  58.959  1.00  0.00     0.124 A 
BRANCH   4   9
HETATM    9  C   UNL     1       5.819  31.130  57.676  1.00  0.00    -0.005 A 
HETATM   10  C   UNL     1       5.043  29.974  57.518  1.00  0.00     0.016 A 
HETATM   11  C   UNL     1       3.772  30.035  56.931  1.00  0.00     0.037 A 
HETATM   12  C   UNL     1       3.264  31.255  56.491  1.00  0.00     0.068 A 
HETATM   13  C   UNL     1       4.040  32.408  56.634  1.00  0.00     0.037 A 
HETATM   14  C   UNL     1       5.311  32.347  57.214  1.00  0.00     0.016 A 
BRANCH  12  15
HETATM   15  O   UNL     1       2.044  31.457  55.907  1.00  0.00    -0.356 OA
HETATM   16  C   UNL     1       1.924  32.579  55.042  1.00  0.00     0.210 C 
ENDBRANCH  12  15
ENDBRANCH   4   9
ENDBRANCH   1   3
BRANCH   2  17
HETATM   17  N   UNL     1       8.020  26.611  56.962  1.00  0.00    -0.243 N 
HETATM   18  C   UNL     1       6.967  26.135  56.191  1.00  0.00     0.271 C 
HETATM   19  O   UNL     1       5.846  26.629  56.123  1.00  0.00    -0.266 OA
HETATM   20  H   UNL     1       8.961  26.305  56.739  1.00  0.00     0.192 HD
BRANCH  18  21
HETATM   21  C   UNL     1       7.274  24.938  55.352  1.00  0.00     0.036 A 
HETATM   22  C   UNL     1       7.284  23.641  55.886  1.00  0.00     0.057 A 
HETATM   23  C   UNL     1       7.569  22.599  55.026  1.00  0.00     0.106 A 
HETATM   24  C   UNL     1       7.824  22.802  53.689  1.00  0.00     0.105 A 
HETATM   25  O   UNL     1       7.623  21.284  55.370  1.00  0.00    -0.323 OA
HETATM   26  O   UNL     1       8.073  21.641  53.026  1.00  0.00    -0.323 OA
HETATM   27  C   UNL     1       7.806  24.060  53.131  1.00  0.00     0.041 A 
HETATM   28  C   UNL     1       7.942  20.682  54.096  1.00  0.00     0.352 A 
HETATM   29  C   UNL     1       7.524  25.139  53.975  1.00  0.00     0.020 A 
ENDBRANCH  18  21
ENDBRANCH   2  17
TORSDOF 5
ENDMDL
MODEL 9
REMARK VINA RESULT:      -8.2      3.974      6.394
REMARK  5 active torsions:
REMARK  status: ('A' for Active; 'I' for Inactive)
REMARK    1  A    between atoms: O_2  and  C_3 
REMARK    2  A    between atoms: C_6  and  C_7 
REMARK    3  A    between atoms: C_12  and  C_13 
REMARK    4  A    between atoms: N_14  and  N_15 
REMARK       I    between atoms: N_15  and  C_16 
REMARK    5  A    between atoms: C_16  and  C_17 
ROOT
HETATM    1  C   UNL     1       4.805  30.043  57.829  1.00  0.00     0.154 C 
HETATM    2  N   UNL     1       5.466  31.126  58.091  1.00  0.00    -0.183 NA
ENDROOT
BRANCH   1   3
HETATM    3  C   UNL     1       4.634  29.654  56.446  1.00  0.00     0.031 A 
HETATM    4  C   UNL     1       5.235  28.571  55.727  1.00  0.00     0.100 A 
HETATM    5  N   UNL     1       4.852  28.585  54.437  1.00  0.00    -0.174 NA
HETATM    6  N   UNL     1       4.008  29.619  54.344  1.00  0.00    -0.288 N 
HETATM    7  H   UNL     1       3.583  29.812  53.443  1.00  0.00     0.188 HD
HETATM    8  C   UNL     1       3.841  30.291  55.513  1.00  0.00     0.124 A 
BRANCH   4   9
HETATM    9  C   UNL     1       6.158  27.540  56.208  1.00  0.00    -0.005 A 
HETATM   10  C   UNL     1       7.410  27.907  56.717  1.00  0.00     0.016 A 
HETATM   11  C   UNL     1       8.308  26.939  57.187  1.00  0.00     0.037 A 
HETATM   12  C   UNL     1       7.964  25.589  57.148  1.00  0.00     0.068 A 
HETATM   13  C   UNL     1       6.722  25.218  56.628  1.00  0.00     0.037 A 
HETATM   14  C   UNL     1       5.827  26.183  56.153  1.00  0.00     0.016 A 
BRANCH  12  15
HETATM   15  O   UNL     1       8.739  24.547  57.575  1.00  0.00    -0.356 OA
HETATM   16  C   UNL     1       8.440  23.264  57.040  1.00  0.00     0.210 C 
ENDBRANCH  12  15
ENDBRANCH   4   9
ENDBRANCH   1   3
BRANCH   2  17
HETATM   17  N   UNL     1       5.649  31.504  59.399  1.00  0.00    -0.243 N 
HETATM   18  C   UNL     1       6.800  32.061  59.943  1.00  0.00     0.271 C 
HETATM   19  O   UNL     1       7.842  32.291  59.337  1.00  0.00    -0.266 OA
HETATM   20  H   UNL     1       4.774  31.611  59.902  1.00  0.00     0.192 HD
BRANCH  18  21
HETATM   21  C   UNL     1       6.712  32.437  61.385  1.00  0.00     0.036 A 
HETATM   22  C   UNL     1       5.484  32.699  62.010  1.00  0.00     0.057 A 
HETATM   23  C   UNL     1       5.508  33.026  63.351  1.00  0.00     0.106 A 
HETATM   24  C   UNL     1       6.680  33.088  64.069  1.00  0.00     0.105 A 
HETATM   25  O   UNL     1       4.418  33.312  64.113  1.00  0.00    -0.323 OA
HETATM   26  O   UNL     1       6.474  33.422  65.371  1.00  0.00    -0.323 OA
HETATM   27  C   UNL     1       7.899  32.822  63.490  1.00  0.00     0.041 A 
HETATM   28  C   UNL     1       5.038  33.561  65.394  1.00  0.00     0.352 A 
HETATM   29  C   UNL     1       7.912  32.488  62.132  1.00  0.00     0.020 A 
ENDBRANCH  18  21
ENDBRANCH   2  17
TORSDOF 5
ENDMDL
MODEL 10
REMARK VINA RESULT:      -7.9      3.073      8.002
REMARK  5 active torsions:
REMARK  status: ('A' for Active; 'I' for Inactive)
REMARK    1  A    between atoms: O_2  and  C_3 
REMARK    2  A    between atoms: C_6  and  C_7 
REMARK    3  A    between atoms: C_12  and  C_13 
REMARK    4  A    between atoms: N_14  and  N_15 
REMARK       I    between atoms: N_15  and  C_16 
REMARK    5  A    between atoms: C_16  and  C_17 
ROOT
HETATM    1  C   UNL     1       6.810  24.191  52.836  1.00  0.00     0.154 C 
HETATM    2  N   UNL     1       7.214  25.171  52.091  1.00  0.00    -0.183 NA
ENDROOT
BRANCH   1   3
HETATM    3  C   UNL     1       7.717  23.659  53.830  1.00  0.00     0.031 A 
HETATM    4  C   UNL     1       8.048  24.176  55.125  1.00  0.00     0.100 A 
HETATM    5  N   UNL     1       8.978  23.408  55.720  1.00  0.00    -0.174 NA
HETATM    6  N   UNL     1       9.208  22.417  54.852  1.00  0.00    -0.288 N 
HETATM    7  H   UNL     1       9.882  21.703  55.106  1.00  0.00     0.188 HD
HETATM    8  C   UNL     1       8.482  22.516  53.708  1.00  0.00     0.124 A 
BRANCH   4   9
HETATM    9  C   UNL     1       7.527  25.362  55.808  1.00  0.00    -0.005 A 
HETATM   10  C   UNL     1       8.277  25.966  56.827  1.00  0.00     0.016 A 
HETATM   11  C   UNL     1       7.802  27.103  57.492  1.00  0.00     0.037 A 
HETATM   12  C   UNL     1       6.567  27.650  57.148  1.00  0.00     0.068 A 
HETATM   13  C   UNL     1       5.810  27.044  56.143  1.00  0.00     0.037 A 
HETATM   14  C   UNL     1       6.280  25.904  55.482  1.00  0.00     0.016 A 
BRANCH  12  15
HETATM   15  O   UNL     1       5.989  28.755  57.711  1.00  0.00    -0.356 OA
HETATM   16  C   UNL     1       6.055  29.963  56.965  1.00  0.00     0.210 C 
ENDBRANCH  12  15
ENDBRANCH   4   9
ENDBRANCH   1   3
BRANCH   2  17
HETATM   17  N   UNL     1       6.362  25.697  51.150  1.00  0.00    -0.243 N 
HETATM   18  C   UNL     1       5.469  26.745  51.340  1.00  0.00     0.271 C 
HETATM   19  O   UNL     1       5.294  27.357  52.388  1.00  0.00    -0.266 OA
HETATM   20  H   UNL     1       6.626  25.451  50.201  1.00  0.00     0.192 HD
BRANCH  18  21
HETATM   21  C   UNL     1       4.701  27.161  50.129  1.00  0.00     0.036 A 
HETATM   22  C   UNL     1       4.425  28.508  49.852  1.00  0.00     0.057 A 
HETATM   23  C   UNL     1       3.718  28.790  48.700  1.00  0.00     0.106 A 
HETATM   24  C   UNL     1       3.299  27.804  47.837  1.00  0.00     0.105 A 
HETATM   25  O   UNL     1       3.361  30.034  48.278  1.00  0.00    -0.323 OA
HETATM   26  O   UNL     1       2.627  28.303  46.766  1.00  0.00    -0.323 OA
HETATM   27  C   UNL     1       3.568  26.475  48.072  1.00  0.00     0.041 A 
HETATM   28  C   UNL     1       2.671  29.717  47.049  1.00  0.00     0.352 A 
HETATM   29  C   UNL     1       4.280  26.153  49.231  1.00  0.00     0.020 A 
ENDBRANCH  18  21
ENDBRANCH   2  17
TORSDOF 5
ENDMDL
