MODEL 1
REMARK VINA RESULT:     -10.7      0.000      0.000
REMARK  4 active torsions:
REMARK  status: ('A' for Active; 'I' for Inactive)
REMARK    1  A    between atoms: N_2  and  C_4 
REMARK    2  A    between atoms: N_2  and  C_16 
REMARK    3  A    between atoms: C_4  and  C_5 
REMARK    4  A    between atoms: C_16  and  C_17 
ROOT
HETATM    1  C   UNL     1       5.871  25.312  57.057  1.00  0.00     0.270 C 
HETATM    2  N   UNL     1       7.008  26.231  57.407  1.00  0.00    -0.064 N 
HETATM    3  H   UNL     1       6.839  26.523  58.385  1.00  0.00     0.280 HD
ENDROOT
BRANCH   2   4
HETATM    4  C   UNL     1       8.346  25.502  57.455  1.00  0.00     0.312 C 
BRANCH   4   5
HETATM    5  C   UNL     1       8.291  24.184  56.693  1.00  0.00     0.133 A 
HETATM    6  N   UNL     1       8.186  24.215  55.402  1.00  0.00    -0.233 NA
HETATM    7  C   UNL     1       8.136  22.976  54.726  1.00  0.00     0.074 A 
HETATM    8  C   UNL     1       8.195  21.749  55.396  1.00  0.00     0.061 A 
HETATM    9  C   UNL     1       8.025  22.966  53.335  1.00  0.00     0.032 A 
HETATM   10  C   UNL     1       8.313  21.785  56.862  1.00  0.00     0.259 A 
HETATM   11  C   UNL     1       8.147  20.533  54.710  1.00  0.00     0.019 A 
HETATM   12  O   UNL     1       8.375  20.777  57.553  1.00  0.00    -0.267 OA
HETATM   13  N   UNL     1       8.354  23.035  57.427  1.00  0.00    -0.309 N 
HETATM   14  H   UNL     1       8.422  23.021  58.438  1.00  0.00     0.170 HD
HETATM   15  C   UNL     1       8.036  20.541  53.321  1.00  0.00     0.001 A 
HETATM   16  C   UNL     1       7.976  21.756  52.635  1.00  0.00     0.002 A 
ENDBRANCH   4   5
ENDBRANCH   2   4
BRANCH   2  17
HETATM   17  C   UNL     1       7.083  27.468  56.552  1.00  0.00     0.273 C 
BRANCH  17  18
HETATM   18  C   UNL     1       7.765  28.638  57.205  1.00  0.00    -0.028 A 
HETATM   19  C   UNL     1       9.146  28.837  57.049  1.00  0.00     0.035 A 
HETATM   20  C   UNL     1       9.776  29.949  57.620  1.00  0.00     0.070 A 
HETATM   21 CL   UNL     1      11.468  30.149  57.349  1.00  0.00    -0.081 Cl
HETATM   22  C   UNL     1       9.044  30.864  58.382  1.00  0.00     0.123 A 
HETATM   23  C   UNL     1       7.673  30.659  58.557  1.00  0.00     0.104 A 
HETATM   24  O   UNL     1       9.665  32.000  58.825  1.00  0.00    -0.346 OA
HETATM   25  O   UNL     1       6.859  31.544  59.210  1.00  0.00    -0.348 OA
HETATM   26  C   UNL     1       7.034  29.568  57.958  1.00  0.00     0.048 A 
HETATM   27  C   UNL     1       7.218  31.709  60.586  1.00  0.00     0.178 C 
HETATM   28  C   UNL     1       8.371  32.683  60.772  1.00  0.00     0.053 C 
HETATM   29  C   UNL     1       9.673  32.099  60.249  1.00  0.00     0.178 C 
ENDBRANCH  17  18
ENDBRANCH   2  17
TORSDOF 4
ENDMDL
MODEL 2
REMARK VINA RESULT:     -10.5      1.310      1.850
REMARK  4 active torsions:
REMARK  status: ('A' for Active; 'I' for Inactive)
REMARK    1  A    between atoms: N_2  and  C_4 
REMARK    2  A    between atoms: N_2  and  C_16 
REMARK    3  A    between atoms: C_4  and  C_5 
REMARK    4  A    between atoms: C_16  and  C_17 
ROOT
HETATM    1  C   UNL     1       5.521  25.540  56.958  1.00  0.00     0.270 C 
HETATM    2  N   UNL     1       6.760  26.323  57.294  1.00  0.00    -0.064 N 
HETATM    3  H   UNL     1       6.629  26.646  58.269  1.00  0.00     0.280 HD
ENDROOT
BRANCH   2   4
HETATM    4  C   UNL     1       8.002  25.442  57.350  1.00  0.00     0.312 C 
BRANCH   4   5
HETATM    5  C   UNL     1       8.041  24.457  56.189  1.00  0.00     0.133 A 
HETATM    6  N   UNL     1       8.176  23.194  56.447  1.00  0.00    -0.233 NA
HETATM    7  C   UNL     1       8.210  22.307  55.348  1.00  0.00     0.074 A 
HETATM    8  C   UNL     1       8.104  22.745  54.024  1.00  0.00     0.061 A 
HETATM    9  C   UNL     1       8.353  20.939  55.585  1.00  0.00     0.032 A 
HETATM   10  C   UNL     1       7.953  24.191  53.800  1.00  0.00     0.259 A 
HETATM   11  C   UNL     1       8.136  21.853  52.950  1.00  0.00     0.019 A 
HETATM   12  O   UNL     1       7.849  24.688  52.687  1.00  0.00    -0.267 OA
HETATM   13  N   UNL     1       7.931  24.971  54.930  1.00  0.00    -0.309 N 
HETATM   14  H   UNL     1       7.839  25.961  54.737  1.00  0.00     0.170 HD
HETATM   15  C   UNL     1       8.279  20.490  53.203  1.00  0.00     0.001 A 
HETATM   16  C   UNL     1       8.387  20.034  54.519  1.00  0.00     0.002 A 
ENDBRANCH   4   5
ENDBRANCH   2   4
BRANCH   2  17
HETATM   17  C   UNL     1       6.977  27.532  56.422  1.00  0.00     0.273 C 
BRANCH  17  18
HETATM   18  C   UNL     1       7.683  28.672  57.102  1.00  0.00    -0.028 A 
HETATM   19  C   UNL     1       9.071  28.831  56.971  1.00  0.00     0.035 A 
HETATM   20  C   UNL     1       9.724  29.917  57.566  1.00  0.00     0.070 A 
HETATM   21 CL   UNL     1      11.426  30.070  57.325  1.00  0.00    -0.081 Cl
HETATM   22  C   UNL     1       9.008  30.844  58.328  1.00  0.00     0.123 A 
HETATM   23  C   UNL     1       7.629  30.678  58.478  1.00  0.00     0.104 A 
HETATM   24  O   UNL     1       9.655  31.955  58.796  1.00  0.00    -0.346 OA
HETATM   25  O   UNL     1       6.831  31.578  59.130  1.00  0.00    -0.348 OA
HETATM   26  C   UNL     1       6.967  29.613  57.855  1.00  0.00     0.048 A 
HETATM   27  C   UNL     1       7.172  31.715  60.513  1.00  0.00     0.178 C 
HETATM   28  C   UNL     1       8.349  32.652  60.731  1.00  0.00     0.053 C 
HETATM   29  C   UNL     1       9.642  32.036  60.222  1.00  0.00     0.178 C 
ENDBRANCH  17  18
ENDBRANCH   2  17
TORSDOF 4
ENDMDL
MODEL 3
REMARK VINA RESULT:     -10.0      1.264      1.567
REMARK  4 active torsions:
REMARK  status: ('A' for Active; 'I' for Inactive)
REMARK    1  A    between atoms: N_2  and  C_4 
REMARK    2  A    between atoms: N_2  and  C_16 
REMARK    3  A    between atoms: C_4  and  C_5 
REMARK    4  A    between atoms: C_16  and  C_17 
ROOT
HETATM    1  C   UNL     1       5.040  26.869  56.495  1.00  0.00     0.270 C 
HETATM    2  N   UNL     1       6.309  27.464  55.949  1.00  0.00    -0.064 N 
HETATM    3  H   UNL     1       7.049  27.209  56.625  1.00  0.00     0.280 HD
ENDROOT
BRANCH   2   4
HETATM    4  C   UNL     1       6.741  26.802  54.645  1.00  0.00     0.312 C 
BRANCH   4   5
HETATM    5  C   UNL     1       7.279  25.397  54.885  1.00  0.00     0.133 A 
HETATM    6  N   UNL     1       7.203  24.529  53.925  1.00  0.00    -0.233 NA
HETATM    7  C   UNL     1       7.709  23.235  54.180  1.00  0.00     0.074 A 
HETATM    8  C   UNL     1       8.275  22.876  55.408  1.00  0.00     0.061 A 
HETATM    9  C   UNL     1       7.647  22.272  53.172  1.00  0.00     0.032 A 
HETATM   10  C   UNL     1       8.330  23.909  56.455  1.00  0.00     0.259 A 
HETATM   11  C   UNL     1       8.773  21.592  55.641  1.00  0.00     0.019 A 
HETATM   12  O   UNL     1       8.805  23.711  57.565  1.00  0.00    -0.267 OA
HETATM   13  N   UNL     1       7.814  25.133  56.112  1.00  0.00    -0.309 N 
HETATM   14  H   UNL     1       7.857  25.815  56.860  1.00  0.00     0.170 HD
HETATM   15  C   UNL     1       8.703  20.642  54.624  1.00  0.00     0.001 A 
HETATM   16  C   UNL     1       8.141  20.982  53.392  1.00  0.00     0.002 A 
ENDBRANCH   4   5
ENDBRANCH   2   4
BRANCH   2  17
HETATM   17  C   UNL     1       6.279  28.964  55.825  1.00  0.00     0.273 C 
BRANCH  17  18
HETATM   18  C   UNL     1       7.188  29.687  56.779  1.00  0.00    -0.028 A 
HETATM   19  C   UNL     1       8.579  29.516  56.708  1.00  0.00     0.035 A 
HETATM   20  C   UNL     1       9.430  30.221  57.566  1.00  0.00     0.070 A 
HETATM   21 CL   UNL     1      11.131  29.991  57.390  1.00  0.00    -0.081 Cl
HETATM   22  C   UNL     1       8.906  31.085  58.531  1.00  0.00     0.123 A 
HETATM   23  C   UNL     1       7.520  31.243  58.620  1.00  0.00     0.104 A 
HETATM   24  O   UNL     1       9.767  31.847  59.273  1.00  0.00    -0.346 OA
HETATM   25  O   UNL     1       6.919  32.131  59.470  1.00  0.00    -0.348 OA
HETATM   26  C   UNL     1       6.669  30.567  57.739  1.00  0.00     0.048 A 
HETATM   27  C   UNL     1       7.179  31.836  60.847  1.00  0.00     0.178 C 
HETATM   28  C   UNL     1       8.529  32.360  61.308  1.00  0.00     0.053 C 
HETATM   29  C   UNL     1       9.668  31.579  60.672  1.00  0.00     0.178 C 
ENDBRANCH  17  18
ENDBRANCH   2  17
TORSDOF 4
ENDMDL
MODEL 4
REMARK VINA RESULT:      -9.9      2.469      3.430
REMARK  4 active torsions:
REMARK  status: ('A' for Active; 'I' for Inactive)
REMARK    1  A    between atoms: N_2  and  C_4 
REMARK    2  A    between atoms: N_2  and  C_16 
REMARK    3  A    between atoms: C_4  and  C_5 
REMARK    4  A    between atoms: C_16  and  C_17 
ROOT
HETATM    1  C   UNL     1       5.001  26.304  52.417  1.00  0.00     0.270 C 
HETATM    2  N   UNL     1       6.289  26.543  53.156  1.00  0.00    -0.064 N 
HETATM    3  H   UNL     1       6.118  26.221  54.124  1.00  0.00     0.280 HD
ENDROOT
BRANCH   2   4
HETATM    4  C   UNL     1       7.417  25.649  52.653  1.00  0.00     0.312 C 
BRANCH   4   5
HETATM    5  C   UNL     1       7.704  24.512  53.626  1.00  0.00     0.133 A 
HETATM    6  N   UNL     1       7.928  23.326  53.152  1.00  0.00    -0.233 NA
HETATM    7  C   UNL     1       8.188  22.295  54.081  1.00  0.00     0.074 A 
HETATM    8  C   UNL     1       8.210  22.514  55.462  1.00  0.00     0.061 A 
HETATM    9  C   UNL     1       8.436  21.005  53.609  1.00  0.00     0.032 A 
HETATM   10  C   UNL     1       7.947  23.881  55.935  1.00  0.00     0.259 A 
HETATM   11  C   UNL     1       8.473  21.481  56.366  1.00  0.00     0.019 A 
HETATM   12  O   UNL     1       7.944  24.191  57.118  1.00  0.00    -0.267 OA
HETATM   13  N   UNL     1       7.705  24.814  54.957  1.00  0.00    -0.309 N 
HETATM   14  H   UNL     1       7.515  25.741  55.319  1.00  0.00     0.170 HD
HETATM   15  C   UNL     1       8.719  20.198  55.878  1.00  0.00     0.001 A 
HETATM   16  C   UNL     1       8.700  19.961  54.503  1.00  0.00     0.002 A 
ENDBRANCH   4   5
ENDBRANCH   2   4
BRANCH   2  17
HETATM   17  C   UNL     1       6.709  27.988  53.206  1.00  0.00     0.273 C 
BRANCH  17  18
HETATM   18  C   UNL     1       6.942  28.521  54.592  1.00  0.00    -0.028 A 
HETATM   19  C   UNL     1       5.864  28.947  55.384  1.00  0.00     0.035 A 
HETATM   20  C   UNL     1       6.074  29.403  56.690  1.00  0.00     0.070 A 
HETATM   21 CL   UNL     1       4.695  29.868  57.617  1.00  0.00    -0.081 Cl
HETATM   22  C   UNL     1       7.366  29.471  57.218  1.00  0.00     0.123 A 
HETATM   23  C   UNL     1       8.445  29.068  56.427  1.00  0.00     0.104 A 
HETATM   24  O   UNL     1       7.525  29.807  58.534  1.00  0.00    -0.346 OA
HETATM   25  O   UNL     1       9.733  29.015  56.884  1.00  0.00    -0.348 OA
HETATM   26  C   UNL     1       8.235  28.578  55.133  1.00  0.00     0.048 A 
HETATM   27  C   UNL     1      10.233  30.299  57.270  1.00  0.00     0.178 C 
HETATM   28  C   UNL     1       9.788  30.699  58.668  1.00  0.00     0.053 C 
HETATM   29  C   UNL     1       8.298  30.996  58.706  1.00  0.00     0.178 C 
ENDBRANCH  17  18
ENDBRANCH   2  17
TORSDOF 4
ENDMDL
MODEL 5
REMARK VINA RESULT:      -9.8      2.482      9.326
REMARK  4 active torsions:
REMARK  status: ('A' for Active; 'I' for Inactive)
REMARK    1  A    between atoms: N_2  and  C_4 
REMARK    2  A    between atoms: N_2  and  C_16 
REMARK    3  A    between atoms: C_4  and  C_5 
REMARK    4  A    between atoms: C_16  and  C_17 
ROOT
HETATM    1  C   UNL     1       5.596  28.272  57.084  1.00  0.00     0.270 C 
HETATM    2  N   UNL     1       6.914  27.780  56.552  1.00  0.00    -0.064 N 
HETATM    3  H   UNL     1       6.753  27.580  55.550  1.00  0.00     0.280 HD
ENDROOT
BRANCH   2   4
HETATM    4  C   UNL     1       7.980  28.869  56.555  1.00  0.00     0.312 C 
BRANCH   4   5
HETATM    5  C   UNL     1       7.789  29.834  57.719  1.00  0.00     0.133 A 
HETATM    6  N   UNL     1       8.477  29.649  58.801  1.00  0.00    -0.233 NA
HETATM    7  C   UNL     1       8.275  30.560  59.862  1.00  0.00     0.074 A 
HETATM    8  C   UNL     1       7.376  31.628  59.776  1.00  0.00     0.061 A 
HETATM    9  C   UNL     1       8.999  30.396  61.043  1.00  0.00     0.032 A 
HETATM   10  C   UNL     1       6.626  31.781  58.520  1.00  0.00     0.259 A 
HETATM   11  C   UNL     1       7.192  32.520  60.834  1.00  0.00     0.019 A 
HETATM   12  O   UNL     1       5.816  32.678  58.330  1.00  0.00    -0.267 OA
HETATM   13  N   UNL     1       6.891  30.847  57.549  1.00  0.00    -0.309 N 
HETATM   14  H   UNL     1       6.347  30.976  56.704  1.00  0.00     0.170 HD
HETATM   15  C   UNL     1       7.923  32.343  62.008  1.00  0.00     0.001 A 
HETATM   16  C   UNL     1       8.825  31.282  62.112  1.00  0.00     0.002 A 
ENDBRANCH   4   5
ENDBRANCH   2   4
BRANCH   2  17
HETATM   17  C   UNL     1       7.409  26.519  57.211  1.00  0.00     0.273 C 
BRANCH  17  18
HETATM   18  C   UNL     1       7.700  25.392  56.260  1.00  0.00    -0.028 A 
HETATM   19  C   UNL     1       7.626  25.591  54.873  1.00  0.00     0.035 A 
HETATM   20  C   UNL     1       7.939  24.555  53.986  1.00  0.00     0.070 A 
HETATM   21 CL   UNL     1       7.866  24.888  52.294  1.00  0.00    -0.081 Cl
HETATM   22  C   UNL     1       8.302  23.294  54.468  1.00  0.00     0.123 A 
HETATM   23  C   UNL     1       8.357  23.085  55.848  1.00  0.00     0.104 A 
HETATM   24  O   UNL     1       8.715  22.341  53.578  1.00  0.00    -0.346 OA
HETATM   25  O   UNL     1       8.786  21.916  56.413  1.00  0.00    -0.348 OA
HETATM   26  C   UNL     1       8.079  24.129  56.738  1.00  0.00     0.048 A 
HETATM   27  C   UNL     1       7.953  20.803  56.073  1.00  0.00     0.178 C 
HETATM   28  C   UNL     1       8.286  20.225  54.706  1.00  0.00     0.053 C 
HETATM   29  C   UNL     1       7.884  21.180  53.594  1.00  0.00     0.178 C 
ENDBRANCH  17  18
ENDBRANCH   2  17
TORSDOF 4
ENDMDL
MODEL 6
REMARK VINA RESULT:      -9.8      3.055      9.485
REMARK  4 active torsions:
REMARK  status: ('A' for Active; 'I' for Inactive)
REMARK    1  A    between atoms: N_2  and  C_4 
REMARK    2  A    between atoms: N_2  and  C_16 
REMARK    3  A    between atoms: C_4  and  C_5 
REMARK    4  A    between atoms: C_16  and  C_17 
ROOT
HETATM    1  C   UNL     1       8.314  29.484  56.592  1.00  0.00     0.270 C 
HETATM    2  N   UNL     1       7.251  29.457  57.656  1.00  0.00    -0.064 N 
HETATM    3  H   UNL     1       7.727  29.137  58.517  1.00  0.00     0.280 HD
ENDROOT
BRANCH   2   4
HETATM    4  C   UNL     1       6.745  30.853  58.001  1.00  0.00     0.312 C 
BRANCH   4   5
HETATM    5  C   UNL     1       7.102  31.239  59.431  1.00  0.00     0.133 A 
HETATM    6  N   UNL     1       6.486  32.238  59.979  1.00  0.00    -0.233 NA
HETATM    7  C   UNL     1       6.842  32.571  61.305  1.00  0.00     0.074 A 
HETATM    8  C   UNL     1       7.817  31.869  62.022  1.00  0.00     0.061 A 
HETATM    9  C   UNL     1       6.199  33.640  61.931  1.00  0.00     0.032 A 
HETATM   10  C   UNL     1       8.479  30.746  61.340  1.00  0.00     0.259 A 
HETATM   11  C   UNL     1       8.153  32.211  63.333  1.00  0.00     0.019 A 
HETATM   12  O   UNL     1       9.343  30.060  61.868  1.00  0.00    -0.267 OA
HETATM   13  N   UNL     1       8.065  30.501  60.055  1.00  0.00    -0.309 N 
HETATM   14  H   UNL     1       8.552  29.730  59.613  1.00  0.00     0.170 HD
HETATM   15  C   UNL     1       7.502  33.281  63.945  1.00  0.00     0.001 A 
HETATM   16  C   UNL     1       6.526  33.993  63.245  1.00  0.00     0.002 A 
ENDBRANCH   4   5
ENDBRANCH   2   4
BRANCH   2  17
HETATM   17  C   UNL     1       6.115  28.513  57.365  1.00  0.00     0.273 C 
BRANCH  17  18
HETATM   18  C   UNL     1       6.538  27.182  56.807  1.00  0.00    -0.028 A 
HETATM   19  C   UNL     1       7.480  26.392  57.483  1.00  0.00     0.035 A 
HETATM   20  C   UNL     1       7.842  25.133  56.988  1.00  0.00     0.070 A 
HETATM   21 CL   UNL     1       8.975  24.201  57.897  1.00  0.00    -0.081 Cl
HETATM   22  C   UNL     1       7.294  24.657  55.794  1.00  0.00     0.123 A 
HETATM   23  C   UNL     1       6.371  25.449  55.107  1.00  0.00     0.104 A 
HETATM   24  O   UNL     1       7.578  23.377  55.402  1.00  0.00    -0.346 OA
HETATM   25  O   UNL     1       5.715  25.032  53.981  1.00  0.00    -0.348 OA
HETATM   26  C   UNL     1       5.980  26.692  55.618  1.00  0.00     0.048 A 
HETATM   27  C   UNL     1       6.606  24.767  52.893  1.00  0.00     0.178 C 
HETATM   28  C   UNL     1       7.247  23.392  52.989  1.00  0.00     0.053 C 
HETATM   29  C   UNL     1       8.240  23.327  54.137  1.00  0.00     0.178 C 
ENDBRANCH  17  18
ENDBRANCH   2  17
TORSDOF 4
ENDMDL
MODEL 7
REMARK VINA RESULT:      -9.8      3.884      5.809
REMARK  4 active torsions:
REMARK  status: ('A' for Active; 'I' for Inactive)
REMARK    1  A    between atoms: N_2  and  C_4 
REMARK    2  A    between atoms: N_2  and  C_16 
REMARK    3  A    between atoms: C_4  and  C_5 
REMARK    4  A    between atoms: C_16  and  C_17 
ROOT
HETATM    1  C   UNL     1       8.422  28.117  57.026  1.00  0.00     0.270 C 
HETATM    2  N   UNL     1       7.749  26.837  56.614  1.00  0.00    -0.064 N 
HETATM    3  H   UNL     1       8.164  26.587  55.699  1.00  0.00     0.280 HD
ENDROOT
BRANCH   2   4
HETATM    4  C   UNL     1       8.116  25.673  57.527  1.00  0.00     0.312 C 
BRANCH   4   5
HETATM    5  C   UNL     1       8.134  24.352  56.767  1.00  0.00     0.133 A 
HETATM    6  N   UNL     1       8.041  24.375  55.475  1.00  0.00    -0.233 NA
HETATM    7  C   UNL     1       8.059  23.133  54.802  1.00  0.00     0.074 A 
HETATM    8  C   UNL     1       8.172  21.912  55.476  1.00  0.00     0.061 A 
HETATM    9  C   UNL     1       7.962  23.115  53.410  1.00  0.00     0.032 A 
HETATM   10  C   UNL     1       8.274  21.957  56.943  1.00  0.00     0.259 A 
HETATM   11  C   UNL     1       8.191  20.694  54.793  1.00  0.00     0.019 A 
HETATM   12  O   UNL     1       8.380  20.955  57.637  1.00  0.00    -0.267 OA
HETATM   13  N   UNL     1       8.247  23.209  57.505  1.00  0.00    -0.309 N 
HETATM   14  H   UNL     1       8.306  23.201  58.516  1.00  0.00     0.170 HD
HETATM   15  C   UNL     1       8.094  20.694  53.402  1.00  0.00     0.001 A 
HETATM   16  C   UNL     1       7.980  21.902  52.713  1.00  0.00     0.002 A 
ENDBRANCH   4   5
ENDBRANCH   2   4
BRANCH   2  17
HETATM   17  C   UNL     1       6.259  26.955  56.439  1.00  0.00     0.273 C 
BRANCH  17  18
HETATM   18  C   UNL     1       5.826  27.437  55.083  1.00  0.00    -0.028 A 
HETATM   19  C   UNL     1       5.082  28.620  54.949  1.00  0.00     0.035 A 
HETATM   20  C   UNL     1       4.716  29.094  53.684  1.00  0.00     0.070 A 
HETATM   21 CL   UNL     1       3.839  30.577  53.597  1.00  0.00    -0.081 Cl
HETATM   22  C   UNL     1       5.059  28.379  52.533  1.00  0.00     0.123 A 
HETATM   23  C   UNL     1       5.782  27.190  52.662  1.00  0.00     0.104 A 
HETATM   24  O   UNL     1       4.790  28.929  51.310  1.00  0.00    -0.346 OA
HETATM   25  O   UNL     1       6.238  26.469  51.593  1.00  0.00    -0.348 OA
HETATM   26  C   UNL     1       6.180  26.733  53.923  1.00  0.00     0.048 A 
HETATM   27  C   UNL     1       5.177  25.974  50.770  1.00  0.00     0.178 C 
HETATM   28  C   UNL     1       4.658  27.022  49.799  1.00  0.00     0.053 C 
HETATM   29  C   UNL     1       3.906  28.123  50.530  1.00  0.00     0.178 C 
ENDBRANCH  17  18
ENDBRANCH   2  17
TORSDOF 4
ENDMDL
MODEL 8
REMARK VINA RESULT:      -9.8      4.292      5.883
REMARK  4 active torsions:
REMARK  status: ('A' for Active; 'I' for Inactive)
REMARK    1  A    between atoms: N_2  and  C_4 
REMARK    2  A    between atoms: N_2  and  C_16 
REMARK    3  A    between atoms: C_4  and  C_5 
REMARK    4  A    between atoms: C_16  and  C_17 
ROOT
HETATM    1  C   UNL     1       8.403  28.158  56.581  1.00  0.00     0.270 C 
HETATM    2  N   UNL     1       7.611  26.913  56.292  1.00  0.00    -0.064 N 
HETATM    3  H   UNL     1       7.999  26.534  55.411  1.00  0.00     0.280 HD
ENDROOT
BRANCH   2   4
HETATM    4  C   UNL     1       7.864  25.817  57.320  1.00  0.00     0.312 C 
BRANCH   4   5
HETATM    5  C   UNL     1       7.955  24.445  56.663  1.00  0.00     0.133 A 
HETATM    6  N   UNL     1       7.872  24.366  55.372  1.00  0.00    -0.233 NA
HETATM    7  C   UNL     1       7.958  23.080  54.795  1.00  0.00     0.074 A 
HETATM    8  C   UNL     1       8.126  21.920  55.560  1.00  0.00     0.061 A 
HETATM    9  C   UNL     1       7.876  22.952  53.408  1.00  0.00     0.032 A 
HETATM   10  C   UNL     1       8.212  22.080  57.020  1.00  0.00     0.259 A 
HETATM   11  C   UNL     1       8.212  20.657  54.971  1.00  0.00     0.019 A 
HETATM   12  O   UNL     1       8.361  21.140  57.788  1.00  0.00    -0.267 OA
HETATM   13  N   UNL     1       8.118  23.368  57.485  1.00  0.00    -0.309 N 
HETATM   14  H   UNL     1       8.167  23.439  58.495  1.00  0.00     0.170 HD
HETATM   15  C   UNL     1       8.128  20.547  53.584  1.00  0.00     0.001 A 
HETATM   16  C   UNL     1       7.961  21.693  52.804  1.00  0.00     0.002 A 
ENDBRANCH   4   5
ENDBRANCH   2   4
BRANCH   2  17
HETATM   17  C   UNL     1       6.138  27.156  56.092  1.00  0.00     0.273 C 
BRANCH  17  18
HETATM   18  C   UNL     1       5.703  27.200  54.654  1.00  0.00    -0.028 A 
HETATM   19  C   UNL     1       5.500  26.013  53.933  1.00  0.00     0.035 A 
HETATM   20  C   UNL     1       5.053  26.051  52.607  1.00  0.00     0.070 A 
HETATM   21 CL   UNL     1       4.786  24.550  51.799  1.00  0.00    -0.081 Cl
HETATM   22  C   UNL     1       4.829  27.274  51.970  1.00  0.00     0.123 A 
HETATM   23  C   UNL     1       5.048  28.459  52.677  1.00  0.00     0.104 A 
HETATM   24  O   UNL     1       4.280  27.275  50.717  1.00  0.00    -0.346 OA
HETATM   25  O   UNL     1       4.774  29.699  52.168  1.00  0.00    -0.348 OA
HETATM   26  C   UNL     1       5.462  28.424  54.014  1.00  0.00     0.048 A 
HETATM   27  C   UNL     1       5.558  30.005  51.011  1.00  0.00     0.178 C 
HETATM   28  C   UNL     1       4.984  29.394  49.743  1.00  0.00     0.053 C 
HETATM   29  C   UNL     1       5.133  27.881  49.745  1.00  0.00     0.178 C 
ENDBRANCH  17  18
ENDBRANCH   2  17
TORSDOF 4
ENDMDL
MODEL 9
REMARK VINA RESULT:      -9.5      6.602      8.510
REMARK  4 active torsions:
REMARK  status: ('A' for Active; 'I' for Inactive)
REMARK    1  A    between atoms: N_2  and  C_4 
REMARK    2  A    between atoms: N_2  and  C_16 
REMARK    3  A    between atoms: C_4  and  C_5 
REMARK    4  A    between atoms: C_16  and  C_17 
ROOT
HETATM    1  C   UNL     1       4.940  26.319  53.545  1.00  0.00     0.270 C 
HETATM    2  N   UNL     1       5.990  26.664  52.525  1.00  0.00    -0.064 N 
HETATM    3  H   UNL     1       5.906  27.684  52.373  1.00  0.00     0.280 HD
ENDROOT
BRANCH   2   4
HETATM    4  C   UNL     1       7.403  26.476  53.065  1.00  0.00     0.312 C 
BRANCH   4   5
HETATM    5  C   UNL     1       7.555  25.138  53.777  1.00  0.00     0.133 A 
HETATM    6  N   UNL     1       7.675  24.062  53.064  1.00  0.00    -0.233 NA
HETATM    7  C   UNL     1       7.812  22.838  53.754  1.00  0.00     0.074 A 
HETATM    8  C   UNL     1       7.823  22.759  55.151  1.00  0.00     0.061 A 
HETATM    9  C   UNL     1       7.945  21.658  53.022  1.00  0.00     0.032 A 
HETATM   10  C   UNL     1       7.682  24.017  55.901  1.00  0.00     0.259 A 
HETATM   11  C   UNL     1       7.963  21.539  55.817  1.00  0.00     0.019 A 
HETATM   12  O   UNL     1       7.680  24.070  57.123  1.00  0.00    -0.267 OA
HETATM   13  N   UNL     1       7.554  25.153  55.141  1.00  0.00    -0.309 N 
HETATM   14  H   UNL     1       7.446  25.997  55.691  1.00  0.00     0.170 HD
HETATM   15  C   UNL     1       8.095  20.369  55.071  1.00  0.00     0.001 A 
HETATM   16  C   UNL     1       8.086  20.429  53.676  1.00  0.00     0.002 A 
ENDBRANCH   4   5
ENDBRANCH   2   4
BRANCH   2  17
HETATM   17  C   UNL     1       5.808  25.973  51.200  1.00  0.00     0.273 C 
BRANCH  17  18
HETATM   18  C   UNL     1       5.097  26.794  50.161  1.00  0.00    -0.028 A 
HETATM   19  C   UNL     1       5.426  28.145  49.971  1.00  0.00     0.035 A 
HETATM   20  C   UNL     1       4.796  28.900  48.974  1.00  0.00     0.070 A 
HETATM   21 CL   UNL     1       5.285  30.542  48.772  1.00  0.00    -0.081 Cl
HETATM   22  C   UNL     1       3.805  28.328  48.172  1.00  0.00     0.123 A 
HETATM   23  C   UNL     1       3.459  26.989  48.371  1.00  0.00     0.104 A 
HETATM   24  O   UNL     1       3.295  29.056  47.132  1.00  0.00    -0.346 OA
HETATM   25  O   UNL     1       2.567  26.318  47.580  1.00  0.00    -0.348 OA
HETATM   26  C   UNL     1       4.112  26.222  49.342  1.00  0.00     0.048 A 
HETATM   27  C   UNL     1       1.251  26.879  47.637  1.00  0.00     0.178 C 
HETATM   28  C   UNL     1       1.096  28.089  46.730  1.00  0.00     0.053 C 
HETATM   29  C   UNL     1       1.889  29.275  47.255  1.00  0.00     0.178 C 
ENDBRANCH  17  18
ENDBRANCH   2  17
TORSDOF 4
ENDMDL
MODEL 10
REMARK VINA RESULT:      -9.4      4.943      8.789
REMARK  4 active torsions:
REMARK  status: ('A' for Active; 'I' for Inactive)
REMARK    1  A    between atoms: N_2  and  C_4 
REMARK    2  A    between atoms: N_2  and  C_16 
REMARK    3  A    between atoms: C_4  and  C_5 
REMARK    4  A    between atoms: C_16  and  C_17 
ROOT
HETATM    1  C   UNL     1       7.589  28.485  54.757  1.00  0.00     0.270 C 
HETATM    2  N   UNL     1       6.604  27.405  54.401  1.00  0.00    -0.064 N 
HETATM    3  H   UNL     1       6.364  26.942  55.294  1.00  0.00     0.280 HD
ENDROOT
BRANCH   2   4
HETATM    4  C   UNL     1       5.281  27.973  53.901  1.00  0.00     0.312 C 
BRANCH   4   5
HETATM    5  C   UNL     1       5.284  28.147  52.387  1.00  0.00     0.133 A 
HETATM    6  N   UNL     1       4.889  27.160  51.646  1.00  0.00    -0.233 NA
HETATM    7  C   UNL     1       4.906  27.353  50.247  1.00  0.00     0.074 A 
HETATM    8  C   UNL     1       5.327  28.550  49.657  1.00  0.00     0.061 A 
HETATM    9  C   UNL     1       4.487  26.315  49.414  1.00  0.00     0.032 A 
HETATM   10  C   UNL     1       5.763  29.630  50.555  1.00  0.00     0.259 A 
HETATM   11  C   UNL     1       5.334  28.723  48.270  1.00  0.00     0.019 A 
HETATM   12  O   UNL     1       6.148  30.719  50.153  1.00  0.00    -0.267 OA
HETATM   13  N   UNL     1       5.711  29.347  51.897  1.00  0.00    -0.309 N 
HETATM   14  H   UNL     1       6.030  30.108  52.484  1.00  0.00     0.170 HD
HETATM   15  C   UNL     1       4.912  27.676  47.453  1.00  0.00     0.001 A 
HETATM   16  C   UNL     1       4.489  26.474  48.024  1.00  0.00     0.002 A 
ENDBRANCH   4   5
ENDBRANCH   2   4
BRANCH   2  17
HETATM   17  C   UNL     1       7.150  26.364  53.460  1.00  0.00     0.273 C 
BRANCH  17  18
HETATM   18  C   UNL     1       7.473  25.046  54.108  1.00  0.00    -0.028 A 
HETATM   19  C   UNL     1       7.866  24.990  55.454  1.00  0.00     0.035 A 
HETATM   20  C   UNL     1       8.124  23.762  56.072  1.00  0.00     0.070 A 
HETATM   21 CL   UNL     1       8.561  23.770  57.741  1.00  0.00    -0.081 Cl
HETATM   22  C   UNL     1       8.024  22.570  55.348  1.00  0.00     0.123 A 
HETATM   23  C   UNL     1       7.653  22.622  54.002  1.00  0.00     0.104 A 
HETATM   24  O   UNL     1       8.167  21.381  56.010  1.00  0.00    -0.346 OA
HETATM   25  O   UNL     1       7.444  21.507  53.238  1.00  0.00    -0.348 OA
HETATM   26  C   UNL     1       7.360  23.846  53.391  1.00  0.00     0.048 A 
HETATM   27  C   UNL     1       8.624  20.710  53.093  1.00  0.00     0.178 C 
HETATM   28  C   UNL     1       8.863  19.804  54.290  1.00  0.00     0.053 C 
HETATM   29  C   UNL     1       9.262  20.608  55.516  1.00  0.00     0.178 C 
ENDBRANCH  17  18
ENDBRANCH   2  17
TORSDOF 4
ENDMDL
