MODEL 1
REMARK VINA RESULT:     -10.1      0.000      0.000
REMARK  2 active torsions:
REMARK  status: ('A' for Active; 'I' for Inactive)
REMARK       I    between atoms: N_4  and  C_5 
REMARK       I    between atoms: C_5  and  N_6 
REMARK    1  A    between atoms: N_6  and  C_7 
REMARK    2  A    between atoms: C_20  and  C_21 
ROOT
HETATM    1  C   UNL     1       3.341  31.109  52.240  1.00  0.00     0.011 C 
HETATM    2  C   UNL     1       4.329  30.044  51.796  1.00  0.00     0.002 C 
HETATM    3  C   UNL     1       3.992  28.656  52.328  1.00  0.00     0.132 C 
HETATM    4  N   UNL     1       4.605  27.762  51.363  1.00  0.00    -0.325 N 
HETATM    5  C   UNL     1       5.385  26.655  51.643  1.00  0.00     0.323 C 
HETATM    6  N   UNL     1       5.178  26.136  52.903  1.00  0.00    -0.309 N 
HETATM    7  O   UNL     1       6.176  26.196  50.824  1.00  0.00    -0.247 OA
HETATM    8  C   UNL     1       4.624  28.368  50.036  1.00  0.00     0.125 C 
HETATM    9  C   UNL     1       4.383  29.872  50.271  1.00  0.00     0.036 C 
HETATM   10  H   UNL     1       4.248  26.280  53.266  1.00  0.00     0.170 HD
ENDROOT
BRANCH   6  11
HETATM   11  C   UNL     1       5.992  25.199  53.567  1.00  0.00     0.038 A 
HETATM   12  C   UNL     1       6.361  23.976  53.000  1.00  0.00     0.062 A 
HETATM   13  C   UNL     1       7.209  23.108  53.694  1.00  0.00     0.070 A 
HETATM   14  C   UNL     1       7.690  23.450  54.958  1.00  0.00     0.096 A 
HETATM   15  N   UNL     1       7.609  21.917  53.092  1.00  0.00    -0.323 N 
HETATM   16  O   UNL     1       8.543  22.669  55.685  1.00  0.00    -0.335 OA
HETATM   17  C   UNL     1       7.337  24.675  55.521  1.00  0.00     0.041 A 
HETATM   18  C   UNL     1       8.696  21.332  55.213  1.00  0.00     0.217 C 
HETATM   19  C   UNL     1       8.420  21.025  53.733  1.00  0.00     0.251 C 
HETATM   20  C   UNL     1       7.826  20.421  56.075  1.00  0.00     0.050 C 
HETATM   21  O   UNL     1       8.829  20.012  53.169  1.00  0.00    -0.270 OA
HETATM   22  C   UNL     1       6.496  25.549  54.826  1.00  0.00     0.032 A 
HETATM   23  H   UNL     1       7.345  21.701  52.140  1.00  0.00     0.169 HD
ENDBRANCH   6  11
BRANCH   8  24
HETATM   24  C   UNL     1       3.617  27.689  49.125  1.00  0.00     0.003 A 
HETATM   25  C   UNL     1       3.978  26.736  48.165  1.00  0.00     0.124 A 
HETATM   26  F   UNL     1       5.262  26.378  48.008  1.00  0.00    -0.205 F 
HETATM   27  C   UNL     1       3.033  26.140  47.333  1.00  0.00     0.043 A 
HETATM   28  C   UNL     1       1.694  26.507  47.429  1.00  0.00     0.003 A 
HETATM   29  C   UNL     1       1.312  27.477  48.354  1.00  0.00     0.001 A 
HETATM   30  C   UNL     1       2.264  28.064  49.193  1.00  0.00     0.012 A 
ENDBRANCH   8  24
TORSDOF 2
ENDMDL
MODEL 2
REMARK VINA RESULT:      -9.5      5.204      8.351
REMARK  2 active torsions:
REMARK  status: ('A' for Active; 'I' for Inactive)
REMARK       I    between atoms: N_4  and  C_5 
REMARK       I    between atoms: C_5  and  N_6 
REMARK    1  A    between atoms: N_6  and  C_7 
REMARK    2  A    between atoms: C_20  and  C_21 
ROOT
HETATM    1  C   UNL     1       4.930  25.655  50.993  1.00  0.00     0.011 C 
HETATM    2  C   UNL     1       6.022  26.173  51.913  1.00  0.00     0.002 C 
HETATM    3  C   UNL     1       5.547  26.381  53.346  1.00  0.00     0.132 C 
HETATM    4  N   UNL     1       6.762  26.261  54.130  1.00  0.00    -0.325 N 
HETATM    5  C   UNL     1       7.181  27.109  55.139  1.00  0.00     0.323 C 
HETATM    6  N   UNL     1       6.160  27.832  55.713  1.00  0.00    -0.309 N 
HETATM    7  O   UNL     1       8.361  27.185  55.472  1.00  0.00    -0.247 OA
HETATM    8  C   UNL     1       7.702  25.346  53.490  1.00  0.00     0.125 C 
HETATM    9  C   UNL     1       7.212  25.211  52.035  1.00  0.00     0.036 C 
HETATM   10  H   UNL     1       5.262  27.372  55.697  1.00  0.00     0.170 HD
ENDROOT
BRANCH   6  11
HETATM   11  C   UNL     1       6.297  28.949  56.560  1.00  0.00     0.038 A 
HETATM   12  C   UNL     1       7.079  28.934  57.718  1.00  0.00     0.062 A 
HETATM   13  C   UNL     1       7.210  30.090  58.492  1.00  0.00     0.070 A 
HETATM   14  C   UNL     1       6.560  31.266  58.121  1.00  0.00     0.096 A 
HETATM   15  N   UNL     1       8.037  30.071  59.614  1.00  0.00    -0.323 N 
HETATM   16  O   UNL     1       6.662  32.442  58.809  1.00  0.00    -0.335 OA
HETATM   17  C   UNL     1       5.791  31.291  56.959  1.00  0.00     0.041 A 
HETATM   18  C   UNL     1       7.241  32.339  60.108  1.00  0.00     0.217 C 
HETATM   19  C   UNL     1       8.184  31.167  60.416  1.00  0.00     0.251 C 
HETATM   20  C   UNL     1       6.111  32.343  61.135  1.00  0.00     0.050 C 
HETATM   21  O   UNL     1       8.971  31.166  61.361  1.00  0.00    -0.270 OA
HETATM   22  C   UNL     1       5.665  30.139  56.178  1.00  0.00     0.032 A 
HETATM   23  H   UNL     1       8.588  29.254  59.841  1.00  0.00     0.169 HD
ENDBRANCH   6  11
BRANCH   8  24
HETATM   24  C   UNL     1       7.789  24.042  54.263  1.00  0.00     0.003 A 
HETATM   25  C   UNL     1       7.882  22.791  53.641  1.00  0.00     0.124 A 
HETATM   26  F   UNL     1       7.897  22.694  52.303  1.00  0.00    -0.205 F 
HETATM   27  C   UNL     1       7.947  21.610  54.377  1.00  0.00     0.043 A 
HETATM   28  C   UNL     1       7.895  21.656  55.767  1.00  0.00     0.003 A 
HETATM   29  C   UNL     1       7.769  22.885  56.411  1.00  0.00     0.001 A 
HETATM   30  C   UNL     1       7.715  24.067  55.667  1.00  0.00     0.012 A 
ENDBRANCH   8  24
TORSDOF 2
ENDMDL
MODEL 3
REMARK VINA RESULT:      -9.4      2.932      8.307
REMARK  2 active torsions:
REMARK  status: ('A' for Active; 'I' for Inactive)
REMARK       I    between atoms: N_4  and  C_5 
REMARK       I    between atoms: C_5  and  N_6 
REMARK    1  A    between atoms: N_6  and  C_7 
REMARK    2  A    between atoms: C_20  and  C_21 
ROOT
HETATM    1  C   UNL     1       8.634  27.550  57.302  1.00  0.00     0.011 C 
HETATM    2  C   UNL     1       7.435  26.932  56.602  1.00  0.00     0.002 C 
HETATM    3  C   UNL     1       7.561  26.940  55.083  1.00  0.00     0.132 C 
HETATM    4  N   UNL     1       6.716  25.837  54.665  1.00  0.00    -0.325 N 
HETATM    5  C   UNL     1       5.777  25.856  53.650  1.00  0.00     0.323 C 
HETATM    6  N   UNL     1       5.993  26.841  52.713  1.00  0.00    -0.309 N 
HETATM    7  O   UNL     1       4.849  25.052  53.613  1.00  0.00    -0.247 OA
HETATM    8  C   UNL     1       6.694  24.789  55.680  1.00  0.00     0.125 C 
HETATM    9  C   UNL     1       7.221  25.456  56.966  1.00  0.00     0.036 C 
HETATM   10  H   UNL     1       6.962  27.096  52.592  1.00  0.00     0.170 HD
ENDROOT
BRANCH   6  11
HETATM   11  C   UNL     1       5.084  27.279  51.731  1.00  0.00     0.038 A 
HETATM   12  C   UNL     1       4.937  26.645  50.494  1.00  0.00     0.062 A 
HETATM   13  C   UNL     1       3.984  27.102  49.580  1.00  0.00     0.070 A 
HETATM   14  C   UNL     1       3.174  28.195  49.890  1.00  0.00     0.096 A 
HETATM   15  N   UNL     1       3.815  26.425  48.373  1.00  0.00    -0.323 N 
HETATM   16  O   UNL     1       2.202  28.681  49.062  1.00  0.00    -0.335 OA
HETATM   17  C   UNL     1       3.306  28.820  51.128  1.00  0.00     0.041 A 
HETATM   18  C   UNL     1       2.245  28.196  47.722  1.00  0.00     0.217 C 
HETATM   19  C   UNL     1       2.911  26.841  47.437  1.00  0.00     0.251 C 
HETATM   20  C   UNL     1       2.907  29.261  46.851  1.00  0.00     0.050 C 
HETATM   21  O   UNL     1       2.716  26.198  46.408  1.00  0.00    -0.270 OA
HETATM   22  C   UNL     1       4.253  28.361  52.048  1.00  0.00     0.032 A 
HETATM   23  H   UNL     1       4.328  25.576  48.177  1.00  0.00     0.169 HD
ENDBRANCH   6  11
BRANCH   8  24
HETATM   24  C   UNL     1       7.481  23.577  55.214  1.00  0.00     0.003 A 
HETATM   25  C   UNL     1       8.058  22.657  56.098  1.00  0.00     0.124 A 
HETATM   26  F   UNL     1       7.936  22.817  57.425  1.00  0.00    -0.205 F 
HETATM   27  C   UNL     1       8.787  21.561  55.642  1.00  0.00     0.043 A 
HETATM   28  C   UNL     1       8.975  21.374  54.275  1.00  0.00     0.003 A 
HETATM   29  C   UNL     1       8.439  22.293  53.375  1.00  0.00     0.001 A 
HETATM   30  C   UNL     1       7.701  23.385  53.839  1.00  0.00     0.012 A 
ENDBRANCH   8  24
TORSDOF 2
ENDMDL
MODEL 4
REMARK VINA RESULT:      -9.4      3.051      8.553
REMARK  2 active torsions:
REMARK  status: ('A' for Active; 'I' for Inactive)
REMARK       I    between atoms: N_4  and  C_5 
REMARK       I    between atoms: C_5  and  N_6 
REMARK    1  A    between atoms: N_6  and  C_7 
REMARK    2  A    between atoms: C_20  and  C_21 
ROOT
HETATM    1  C   UNL     1       8.361  28.894  55.635  1.00  0.00     0.011 C 
HETATM    2  C   UNL     1       7.149  28.143  55.108  1.00  0.00     0.002 C 
HETATM    3  C   UNL     1       7.293  27.726  53.649  1.00  0.00     0.132 C 
HETATM    4  N   UNL     1       6.415  26.577  53.534  1.00  0.00    -0.325 N 
HETATM    5  C   UNL     1       5.489  26.342  52.534  1.00  0.00     0.323 C 
HETATM    6  N   UNL     1       5.752  27.021  51.366  1.00  0.00    -0.309 N 
HETATM    7  O   UNL     1       4.534  25.589  52.701  1.00  0.00    -0.247 OA
HETATM    8  C   UNL     1       6.343  25.853  54.799  1.00  0.00     0.125 C 
HETATM    9  C   UNL     1       6.878  26.833  55.861  1.00  0.00     0.036 C 
HETATM   10  H   UNL     1       6.731  27.203  51.199  1.00  0.00     0.170 HD
ENDROOT
BRANCH   6  11
HETATM   11  C   UNL     1       4.870  27.197  50.282  1.00  0.00     0.038 A 
HETATM   12  C   UNL     1       3.933  28.233  50.225  1.00  0.00     0.062 A 
HETATM   13  C   UNL     1       3.117  28.379  49.100  1.00  0.00     0.070 A 
HETATM   14  C   UNL     1       3.225  27.494  48.028  1.00  0.00     0.096 A 
HETATM   15  N   UNL     1       2.225  29.449  49.038  1.00  0.00    -0.323 N 
HETATM   16  O   UNL     1       2.484  27.590  46.884  1.00  0.00    -0.335 OA
HETATM   17  C   UNL     1       4.168  26.470  48.073  1.00  0.00     0.041 A 
HETATM   18  C   UNL     1       1.370  28.477  46.953  1.00  0.00     0.217 C 
HETATM   19  C   UNL     1       1.391  29.627  47.971  1.00  0.00     0.251 C 
HETATM   20  C   UNL     1       0.111  27.644  47.179  1.00  0.00     0.050 C 
HETATM   21  O   UNL     1       0.660  30.612  47.889  1.00  0.00    -0.270 OA
HETATM   22  C   UNL     1       4.992  26.325  49.194  1.00  0.00     0.032 A 
HETATM   23  H   UNL     1       2.203  30.152  49.765  1.00  0.00     0.169 HD
ENDBRANCH   6  11
BRANCH   8  24
HETATM   24  C   UNL     1       7.092  24.535  54.704  1.00  0.00     0.003 A 
HETATM   25  C   UNL     1       7.313  23.703  55.808  1.00  0.00     0.124 A 
HETATM   26  F   UNL     1       6.862  24.048  57.024  1.00  0.00    -0.205 F 
HETATM   27  C   UNL     1       8.016  22.506  55.693  1.00  0.00     0.043 A 
HETATM   28  C   UNL     1       8.539  22.123  54.461  1.00  0.00     0.003 A 
HETATM   29  C   UNL     1       8.361  22.949  53.353  1.00  0.00     0.001 A 
HETATM   30  C   UNL     1       7.646  24.145  53.473  1.00  0.00     0.012 A 
ENDBRANCH   8  24
TORSDOF 2
ENDMDL
MODEL 5
REMARK VINA RESULT:      -9.3      4.842      7.256
REMARK  2 active torsions:
REMARK  status: ('A' for Active; 'I' for Inactive)
REMARK       I    between atoms: N_4  and  C_5 
REMARK       I    between atoms: C_5  and  N_6 
REMARK    1  A    between atoms: N_6  and  C_7 
REMARK    2  A    between atoms: C_20  and  C_21 
ROOT
HETATM    1  C   UNL     1       4.250  31.225  55.878  1.00  0.00     0.011 C 
HETATM    2  C   UNL     1       4.902  29.974  56.442  1.00  0.00     0.002 C 
HETATM    3  C   UNL     1       5.918  29.351  55.492  1.00  0.00     0.132 C 
HETATM    4  N   UNL     1       6.813  28.627  56.375  1.00  0.00    -0.325 N 
HETATM    5  C   UNL     1       7.264  27.330  56.212  1.00  0.00     0.323 C 
HETATM    6  N   UNL     1       7.210  26.886  54.909  1.00  0.00    -0.309 N 
HETATM    7  O   UNL     1       7.674  26.664  57.158  1.00  0.00    -0.247 OA
HETATM    8  C   UNL     1       6.903  29.287  57.673  1.00  0.00     0.125 C 
HETATM    9  C   UNL     1       5.689  30.236  57.734  1.00  0.00     0.036 C 
HETATM   10  H   UNL     1       7.310  27.611  54.215  1.00  0.00     0.170 HD
ENDROOT
BRANCH   6  11
HETATM   11  C   UNL     1       7.342  25.553  54.472  1.00  0.00     0.038 A 
HETATM   12  C   UNL     1       7.458  24.473  55.352  1.00  0.00     0.062 A 
HETATM   13  C   UNL     1       7.542  23.170  54.855  1.00  0.00     0.070 A 
HETATM   14  C   UNL     1       7.515  22.934  53.480  1.00  0.00     0.096 A 
HETATM   15  N   UNL     1       7.603  22.101  55.747  1.00  0.00    -0.323 N 
HETATM   16  O   UNL     1       7.563  21.689  52.920  1.00  0.00    -0.335 OA
HETATM   17  C   UNL     1       7.385  24.006  52.600  1.00  0.00     0.041 A 
HETATM   18  C   UNL     1       7.939  20.637  53.806  1.00  0.00     0.217 C 
HETATM   19  C   UNL     1       7.705  20.809  55.314  1.00  0.00     0.251 C 
HETATM   20  C   UNL     1       9.414  20.321  53.571  1.00  0.00     0.050 C 
HETATM   21  O   UNL     1       7.684  19.867  56.104  1.00  0.00    -0.270 OA
HETATM   22  C   UNL     1       7.293  25.311  53.094  1.00  0.00     0.032 A 
HETATM   23  H   UNL     1       7.527  22.250  56.744  1.00  0.00     0.169 HD
ENDBRANCH   6  11
BRANCH   8  24
HETATM   24  C   UNL     1       8.254  29.960  57.838  1.00  0.00     0.003 A 
HETATM   25  C   UNL     1       8.524  30.889  58.850  1.00  0.00     0.124 A 
HETATM   26  F   UNL     1       7.575  31.231  59.735  1.00  0.00    -0.205 F 
HETATM   27  C   UNL     1       9.770  31.501  58.968  1.00  0.00     0.043 A 
HETATM   28  C   UNL     1      10.776  31.211  58.051  1.00  0.00     0.003 A 
HETATM   29  C   UNL     1      10.523  30.314  57.014  1.00  0.00     0.001 A 
HETATM   30  C   UNL     1       9.273  29.696  56.907  1.00  0.00     0.012 A 
ENDBRANCH   8  24
TORSDOF 2
ENDMDL
MODEL 6
REMARK VINA RESULT:      -9.2     11.239     13.798
REMARK  2 active torsions:
REMARK  status: ('A' for Active; 'I' for Inactive)
REMARK       I    between atoms: N_4  and  C_5 
REMARK       I    between atoms: C_5  and  N_6 
REMARK    1  A    between atoms: N_6  and  C_7 
REMARK    2  A    between atoms: C_20  and  C_21 
ROOT
HETATM    1  C   UNL     1       4.203  37.864  62.358  1.00  0.00     0.011 C 
HETATM    2  C   UNL     1       4.136  36.346  62.390  1.00  0.00     0.002 C 
HETATM    3  C   UNL     1       5.506  35.686  62.297  1.00  0.00     0.132 C 
HETATM    4  N   UNL     1       5.309  34.398  62.936  1.00  0.00    -0.325 N 
HETATM    5  C   UNL     1       5.722  33.167  62.459  1.00  0.00     0.323 C 
HETATM    6  N   UNL     1       6.762  33.243  61.560  1.00  0.00    -0.309 N 
HETATM    7  O   UNL     1       5.194  32.121  62.825  1.00  0.00    -0.247 OA
HETATM    8  C   UNL     1       4.289  34.488  63.976  1.00  0.00     0.125 C 
HETATM    9  C   UNL     1       3.528  35.797  63.688  1.00  0.00     0.036 C 
HETATM   10  H   UNL     1       7.377  34.032  61.697  1.00  0.00     0.170 HD
ENDROOT
BRANCH   6  11
HETATM   11  C   UNL     1       7.216  32.213  60.714  1.00  0.00     0.038 A 
HETATM   12  C   UNL     1       6.589  31.889  59.507  1.00  0.00     0.062 A 
HETATM   13  C   UNL     1       7.115  30.884  58.691  1.00  0.00     0.070 A 
HETATM   14  C   UNL     1       8.265  30.193  59.072  1.00  0.00     0.096 A 
HETATM   15  N   UNL     1       6.508  30.611  57.467  1.00  0.00    -0.323 N 
HETATM   16  O   UNL     1       8.855  29.221  58.316  1.00  0.00    -0.335 OA
HETATM   17  C   UNL     1       8.903  30.523  60.267  1.00  0.00     0.041 A 
HETATM   18  C   UNL     1       8.067  28.730  57.233  1.00  0.00     0.217 C 
HETATM   19  C   UNL     1       6.970  29.627  56.640  1.00  0.00     0.251 C 
HETATM   20  C   UNL     1       7.441  27.406  57.661  1.00  0.00     0.050 C 
HETATM   21  O   UNL     1       6.476  29.440  55.530  1.00  0.00    -0.270 OA
HETATM   22  C   UNL     1       8.383  31.533  61.083  1.00  0.00     0.032 A 
HETATM   23  H   UNL     1       5.732  31.168  57.135  1.00  0.00     0.169 HD
ENDBRANCH   6  11
BRANCH   8  24
HETATM   24  C   UNL     1       4.922  34.402  65.354  1.00  0.00     0.003 A 
HETATM   25  C   UNL     1       4.203  34.612  66.537  1.00  0.00     0.124 A 
HETATM   26  F   UNL     1       2.895  34.909  66.498  1.00  0.00    -0.205 F 
HETATM   27  C   UNL     1       4.814  34.540  67.787  1.00  0.00     0.043 A 
HETATM   28  C   UNL     1       6.177  34.275  67.879  1.00  0.00     0.003 A 
HETATM   29  C   UNL     1       6.922  34.093  66.715  1.00  0.00     0.001 A 
HETATM   30  C   UNL     1       6.301  34.158  65.465  1.00  0.00     0.012 A 
ENDBRANCH   8  24
TORSDOF 2
ENDMDL
MODEL 7
REMARK VINA RESULT:      -9.1     16.118     18.394
REMARK  2 active torsions:
REMARK  status: ('A' for Active; 'I' for Inactive)
REMARK       I    between atoms: N_4  and  C_5 
REMARK       I    between atoms: C_5  and  N_6 
REMARK    1  A    between atoms: N_6  and  C_7 
REMARK    2  A    between atoms: C_20  and  C_21 
ROOT
HETATM    1  C   UNL     1       8.392  31.938  62.585  1.00  0.00     0.011 C 
HETATM    2  C   UNL     1       7.300  32.146  63.620  1.00  0.00     0.002 C 
HETATM    3  C   UNL     1       7.545  33.357  64.512  1.00  0.00     0.132 C 
HETATM    4  N   UNL     1       6.214  33.732  64.952  1.00  0.00    -0.325 N 
HETATM    5  C   UNL     1       5.826  34.034  66.245  1.00  0.00     0.323 C 
HETATM    6  N   UNL     1       6.865  34.430  67.056  1.00  0.00    -0.309 N 
HETATM    7  O   UNL     1       4.655  33.950  66.605  1.00  0.00    -0.247 OA
HETATM    8  C   UNL     1       5.221  33.399  63.936  1.00  0.00     0.125 C 
HETATM    9  C   UNL     1       5.920  32.396  62.997  1.00  0.00     0.036 C 
HETATM   10  H   UNL     1       7.623  34.889  66.572  1.00  0.00     0.170 HD
ENDROOT
BRANCH   6  11
HETATM   11  C   UNL     1       6.837  34.542  68.460  1.00  0.00     0.038 A 
HETATM   12  C   UNL     1       7.361  35.642  69.145  1.00  0.00     0.062 A 
HETATM   13  C   UNL     1       7.262  35.713  70.537  1.00  0.00     0.070 A 
HETATM   14  C   UNL     1       6.645  34.689  71.256  1.00  0.00     0.096 A 
HETATM   15  N   UNL     1       7.742  36.841  71.200  1.00  0.00    -0.323 N 
HETATM   16  O   UNL     1       6.484  34.700  72.612  1.00  0.00    -0.335 OA
HETATM   17  C   UNL     1       6.108  33.598  70.576  1.00  0.00     0.041 A 
HETATM   18  C   UNL     1       7.245  35.686  73.307  1.00  0.00     0.217 C 
HETATM   19  C   UNL     1       7.688  36.953  72.560  1.00  0.00     0.251 C 
HETATM   20  C   UNL     1       8.478  35.008  73.898  1.00  0.00     0.050 C 
HETATM   21  O   UNL     1       8.046  37.981  73.132  1.00  0.00    -0.270 OA
HETATM   22  C   UNL     1       6.198  33.527  69.182  1.00  0.00     0.032 A 
HETATM   23  H   UNL     1       8.105  37.632  70.684  1.00  0.00     0.169 HD
ENDBRANCH   6  11
BRANCH   8  24
HETATM   24  C   UNL     1       4.701  34.657  63.263  1.00  0.00     0.003 A 
HETATM   25  C   UNL     1       3.340  34.893  63.035  1.00  0.00     0.124 A 
HETATM   26  F   UNL     1       2.419  33.992  63.411  1.00  0.00    -0.205 F 
HETATM   27  C   UNL     1       2.894  36.051  62.403  1.00  0.00     0.043 A 
HETATM   28  C   UNL     1       3.813  36.997  61.959  1.00  0.00     0.003 A 
HETATM   29  C   UNL     1       5.175  36.772  62.144  1.00  0.00     0.001 A 
HETATM   30  C   UNL     1       5.616  35.612  62.788  1.00  0.00     0.012 A 
ENDBRANCH   8  24
TORSDOF 2
ENDMDL
MODEL 8
REMARK VINA RESULT:      -8.8      5.689      7.797
REMARK  2 active torsions:
REMARK  status: ('A' for Active; 'I' for Inactive)
REMARK       I    between atoms: N_4  and  C_5 
REMARK       I    between atoms: C_5  and  N_6 
REMARK    1  A    between atoms: N_6  and  C_7 
REMARK    2  A    between atoms: C_20  and  C_21 
ROOT
HETATM    1  C   UNL     1       7.918  23.842  53.915  1.00  0.00     0.011 C 
HETATM    2  C   UNL     1       6.899  24.792  54.524  1.00  0.00     0.002 C 
HETATM    3  C   UNL     1       7.384  26.236  54.575  1.00  0.00     0.132 C 
HETATM    4  N   UNL     1       6.157  27.009  54.579  1.00  0.00    -0.325 N 
HETATM    5  C   UNL     1       5.851  28.068  55.415  1.00  0.00     0.323 C 
HETATM    6  N   UNL     1       6.958  28.687  55.950  1.00  0.00    -0.309 N 
HETATM    7  O   UNL     1       4.691  28.403  55.636  1.00  0.00    -0.247 OA
HETATM    8  C   UNL     1       5.104  26.312  53.847  1.00  0.00     0.125 C 
HETATM    9  C   UNL     1       5.585  24.851  53.734  1.00  0.00     0.036 C 
HETATM   10  H   UNL     1       7.783  28.644  55.370  1.00  0.00     0.170 HD
ENDROOT
BRANCH   6  11
HETATM   11  C   UNL     1       6.971  29.602  57.021  1.00  0.00     0.038 A 
HETATM   12  C   UNL     1       7.888  29.528  58.073  1.00  0.00     0.062 A 
HETATM   13  C   UNL     1       7.877  30.493  59.083  1.00  0.00     0.070 A 
HETATM   14  C   UNL     1       6.949  31.535  59.056  1.00  0.00     0.096 A 
HETATM   15  N   UNL     1       8.833  30.434  60.096  1.00  0.00    -0.323 N 
HETATM   16  O   UNL     1       6.894  32.530  59.990  1.00  0.00    -0.335 OA
HETATM   17  C   UNL     1       6.043  31.621  58.002  1.00  0.00     0.041 A 
HETATM   18  C   UNL     1       7.653  32.296  61.175  1.00  0.00     0.217 C 
HETATM   19  C   UNL     1       8.854  31.340  61.117  1.00  0.00     0.251 C 
HETATM   20  C   UNL     1       6.697  31.818  62.265  1.00  0.00     0.050 C 
HETATM   21  O   UNL     1       9.744  31.327  61.965  1.00  0.00    -0.270 OA
HETATM   22  C   UNL     1       6.056  30.662  56.984  1.00  0.00     0.032 A 
HETATM   23  H   UNL     1       9.569  29.741  60.076  1.00  0.00     0.169 HD
ENDBRANCH   6  11
BRANCH   8  24
HETATM   24  C   UNL     1       4.827  27.002  52.524  1.00  0.00     0.003 A 
HETATM   25  C   UNL     1       3.840  27.984  52.368  1.00  0.00     0.124 A 
HETATM   26  F   UNL     1       3.081  28.359  53.409  1.00  0.00    -0.205 F 
HETATM   27  C   UNL     1       3.599  28.591  51.137  1.00  0.00     0.043 A 
HETATM   28  C   UNL     1       4.333  28.207  50.019  1.00  0.00     0.003 A 
HETATM   29  C   UNL     1       5.299  27.209  50.139  1.00  0.00     0.001 A 
HETATM   30  C   UNL     1       5.543  26.611  51.379  1.00  0.00     0.012 A 
ENDBRANCH   8  24
TORSDOF 2
ENDMDL
MODEL 9
REMARK VINA RESULT:      -8.8      6.314      8.633
REMARK  2 active torsions:
REMARK  status: ('A' for Active; 'I' for Inactive)
REMARK       I    between atoms: N_4  and  C_5 
REMARK       I    between atoms: C_5  and  N_6 
REMARK    1  A    between atoms: N_6  and  C_7 
REMARK    2  A    between atoms: C_20  and  C_21 
ROOT
HETATM    1  C   UNL     1      10.071  31.513  61.498  1.00  0.00     0.011 C 
HETATM    2  C   UNL     1       9.421  31.344  60.135  1.00  0.00     0.002 C 
HETATM    3  C   UNL     1       8.417  30.198  60.090  1.00  0.00     0.132 C 
HETATM    4  N   UNL     1       7.518  30.573  59.014  1.00  0.00    -0.325 N 
HETATM    5  C   UNL     1       7.075  29.760  57.987  1.00  0.00     0.323 C 
HETATM    6  N   UNL     1       7.143  28.416  58.278  1.00  0.00    -0.309 N 
HETATM    7  O   UNL     1       6.661  30.223  56.929  1.00  0.00    -0.247 OA
HETATM    8  C   UNL     1       7.414  32.025  58.911  1.00  0.00     0.125 C 
HETATM    9  C   UNL     1       8.622  32.578  59.693  1.00  0.00     0.036 C 
HETATM   10  H   UNL     1       7.045  28.194  59.257  1.00  0.00     0.170 HD
ENDROOT
BRANCH   6  11
HETATM   11  C   UNL     1       7.022  27.353  57.361  1.00  0.00     0.038 A 
HETATM   12  C   UNL     1       8.009  26.377  57.194  1.00  0.00     0.062 A 
HETATM   13  C   UNL     1       7.807  25.323  56.299  1.00  0.00     0.070 A 
HETATM   14  C   UNL     1       6.626  25.236  55.563  1.00  0.00     0.096 A 
HETATM   15  N   UNL     1       8.779  24.330  56.184  1.00  0.00    -0.323 N 
HETATM   16  O   UNL     1       6.345  24.221  54.692  1.00  0.00    -0.335 OA
HETATM   17  C   UNL     1       5.633  26.197  55.738  1.00  0.00     0.041 A 
HETATM   18  C   UNL     1       7.452  23.393  54.344  1.00  0.00     0.217 C 
HETATM   19  C   UNL     1       8.641  23.288  55.312  1.00  0.00     0.251 C 
HETATM   20  C   UNL     1       7.968  23.836  52.978  1.00  0.00     0.050 C 
HETATM   21  O   UNL     1       9.466  22.378  55.268  1.00  0.00    -0.270 OA
HETATM   22  C   UNL     1       5.828  27.250  56.638  1.00  0.00     0.032 A 
HETATM   23  H   UNL     1       9.596  24.330  56.780  1.00  0.00     0.169 HD
ENDBRANCH   6  11
BRANCH   8  24
HETATM   24  C   UNL     1       6.057  32.499  59.403  1.00  0.00     0.003 A 
HETATM   25  C   UNL     1       5.078  33.022  58.550  1.00  0.00     0.124 A 
HETATM   26  F   UNL     1       5.306  33.128  57.232  1.00  0.00    -0.205 F 
HETATM   27  C   UNL     1       3.847  33.462  59.032  1.00  0.00     0.043 A 
HETATM   28  C   UNL     1       3.577  33.410  60.396  1.00  0.00     0.003 A 
HETATM   29  C   UNL     1       4.547  32.924  61.271  1.00  0.00     0.001 A 
HETATM   30  C   UNL     1       5.776  32.475  60.780  1.00  0.00     0.012 A 
ENDBRANCH   8  24
TORSDOF 2
ENDMDL
MODEL 10
REMARK VINA RESULT:      -8.8      2.552      3.413
REMARK  2 active torsions:
REMARK  status: ('A' for Active; 'I' for Inactive)
REMARK       I    between atoms: N_4  and  C_5 
REMARK       I    between atoms: C_5  and  N_6 
REMARK    1  A    between atoms: N_6  and  C_7 
REMARK    2  A    between atoms: C_20  and  C_21 
ROOT
HETATM    1  C   UNL     1       5.058  32.218  48.703  1.00  0.00     0.011 C 
HETATM    2  C   UNL     1       5.391  30.746  48.873  1.00  0.00     0.002 C 
HETATM    3  C   UNL     1       4.616  30.084  50.006  1.00  0.00     0.132 C 
HETATM    4  N   UNL     1       4.584  28.684  49.627  1.00  0.00    -0.325 N 
HETATM    5  C   UNL     1       4.863  27.602  50.442  1.00  0.00     0.323 C 
HETATM    6  N   UNL     1       4.718  27.868  51.785  1.00  0.00    -0.309 N 
HETATM    7  O   UNL     1       5.201  26.516  49.981  1.00  0.00    -0.247 OA
HETATM    8  C   UNL     1       4.586  28.542  48.175  1.00  0.00     0.125 C 
HETATM    9  C   UNL     1       5.056  29.906  47.632  1.00  0.00     0.036 C 
HETATM   10  H   UNL     1       4.030  28.575  51.999  1.00  0.00     0.170 HD
ENDROOT
BRANCH   6  11
HETATM   11  C   UNL     1       5.177  27.072  52.852  1.00  0.00     0.038 A 
HETATM   12  C   UNL     1       5.958  27.576  53.896  1.00  0.00     0.062 A 
HETATM   13  C   UNL     1       6.344  26.743  54.949  1.00  0.00     0.070 A 
HETATM   14  C   UNL     1       5.959  25.402  54.968  1.00  0.00     0.096 A 
HETATM   15  N   UNL     1       7.078  27.275  56.008  1.00  0.00    -0.323 N 
HETATM   16  O   UNL     1       6.272  24.534  55.975  1.00  0.00    -0.335 OA
HETATM   17  C   UNL     1       5.167  24.899  53.938  1.00  0.00     0.041 A 
HETATM   18  C   UNL     1       7.273  24.990  56.883  1.00  0.00     0.217 C 
HETATM   19  C   UNL     1       7.497  26.500  57.052  1.00  0.00     0.251 C 
HETATM   20  C   UNL     1       8.598  24.337  56.499  1.00  0.00     0.050 C 
HETATM   21  O   UNL     1       8.080  26.990  58.017  1.00  0.00    -0.270 OA
HETATM   22  C   UNL     1       4.772  25.732  52.886  1.00  0.00     0.032 A 
HETATM   23  H   UNL     1       7.282  28.264  56.054  1.00  0.00     0.169 HD
ENDBRANCH   6  11
BRANCH   8  24
HETATM   24  C   UNL     1       3.224  28.087  47.681  1.00  0.00     0.003 A 
HETATM   25  C   UNL     1       2.958  26.771  47.284  1.00  0.00     0.124 A 
HETATM   26  F   UNL     1       3.922  25.838  47.323  1.00  0.00    -0.205 F 
HETATM   27  C   UNL     1       1.702  26.386  46.822  1.00  0.00     0.043 A 
HETATM   28  C   UNL     1       0.680  27.326  46.724  1.00  0.00     0.003 A 
HETATM   29  C   UNL     1       0.927  28.649  47.083  1.00  0.00     0.001 A 
HETATM   30  C   UNL     1       2.187  29.027  47.555  1.00  0.00     0.012 A 
ENDBRANCH   8  24
TORSDOF 2
ENDMDL
