MODEL 1
REMARK VINA RESULT:     -10.7      0.000      0.000
REMARK  6 active torsions:
REMARK  status: ('A' for Active; 'I' for Inactive)
REMARK    1  A    between atoms: C_2  and  C_3 
REMARK    2  A    between atoms: C_6  and  N_7 
REMARK    3  A    between atoms: C_8  and  C_10 
REMARK    4  A    between atoms: C_8  and  O_9 
REMARK       I    between atoms: C_10  and  N_11 
REMARK    5  A    between atoms: N_11  and  C_12 
REMARK    6  A    between atoms: C_12  and  C_13 
ROOT
HETATM    1  N   UNL     1       5.851  26.671  53.021  1.00  0.00    -0.254 N 
HETATM    2  C   UNL     1       6.155  27.912  53.762  1.00  0.00     0.256 C 
HETATM    3  C   UNL     1       5.042  28.947  53.715  1.00  0.00     0.034 A 
HETATM    4  C   UNL     1       4.076  28.840  52.725  1.00  0.00     0.048 A 
HETATM    5  N   UNL     1       4.122  27.765  51.856  1.00  0.00    -0.308 N 
HETATM    6  C   UNL     1       4.956  26.693  51.961  1.00  0.00     0.330 C 
HETATM    7  O   UNL     1       4.812  25.801  51.122  1.00  0.00    -0.246 OA
HETATM    8  C   UNL     1       4.984  30.053  54.582  1.00  0.00     0.015 A 
HETATM    9  C   UNL     1       3.961  30.998  54.470  1.00  0.00     0.001 A 
HETATM   10  C   UNL     1       3.000  30.867  53.472  1.00  0.00     0.002 A 
HETATM   11  C   UNL     1       3.062  29.792  52.588  1.00  0.00     0.030 A 
HETATM   12  H   UNL     1       3.465  27.701  51.091  1.00  0.00     0.170 HD
ENDROOT
BRANCH   2  13
HETATM   13  C   UNL     1       6.469  27.598  55.289  1.00  0.00     0.279 C 
HETATM   14  N   UNL     1       7.798  27.597  55.660  1.00  0.00    -0.352 N 
HETATM   15  H   UNL     1       8.467  28.015  55.022  1.00  0.00     0.162 HD
HETATM   16  O   UNL     1       5.559  27.277  56.060  1.00  0.00    -0.268 OA
BRANCH  14  17
HETATM   17  C   UNL     1       8.191  27.447  57.040  1.00  0.00     0.161 C 
BRANCH  17  18
HETATM   18  C   UNL     1       8.664  28.749  57.634  1.00  0.00    -0.038 A 
HETATM   19  C   UNL     1       7.909  29.393  58.630  1.00  0.00     0.048 A 
HETATM   20  C   UNL     1       8.348  30.613  59.096  1.00  0.00     0.105 A 
HETATM   21  C   UNL     1       9.485  31.209  58.606  1.00  0.00     0.105 A 
HETATM   22  O   UNL     1       7.736  31.367  60.049  1.00  0.00    -0.323 OA
HETATM   23  O   UNL     1       9.732  32.412  59.188  1.00  0.00    -0.323 OA
HETATM   24  C   UNL     1      10.248  30.616  57.625  1.00  0.00     0.040 A 
HETATM   25  C   UNL     1       8.614  32.510  60.096  1.00  0.00     0.352 A 
HETATM   26  C   UNL     1       9.828  29.376  57.134  1.00  0.00     0.012 A 
ENDBRANCH  17  18
ENDBRANCH  14  17
ENDBRANCH   2  13
BRANCH   2  27
HETATM   27  O   UNL     1       7.283  28.531  53.141  1.00  0.00    -0.359 OA
HETATM   28  H   UNL     1       8.030  28.351  53.742  1.00  0.00     0.213 HD
ENDBRANCH   2  27
BRANCH   1  29
HETATM   29  C   UNL     1       6.630  25.478  53.262  1.00  0.00     0.043 A 
HETATM   30  C   UNL     1       6.300  24.554  54.263  1.00  0.00     0.030 A 
HETATM   31  C   UNL     1       6.997  23.346  54.397  1.00  0.00     0.009 A 
HETATM   32  C   UNL     1       8.051  23.034  53.535  1.00  0.00    -0.058 A 
HETATM   33  C   UNL     1       8.408  23.958  52.551  1.00  0.00     0.009 A 
HETATM   34  C   UNL     1       7.710  25.162  52.421  1.00  0.00     0.030 A 
BRANCH  32  35
HETATM   35  C   UNL     1       8.765  21.711  53.639  1.00  0.00     0.034 C 
HETATM   36  C   UNL     1       7.982  20.600  52.954  1.00  0.00     0.010 C 
ENDBRANCH  32  35
ENDBRANCH   1  29
TORSDOF 6
ENDMDL
MODEL 2
REMARK VINA RESULT:     -10.2      2.829      6.841
REMARK  6 active torsions:
REMARK  status: ('A' for Active; 'I' for Inactive)
REMARK    1  A    between atoms: C_2  and  C_3 
REMARK    2  A    between atoms: C_6  and  N_7 
REMARK    3  A    between atoms: C_8  and  C_10 
REMARK    4  A    between atoms: C_8  and  O_9 
REMARK       I    between atoms: C_10  and  N_11 
REMARK    5  A    between atoms: N_11  and  C_12 
REMARK    6  A    between atoms: C_12  and  C_13 
ROOT
HETATM    1  N   UNL     1       6.975  25.850  55.733  1.00  0.00    -0.254 N 
HETATM    2  C   UNL     1       5.640  26.272  55.260  1.00  0.00     0.256 C 
HETATM    3  C   UNL     1       5.413  27.774  55.312  1.00  0.00     0.034 A 
HETATM    4  C   UNL     1       6.240  28.545  56.115  1.00  0.00     0.048 A 
HETATM    5  N   UNL     1       7.279  27.931  56.791  1.00  0.00    -0.308 N 
HETATM    6  C   UNL     1       7.675  26.637  56.636  1.00  0.00     0.330 C 
HETATM    7  O   UNL     1       8.661  26.283  57.285  1.00  0.00    -0.246 OA
HETATM    8  C   UNL     1       4.356  28.415  54.640  1.00  0.00     0.015 A 
HETATM    9  C   UNL     1       4.167  29.795  54.753  1.00  0.00     0.001 A 
HETATM   10  C   UNL     1       5.014  30.548  55.561  1.00  0.00     0.002 A 
HETATM   11  C   UNL     1       6.047  29.922  56.254  1.00  0.00     0.030 A 
HETATM   12  H   UNL     1       7.856  28.464  57.428  1.00  0.00     0.170 HD
ENDROOT
BRANCH   2  13
HETATM   13  C   UNL     1       5.388  25.787  53.767  1.00  0.00     0.279 C 
HETATM   14  N   UNL     1       6.050  26.477  52.772  1.00  0.00    -0.352 N 
HETATM   15  H   UNL     1       6.818  27.080  53.046  1.00  0.00     0.162 HD
HETATM   16  O   UNL     1       4.562  24.900  53.530  1.00  0.00    -0.268 OA
BRANCH  14  17
HETATM   17  C   UNL     1       5.992  26.047  51.395  1.00  0.00     0.161 C 
BRANCH  17  18
HETATM   18  C   UNL     1       4.976  26.832  50.606  1.00  0.00    -0.038 A 
HETATM   19  C   UNL     1       4.487  26.336  49.384  1.00  0.00     0.048 A 
HETATM   20  C   UNL     1       3.608  27.118  48.666  1.00  0.00     0.105 A 
HETATM   21  C   UNL     1       3.214  28.358  49.109  1.00  0.00     0.105 A 
HETATM   22  O   UNL     1       3.049  26.792  47.470  1.00  0.00    -0.323 OA
HETATM   23  O   UNL     1       2.358  28.968  48.249  1.00  0.00    -0.323 OA
HETATM   24  C   UNL     1       3.675  28.883  50.296  1.00  0.00     0.040 A 
HETATM   25  C   UNL     1       2.264  27.974  47.208  1.00  0.00     0.352 A 
HETATM   26  C   UNL     1       4.568  28.111  51.047  1.00  0.00     0.012 A 
ENDBRANCH  17  18
ENDBRANCH  14  17
ENDBRANCH   2  13
BRANCH   2  27
HETATM   27  O   UNL     1       4.663  25.705  56.137  1.00  0.00    -0.359 OA
HETATM   28  H   UNL     1       3.804  25.986  55.769  1.00  0.00     0.213 HD
ENDBRANCH   2  27
BRANCH   1  29
HETATM   29  C   UNL     1       7.467  24.530  55.416  1.00  0.00     0.043 A 
HETATM   30  C   UNL     1       7.273  23.431  56.265  1.00  0.00     0.030 A 
HETATM   31  C   UNL     1       7.651  22.138  55.881  1.00  0.00     0.009 A 
HETATM   32  C   UNL     1       8.242  21.911  54.635  1.00  0.00    -0.058 A 
HETATM   33  C   UNL     1       8.465  22.999  53.791  1.00  0.00     0.009 A 
HETATM   34  C   UNL     1       8.087  24.289  54.179  1.00  0.00     0.030 A 
BRANCH  32  35
HETATM   35  C   UNL     1       8.596  20.514  54.196  1.00  0.00     0.034 C 
HETATM   36  C   UNL     1       8.417  20.340  52.694  1.00  0.00     0.010 C 
ENDBRANCH  32  35
ENDBRANCH   1  29
TORSDOF 6
ENDMDL
MODEL 3
REMARK VINA RESULT:      -9.8      3.303      8.027
REMARK  6 active torsions:
REMARK  status: ('A' for Active; 'I' for Inactive)
REMARK    1  A    between atoms: C_2  and  C_3 
REMARK    2  A    between atoms: C_6  and  N_7 
REMARK    3  A    between atoms: C_8  and  C_10 
REMARK    4  A    between atoms: C_8  and  O_9 
REMARK       I    between atoms: C_10  and  N_11 
REMARK    5  A    between atoms: N_11  and  C_12 
REMARK    6  A    between atoms: C_12  and  C_13 
ROOT
HETATM    1  N   UNL     1       7.067  25.346  55.421  1.00  0.00    -0.254 N 
HETATM    2  C   UNL     1       7.235  24.704  54.101  1.00  0.00     0.256 C 
HETATM    3  C   UNL     1       7.546  23.218  54.173  1.00  0.00     0.034 A 
HETATM    4  C   UNL     1       8.021  22.694  55.367  1.00  0.00     0.048 A 
HETATM    5  N   UNL     1       8.137  23.528  56.465  1.00  0.00    -0.308 N 
HETATM    6  C   UNL     1       7.687  24.811  56.541  1.00  0.00     0.330 C 
HETATM    7  O   UNL     1       7.830  25.380  57.625  1.00  0.00    -0.246 OA
HETATM    8  C   UNL     1       7.445  22.357  53.065  1.00  0.00     0.015 A 
HETATM    9  C   UNL     1       7.781  21.005  53.175  1.00  0.00     0.001 A 
HETATM   10  C   UNL     1       8.251  20.502  54.385  1.00  0.00     0.002 A 
HETATM   11  C   UNL     1       8.383  21.350  55.482  1.00  0.00     0.030 A 
HETATM   12  H   UNL     1       8.538  23.181  57.326  1.00  0.00     0.170 HD
ENDROOT
BRANCH   2  13
HETATM   13  C   UNL     1       5.931  24.892  53.210  1.00  0.00     0.279 C 
HETATM   14  N   UNL     1       6.088  25.573  52.021  1.00  0.00    -0.352 N 
HETATM   15  H   UNL     1       7.031  25.708  51.673  1.00  0.00     0.162 HD
HETATM   16  O   UNL     1       4.830  24.522  53.630  1.00  0.00    -0.268 OA
BRANCH  14  17
HETATM   17  C   UNL     1       5.002  25.694  51.077  1.00  0.00     0.161 C 
BRANCH  17  18
HETATM   18  C   UNL     1       5.089  26.973  50.284  1.00  0.00    -0.038 A 
HETATM   19  C   UNL     1       5.549  28.156  50.888  1.00  0.00     0.048 A 
HETATM   20  C   UNL     1       5.549  29.314  50.141  1.00  0.00     0.105 A 
HETATM   21  C   UNL     1       5.107  29.336  48.839  1.00  0.00     0.105 A 
HETATM   22  O   UNL     1       5.955  30.538  50.572  1.00  0.00    -0.323 OA
HETATM   23  O   UNL     1       5.178  30.577  48.289  1.00  0.00    -0.323 OA
HETATM   24  C   UNL     1       4.642  28.201  48.213  1.00  0.00     0.040 A 
HETATM   25  C   UNL     1       5.709  31.335  49.396  1.00  0.00     0.352 A 
HETATM   26  C   UNL     1       4.631  27.010  48.947  1.00  0.00     0.012 A 
ENDBRANCH  17  18
ENDBRANCH  14  17
ENDBRANCH   2  13
BRANCH   2  27
HETATM   27  O   UNL     1       8.364  25.302  53.461  1.00  0.00    -0.359 OA
HETATM   28  H   UNL     1       8.292  25.033  52.525  1.00  0.00     0.213 HD
ENDBRANCH   2  27
BRANCH   1  29
HETATM   29  C   UNL     1       6.429  26.639  55.517  1.00  0.00     0.043 A 
HETATM   30  C   UNL     1       6.964  27.789  54.922  1.00  0.00     0.030 A 
HETATM   31  C   UNL     1       6.265  29.003  54.924  1.00  0.00     0.009 A 
HETATM   32  C   UNL     1       5.011  29.100  55.531  1.00  0.00    -0.058 A 
HETATM   33  C   UNL     1       4.478  27.970  56.151  1.00  0.00     0.009 A 
HETATM   34  C   UNL     1       5.179  26.759  56.147  1.00  0.00     0.030 A 
BRANCH  32  35
HETATM   35  C   UNL     1       4.232  30.389  55.485  1.00  0.00     0.034 C 
HETATM   36  C   UNL     1       3.339  30.544  56.707  1.00  0.00     0.010 C 
ENDBRANCH  32  35
ENDBRANCH   1  29
TORSDOF 6
ENDMDL
MODEL 4
REMARK VINA RESULT:      -9.5      2.825      3.893
REMARK  6 active torsions:
REMARK  status: ('A' for Active; 'I' for Inactive)
REMARK    1  A    between atoms: C_2  and  C_3 
REMARK    2  A    between atoms: C_6  and  N_7 
REMARK    3  A    between atoms: C_8  and  C_10 
REMARK    4  A    between atoms: C_8  and  O_9 
REMARK       I    between atoms: C_10  and  N_11 
REMARK    5  A    between atoms: N_11  and  C_12 
REMARK    6  A    between atoms: C_12  and  C_13 
ROOT
HETATM    1  N   UNL     1       5.168  27.205  51.769  1.00  0.00    -0.254 N 
HETATM    2  C   UNL     1       5.297  28.543  52.380  1.00  0.00     0.256 C 
HETATM    3  C   UNL     1       4.148  29.484  52.054  1.00  0.00     0.034 A 
HETATM    4  C   UNL     1       3.337  29.193  50.966  1.00  0.00     0.048 A 
HETATM    5  N   UNL     1       3.563  28.027  50.256  1.00  0.00    -0.308 N 
HETATM    6  C   UNL     1       4.430  27.037  50.606  1.00  0.00     0.330 C 
HETATM    7  O   UNL     1       4.454  26.044  49.875  1.00  0.00    -0.246 OA
HETATM    8  C   UNL     1       3.909  30.678  52.758  1.00  0.00     0.015 A 
HETATM    9  C   UNL     1       2.862  31.528  52.392  1.00  0.00     0.001 A 
HETATM   10  C   UNL     1       2.059  31.212  51.300  1.00  0.00     0.002 A 
HETATM   11  C   UNL     1       2.303  30.047  50.576  1.00  0.00     0.030 A 
HETATM   12  H   UNL     1       3.024  27.827  49.424  1.00  0.00     0.170 HD
ENDROOT
BRANCH   2  13
HETATM   13  C   UNL     1       5.410  28.435  53.963  1.00  0.00     0.279 C 
HETATM   14  N   UNL     1       4.411  27.739  54.609  1.00  0.00    -0.352 N 
HETATM   15  H   UNL     1       3.805  27.149  54.047  1.00  0.00     0.162 HD
HETATM   16  O   UNL     1       6.304  29.038  54.566  1.00  0.00    -0.268 OA
BRANCH  14  17
HETATM   17  C   UNL     1       4.477  27.473  56.026  1.00  0.00     0.161 C 
BRANCH  17  18
HETATM   18  C   UNL     1       5.711  26.690  56.393  1.00  0.00    -0.038 A 
HETATM   19  C   UNL     1       5.782  25.310  56.132  1.00  0.00     0.048 A 
HETATM   20  C   UNL     1       6.904  24.624  56.543  1.00  0.00     0.105 A 
HETATM   21  C   UNL     1       7.934  25.251  57.203  1.00  0.00     0.105 A 
HETATM   22  O   UNL     1       7.129  23.294  56.374  1.00  0.00    -0.323 OA
HETATM   23  O   UNL     1       8.936  24.394  57.533  1.00  0.00    -0.323 OA
HETATM   24  C   UNL     1       7.900  26.598  57.485  1.00  0.00     0.040 A 
HETATM   25  C   UNL     1       8.415  23.153  57.012  1.00  0.00     0.352 A 
HETATM   26  C   UNL     1       6.774  27.321  57.078  1.00  0.00     0.012 A 
ENDBRANCH  17  18
ENDBRANCH  14  17
ENDBRANCH   2  13
BRANCH   2  27
HETATM   27  O   UNL     1       6.466  29.163  51.840  1.00  0.00    -0.359 OA
HETATM   28  H   UNL     1       6.462  30.067  52.207  1.00  0.00     0.213 HD
ENDBRANCH   2  27
BRANCH   1  29
HETATM   29  C   UNL     1       5.968  26.108  52.262  1.00  0.00     0.043 A 
HETATM   30  C   UNL     1       5.411  24.875  52.631  1.00  0.00     0.030 A 
HETATM   31  C   UNL     1       6.219  23.788  52.987  1.00  0.00     0.009 A 
HETATM   32  C   UNL     1       7.611  23.908  52.992  1.00  0.00    -0.058 A 
HETATM   33  C   UNL     1       8.178  25.137  52.653  1.00  0.00     0.009 A 
HETATM   34  C   UNL     1       7.368  26.220  52.297  1.00  0.00     0.030 A 
BRANCH  32  35
HETATM   35  C   UNL     1       8.483  22.724  53.319  1.00  0.00     0.034 C 
HETATM   36  C   UNL     1       7.717  21.415  53.193  1.00  0.00     0.010 C 
ENDBRANCH  32  35
ENDBRANCH   1  29
TORSDOF 6
ENDMDL
MODEL 5
REMARK VINA RESULT:      -9.4      1.924      5.902
REMARK  6 active torsions:
REMARK  status: ('A' for Active; 'I' for Inactive)
REMARK    1  A    between atoms: C_2  and  C_3 
REMARK    2  A    between atoms: C_6  and  N_7 
REMARK    3  A    between atoms: C_8  and  C_10 
REMARK    4  A    between atoms: C_8  and  O_9 
REMARK       I    between atoms: C_10  and  N_11 
REMARK    5  A    between atoms: N_11  and  C_12 
REMARK    6  A    between atoms: C_12  and  C_13 
ROOT
HETATM    1  N   UNL     1       4.630  28.205  54.631  1.00  0.00    -0.254 N 
HETATM    2  C   UNL     1       5.554  27.309  55.354  1.00  0.00     0.256 C 
HETATM    3  C   UNL     1       6.054  26.137  54.524  1.00  0.00     0.034 A 
HETATM    4  C   UNL     1       5.351  25.783  53.382  1.00  0.00     0.048 A 
HETATM    5  N   UNL     1       4.259  26.544  53.005  1.00  0.00    -0.308 N 
HETATM    6  C   UNL     1       3.875  27.722  53.572  1.00  0.00     0.330 C 
HETATM    7  O   UNL     1       2.906  28.287  53.062  1.00  0.00    -0.246 OA
HETATM    8  C   UNL     1       7.155  25.345  54.897  1.00  0.00     0.015 A 
HETATM    9  C   UNL     1       7.549  24.253  54.119  1.00  0.00     0.001 A 
HETATM   10  C   UNL     1       6.830  23.921  52.974  1.00  0.00     0.002 A 
HETATM   11  C   UNL     1       5.720  24.680  52.609  1.00  0.00     0.030 A 
HETATM   12  H   UNL     1       3.697  26.268  52.211  1.00  0.00     0.170 HD
ENDROOT
BRANCH   2  13
HETATM   13  C   UNL     1       6.821  28.110  55.886  1.00  0.00     0.279 C 
HETATM   14  N   UNL     1       6.891  28.323  57.247  1.00  0.00    -0.352 N 
HETATM   15  H   UNL     1       6.280  27.776  57.844  1.00  0.00     0.162 HD
HETATM   16  O   UNL     1       7.635  28.590  55.091  1.00  0.00    -0.268 OA
BRANCH  14  17
HETATM   17  C   UNL     1       8.054  28.929  57.852  1.00  0.00     0.161 C 
BRANCH  17  18
HETATM   18  C   UNL     1       7.688  30.123  58.697  1.00  0.00    -0.038 A 
HETATM   19  C   UNL     1       8.330  30.348  59.928  1.00  0.00     0.048 A 
HETATM   20  C   UNL     1       7.917  31.416  60.695  1.00  0.00     0.105 A 
HETATM   21  C   UNL     1       6.898  32.246  60.291  1.00  0.00     0.105 A 
HETATM   22  O   UNL     1       8.426  31.769  61.905  1.00  0.00    -0.323 OA
HETATM   23  O   UNL     1       6.638  33.225  61.197  1.00  0.00    -0.323 OA
HETATM   24  C   UNL     1       6.239  32.056  59.098  1.00  0.00     0.040 A 
HETATM   25  C   UNL     1       7.605  32.911  62.222  1.00  0.00     0.352 A 
HETATM   26  C   UNL     1       6.637  30.980  58.297  1.00  0.00     0.012 A 
ENDBRANCH  17  18
ENDBRANCH  14  17
ENDBRANCH   2  13
BRANCH   2  27
HETATM   27  O   UNL     1       4.840  26.728  56.448  1.00  0.00    -0.359 OA
HETATM   28  H   UNL     1       4.393  25.948  56.068  1.00  0.00     0.213 HD
ENDBRANCH   2  27
BRANCH   1  29
HETATM   29  C   UNL     1       4.358  29.527  55.146  1.00  0.00     0.043 A 
HETATM   30  C   UNL     1       4.770  30.692  54.485  1.00  0.00     0.030 A 
HETATM   31  C   UNL     1       4.388  31.961  54.939  1.00  0.00     0.009 A 
HETATM   32  C   UNL     1       3.588  32.099  56.075  1.00  0.00    -0.058 A 
HETATM   33  C   UNL     1       3.193  30.948  56.760  1.00  0.00     0.009 A 
HETATM   34  C   UNL     1       3.577  29.683  56.303  1.00  0.00     0.030 A 
BRANCH  32  35
HETATM   35  C   UNL     1       3.128  33.459  56.532  1.00  0.00     0.034 C 
HETATM   36  C   UNL     1       1.951  33.956  55.705  1.00  0.00     0.010 C 
ENDBRANCH  32  35
ENDBRANCH   1  29
TORSDOF 6
ENDMDL
MODEL 6
REMARK VINA RESULT:      -9.4      2.634      7.504
REMARK  6 active torsions:
REMARK  status: ('A' for Active; 'I' for Inactive)
REMARK    1  A    between atoms: C_2  and  C_3 
REMARK    2  A    between atoms: C_6  and  N_7 
REMARK    3  A    between atoms: C_8  and  C_10 
REMARK    4  A    between atoms: C_8  and  O_9 
REMARK       I    between atoms: C_10  and  N_11 
REMARK    5  A    between atoms: N_11  and  C_12 
REMARK    6  A    between atoms: C_12  and  C_13 
ROOT
HETATM    1  N   UNL     1       7.391  25.922  55.758  1.00  0.00    -0.254 N 
HETATM    2  C   UNL     1       7.372  25.452  54.359  1.00  0.00     0.256 C 
HETATM    3  C   UNL     1       7.710  23.979  54.198  1.00  0.00     0.034 A 
HETATM    4  C   UNL     1       8.361  23.327  55.235  1.00  0.00     0.048 A 
HETATM    5  N   UNL     1       8.625  24.024  56.401  1.00  0.00    -0.308 N 
HETATM    6  C   UNL     1       8.175  25.274  56.702  1.00  0.00     0.330 C 
HETATM    7  O   UNL     1       8.467  25.709  57.817  1.00  0.00    -0.246 OA
HETATM    8  C   UNL     1       7.459  23.257  53.016  1.00  0.00     0.015 A 
HETATM    9  C   UNL     1       7.825  21.913  52.906  1.00  0.00     0.001 A 
HETATM   10  C   UNL     1       8.474  21.280  53.963  1.00  0.00     0.002 A 
HETATM   11  C   UNL     1       8.754  21.991  55.128  1.00  0.00     0.030 A 
HETATM   12  H   UNL     1       9.153  23.587  57.146  1.00  0.00     0.170 HD
ENDROOT
BRANCH   2  13
HETATM   13  C   UNL     1       5.950  25.706  53.694  1.00  0.00     0.279 C 
HETATM   14  N   UNL     1       5.867  26.743  52.788  1.00  0.00    -0.352 N 
HETATM   15  H   UNL     1       6.734  27.124  52.425  1.00  0.00     0.162 HD
HETATM   16  O   UNL     1       4.965  25.058  54.061  1.00  0.00    -0.268 OA
BRANCH  14  17
HETATM   17  C   UNL     1       4.660  26.985  52.034  1.00  0.00     0.161 C 
BRANCH  17  18
HETATM   18  C   UNL     1       4.086  28.349  52.318  1.00  0.00    -0.038 A 
HETATM   19  C   UNL     1       3.506  29.107  51.285  1.00  0.00     0.048 A 
HETATM   20  C   UNL     1       3.053  30.375  51.579  1.00  0.00     0.105 A 
HETATM   21  C   UNL     1       3.165  30.909  52.841  1.00  0.00     0.105 A 
HETATM   22  O   UNL     1       2.475  31.236  50.700  1.00  0.00    -0.323 OA
HETATM   23  O   UNL     1       2.671  32.173  52.914  1.00  0.00    -0.323 OA
HETATM   24  C   UNL     1       3.733  30.203  53.878  1.00  0.00     0.040 A 
HETATM   25  C   UNL     1       2.243  32.377  51.551  1.00  0.00     0.352 A 
HETATM   26  C   UNL     1       4.201  28.913  53.609  1.00  0.00     0.012 A 
ENDBRANCH  17  18
ENDBRANCH  14  17
ENDBRANCH   2  13
BRANCH   2  27
HETATM   27  O   UNL     1       8.387  26.159  53.643  1.00  0.00    -0.359 OA
HETATM   28  H   UNL     1       8.370  25.779  52.744  1.00  0.00     0.213 HD
ENDBRANCH   2  27
BRANCH   1  29
HETATM   29  C   UNL     1       6.756  27.172  56.107  1.00  0.00     0.043 A 
HETATM   30  C   UNL     1       5.553  27.231  56.825  1.00  0.00     0.030 A 
HETATM   31  C   UNL     1       5.023  28.453  57.257  1.00  0.00     0.009 A 
HETATM   32  C   UNL     1       5.680  29.654  56.975  1.00  0.00    -0.058 A 
HETATM   33  C   UNL     1       6.864  29.612  56.238  1.00  0.00     0.009 A 
HETATM   34  C   UNL     1       7.390  28.389  55.808  1.00  0.00     0.030 A 
BRANCH  32  35
HETATM   35  C   UNL     1       5.142  30.964  57.489  1.00  0.00     0.034 C 
HETATM   36  C   UNL     1       3.629  30.921  57.648  1.00  0.00     0.010 C 
ENDBRANCH  32  35
ENDBRANCH   1  29
TORSDOF 6
ENDMDL
MODEL 7
REMARK VINA RESULT:      -9.2      2.282      6.666
REMARK  6 active torsions:
REMARK  status: ('A' for Active; 'I' for Inactive)
REMARK    1  A    between atoms: C_2  and  C_3 
REMARK    2  A    between atoms: C_6  and  N_7 
REMARK    3  A    between atoms: C_8  and  C_10 
REMARK    4  A    between atoms: C_8  and  O_9 
REMARK       I    between atoms: C_10  and  N_11 
REMARK    5  A    between atoms: N_11  and  C_12 
REMARK    6  A    between atoms: C_12  and  C_13 
ROOT
HETATM    1  N   UNL     1       8.411  28.897  56.744  1.00  0.00    -0.254 N 
HETATM    2  C   UNL     1       7.474  29.214  57.841  1.00  0.00     0.256 C 
HETATM    3  C   UNL     1       7.866  30.438  58.652  1.00  0.00     0.034 A 
HETATM    4  C   UNL     1       9.175  30.892  58.582  1.00  0.00     0.048 A 
HETATM    5  N   UNL     1      10.060  30.254  57.732  1.00  0.00    -0.308 N 
HETATM    6  C   UNL     1       9.738  29.292  56.824  1.00  0.00     0.330 C 
HETATM    7  O   UNL     1      10.656  28.880  56.111  1.00  0.00    -0.246 OA
HETATM    8  C   UNL     1       6.983  31.093  59.531  1.00  0.00     0.015 A 
HETATM    9  C   UNL     1       7.406  32.191  60.285  1.00  0.00     0.001 A 
HETATM   10  C   UNL     1       8.724  32.631  60.194  1.00  0.00     0.002 A 
HETATM   11  C   UNL     1       9.616  31.974  59.349  1.00  0.00     0.030 A 
HETATM   12  H   UNL     1      11.033  30.530  57.711  1.00  0.00     0.170 HD
ENDROOT
BRANCH   2  13
HETATM   13  C   UNL     1       6.003  29.445  57.282  1.00  0.00     0.279 C 
HETATM   14  N   UNL     1       5.850  30.433  56.333  1.00  0.00    -0.352 N 
HETATM   15  H   UNL     1       6.686  30.788  55.880  1.00  0.00     0.162 HD
HETATM   16  O   UNL     1       5.049  28.824  57.763  1.00  0.00    -0.268 OA
BRANCH  14  17
HETATM   17  C   UNL     1       4.586  30.645  55.668  1.00  0.00     0.161 C 
BRANCH  17  18
HETATM   18  C   UNL     1       4.487  29.858  54.387  1.00  0.00    -0.038 A 
HETATM   19  C   UNL     1       4.578  30.508  53.143  1.00  0.00     0.048 A 
HETATM   20  C   UNL     1       4.417  29.755  52.000  1.00  0.00     0.105 A 
HETATM   21  C   UNL     1       4.163  28.405  52.051  1.00  0.00     0.105 A 
HETATM   22  O   UNL     1       4.471  30.226  50.725  1.00  0.00    -0.323 OA
HETATM   23  O   UNL     1       4.024  27.857  50.815  1.00  0.00    -0.323 OA
HETATM   24  C   UNL     1       4.058  27.733  53.248  1.00  0.00     0.040 A 
HETATM   25  C   UNL     1       4.212  29.018  49.980  1.00  0.00     0.352 A 
HETATM   26  C   UNL     1       4.218  28.470  54.426  1.00  0.00     0.012 A 
ENDBRANCH  17  18
ENDBRANCH  14  17
ENDBRANCH   2  13
BRANCH   2  27
HETATM   27  O   UNL     1       7.489  28.121  58.762  1.00  0.00    -0.359 OA
HETATM   28  H   UNL     1       6.776  28.321  59.398  1.00  0.00     0.213 HD
ENDBRANCH   2  27
BRANCH   1  29
HETATM   29  C   UNL     1       8.002  28.006  55.683  1.00  0.00     0.043 A 
HETATM   30  C   UNL     1       7.962  28.404  54.339  1.00  0.00     0.030 A 
HETATM   31  C   UNL     1       7.682  27.488  53.316  1.00  0.00     0.009 A 
HETATM   32  C   UNL     1       7.426  26.147  53.613  1.00  0.00    -0.058 A 
HETATM   33  C   UNL     1       7.435  25.743  54.949  1.00  0.00     0.009 A 
HETATM   34  C   UNL     1       7.715  26.661  55.966  1.00  0.00     0.030 A 
BRANCH  32  35
HETATM   35  C   UNL     1       7.182  25.149  52.511  1.00  0.00     0.034 C 
HETATM   36  C   UNL     1       7.889  23.830  52.788  1.00  0.00     0.010 C 
ENDBRANCH  32  35
ENDBRANCH   1  29
TORSDOF 6
ENDMDL
MODEL 8
REMARK VINA RESULT:      -9.2      2.331      5.870
REMARK  6 active torsions:
REMARK  status: ('A' for Active; 'I' for Inactive)
REMARK    1  A    between atoms: C_2  and  C_3 
REMARK    2  A    between atoms: C_6  and  N_7 
REMARK    3  A    between atoms: C_8  and  C_10 
REMARK    4  A    between atoms: C_8  and  O_9 
REMARK       I    between atoms: C_10  and  N_11 
REMARK    5  A    between atoms: N_11  and  C_12 
REMARK    6  A    between atoms: C_12  and  C_13 
ROOT
HETATM    1  N   UNL     1       5.690  26.203  53.355  1.00  0.00    -0.254 N 
HETATM    2  C   UNL     1       6.084  25.928  54.751  1.00  0.00     0.256 C 
HETATM    3  C   UNL     1       7.070  24.780  54.899  1.00  0.00     0.034 A 
HETATM    4  C   UNL     1       7.204  23.878  53.854  1.00  0.00     0.048 A 
HETATM    5  N   UNL     1       6.483  24.088  52.692  1.00  0.00    -0.308 N 
HETATM    6  C   UNL     1       5.744  25.195  52.403  1.00  0.00     0.330 C 
HETATM    7  O   UNL     1       5.216  25.227  51.290  1.00  0.00    -0.246 OA
HETATM    8  C   UNL     1       7.804  24.545  56.076  1.00  0.00     0.015 A 
HETATM    9  C   UNL     1       8.669  23.451  56.175  1.00  0.00     0.001 A 
HETATM   10  C   UNL     1       8.790  22.562  55.110  1.00  0.00     0.002 A 
HETATM   11  C   UNL     1       8.047  22.768  53.949  1.00  0.00     0.030 A 
HETATM   12  H   UNL     1       6.519  23.411  51.942  1.00  0.00     0.170 HD
ENDROOT
BRANCH   2  13
HETATM   13  C   UNL     1       6.726  27.218  55.424  1.00  0.00     0.279 C 
HETATM   14  N   UNL     1       6.028  27.781  56.472  1.00  0.00    -0.352 N 
HETATM   15  H   UNL     1       5.292  27.230  56.901  1.00  0.00     0.162 HD
HETATM   16  O   UNL     1       7.747  27.726  54.950  1.00  0.00    -0.268 OA
BRANCH  14  17
HETATM   17  C   UNL     1       6.575  28.877  57.235  1.00  0.00     0.161 C 
BRANCH  17  18
HETATM   18  C   UNL     1       5.626  30.046  57.297  1.00  0.00    -0.038 A 
HETATM   19  C   UNL     1       6.062  31.293  57.780  1.00  0.00     0.048 A 
HETATM   20  C   UNL     1       5.141  32.313  57.878  1.00  0.00     0.105 A 
HETATM   21  C   UNL     1       3.824  32.136  57.530  1.00  0.00     0.105 A 
HETATM   22  O   UNL     1       5.395  33.572  58.327  1.00  0.00    -0.323 OA
HETATM   23  O   UNL     1       3.083  33.261  57.716  1.00  0.00    -0.323 OA
HETATM   24  C   UNL     1       3.354  30.930  57.061  1.00  0.00     0.040 A 
HETATM   25  C   UNL     1       4.084  34.164  58.229  1.00  0.00     0.352 A 
HETATM   26  C   UNL     1       4.266  29.875  56.949  1.00  0.00     0.012 A 
ENDBRANCH  17  18
ENDBRANCH  14  17
ENDBRANCH   2  13
BRANCH   2  27
HETATM   27  O   UNL     1       4.915  25.524  55.468  1.00  0.00    -0.359 OA
HETATM   28  H   UNL     1       5.193  25.494  56.403  1.00  0.00     0.213 HD
ENDBRANCH   2  27
BRANCH   1  29
HETATM   29  C   UNL     1       5.059  27.458  53.018  1.00  0.00     0.043 A 
HETATM   30  C   UNL     1       3.841  27.864  53.582  1.00  0.00     0.030 A 
HETATM   31  C   UNL     1       3.312  29.137  53.335  1.00  0.00     0.009 A 
HETATM   32  C   UNL     1       3.986  30.039  52.508  1.00  0.00    -0.058 A 
HETATM   33  C   UNL     1       5.186  29.639  51.918  1.00  0.00     0.009 A 
HETATM   34  C   UNL     1       5.711  28.366  52.168  1.00  0.00     0.030 A 
BRANCH  32  35
HETATM   35  C   UNL     1       3.449  31.428  52.287  1.00  0.00     0.034 C 
HETATM   36  C   UNL     1       2.888  32.020  53.572  1.00  0.00     0.010 C 
ENDBRANCH  32  35
ENDBRANCH   1  29
TORSDOF 6
ENDMDL
MODEL 9
REMARK VINA RESULT:      -9.0      2.726      7.235
REMARK  6 active torsions:
REMARK  status: ('A' for Active; 'I' for Inactive)
REMARK    1  A    between atoms: C_2  and  C_3 
REMARK    2  A    between atoms: C_6  and  N_7 
REMARK    3  A    between atoms: C_8  and  C_10 
REMARK    4  A    between atoms: C_8  and  O_9 
REMARK       I    between atoms: C_10  and  N_11 
REMARK    5  A    between atoms: N_11  and  C_12 
REMARK    6  A    between atoms: C_12  and  C_13 
ROOT
HETATM    1  N   UNL     1       4.995  29.233  53.423  1.00  0.00    -0.254 N 
HETATM    2  C   UNL     1       6.083  28.288  53.746  1.00  0.00     0.256 C 
HETATM    3  C   UNL     1       6.458  28.259  55.219  1.00  0.00     0.034 A 
HETATM    4  C   UNL     1       6.079  29.323  56.024  1.00  0.00     0.048 A 
HETATM    5  N   UNL     1       5.321  30.341  55.474  1.00  0.00    -0.308 N 
HETATM    6  C   UNL     1       4.772  30.341  54.228  1.00  0.00     0.330 C 
HETATM    7  O   UNL     1       4.078  31.317  53.934  1.00  0.00    -0.246 OA
HETATM    8  C   UNL     1       7.237  27.237  55.793  1.00  0.00     0.015 A 
HETATM    9  C   UNL     1       7.588  27.278  57.145  1.00  0.00     0.001 A 
HETATM   10  C   UNL     1       7.190  28.354  57.935  1.00  0.00     0.002 A 
HETATM   11  C   UNL     1       6.443  29.386  57.371  1.00  0.00     0.030 A 
HETATM   12  H   UNL     1       5.086  31.155  56.027  1.00  0.00     0.170 HD
ENDROOT
BRANCH   2  13
HETATM   13  C   UNL     1       5.699  26.809  53.306  1.00  0.00     0.279 C 
HETATM   14  N   UNL     1       6.661  26.097  52.621  1.00  0.00    -0.352 N 
HETATM   15  H   UNL     1       7.612  26.449  52.639  1.00  0.00     0.162 HD
HETATM   16  O   UNL     1       4.556  26.380  53.495  1.00  0.00    -0.268 OA
BRANCH  14  17
HETATM   17  C   UNL     1       6.467  24.708  52.282  1.00  0.00     0.161 C 
BRANCH  17  18
HETATM   18  C   UNL     1       7.043  23.789  53.329  1.00  0.00    -0.038 A 
HETATM   19  C   UNL     1       7.691  22.599  52.953  1.00  0.00     0.048 A 
HETATM   20  C   UNL     1       8.145  21.760  53.948  1.00  0.00     0.105 A 
HETATM   21  C   UNL     1       7.971  22.055  55.279  1.00  0.00     0.105 A 
HETATM   22  O   UNL     1       8.784  20.575  53.758  1.00  0.00    -0.323 OA
HETATM   23  O   UNL     1       8.478  21.092  56.094  1.00  0.00    -0.323 OA
HETATM   24  C   UNL     1       7.335  23.206  55.689  1.00  0.00     0.040 A 
HETATM   25  C   UNL     1       8.984  20.153  55.123  1.00  0.00     0.352 A 
HETATM   26  C   UNL     1       6.865  24.077  54.702  1.00  0.00     0.012 A 
ENDBRANCH  17  18
ENDBRANCH  14  17
ENDBRANCH   2  13
BRANCH   2  27
HETATM   27  O   UNL     1       7.260  28.720  53.059  1.00  0.00    -0.359 OA
HETATM   28  H   UNL     1       7.470  27.993  52.442  1.00  0.00     0.213 HD
ENDBRANCH   2  27
BRANCH   1  29
HETATM   29  C   UNL     1       4.294  29.121  52.165  1.00  0.00     0.043 A 
HETATM   30  C   UNL     1       2.905  28.942  52.092  1.00  0.00     0.030 A 
HETATM   31  C   UNL     1       2.233  28.960  50.863  1.00  0.00     0.009 A 
HETATM   32  C   UNL     1       2.935  29.151  49.671  1.00  0.00    -0.058 A 
HETATM   33  C   UNL     1       4.321  29.304  49.727  1.00  0.00     0.009 A 
HETATM   34  C   UNL     1       4.989  29.285  50.956  1.00  0.00     0.030 A 
BRANCH  32  35
HETATM   35  C   UNL     1       2.208  29.229  48.354  1.00  0.00     0.034 C 
HETATM   36  C   UNL     1       2.780  28.245  47.343  1.00  0.00     0.010 C 
ENDBRANCH  32  35
ENDBRANCH   1  29
TORSDOF 6
ENDMDL
MODEL 10
REMARK VINA RESULT:      -9.0      3.153      4.585
REMARK  6 active torsions:
REMARK  status: ('A' for Active; 'I' for Inactive)
REMARK    1  A    between atoms: C_2  and  C_3 
REMARK    2  A    between atoms: C_6  and  N_7 
REMARK    3  A    between atoms: C_8  and  C_10 
REMARK    4  A    between atoms: C_8  and  O_9 
REMARK       I    between atoms: C_10  and  N_11 
REMARK    5  A    between atoms: N_11  and  C_12 
REMARK    6  A    between atoms: C_12  and  C_13 
ROOT
HETATM    1  N   UNL     1       4.565  26.355  50.190  1.00  0.00    -0.254 N 
HETATM    2  C   UNL     1       4.781  27.767  49.818  1.00  0.00     0.256 C 
HETATM    3  C   UNL     1       3.620  28.391  49.060  1.00  0.00     0.034 A 
HETATM    4  C   UNL     1       2.693  27.554  48.457  1.00  0.00     0.048 A 
HETATM    5  N   UNL     1       2.822  26.186  48.617  1.00  0.00    -0.308 N 
HETATM    6  C   UNL     1       3.705  25.561  49.446  1.00  0.00     0.330 C 
HETATM    7  O   UNL     1       3.633  24.331  49.498  1.00  0.00    -0.246 OA
HETATM    8  C   UNL     1       3.478  29.778  48.877  1.00  0.00     0.015 A 
HETATM    9  C   UNL     1       2.413  30.298  48.137  1.00  0.00     0.001 A 
HETATM   10  C   UNL     1       1.492  29.438  47.545  1.00  0.00     0.002 A 
HETATM   11  C   UNL     1       1.637  28.060  47.695  1.00  0.00     0.030 A 
HETATM   12  H   UNL     1       2.193  25.556  48.137  1.00  0.00     0.170 HD
ENDROOT
BRANCH   2  13
HETATM   13  C   UNL     1       5.062  28.657  51.106  1.00  0.00     0.279 C 
HETATM   14  N   UNL     1       4.282  28.403  52.215  1.00  0.00    -0.352 N 
HETATM   15  H   UNL     1       3.753  27.538  52.233  1.00  0.00     0.162 HD
HETATM   16  O   UNL     1       5.874  29.587  51.057  1.00  0.00    -0.268 OA
BRANCH  14  17
HETATM   17  C   UNL     1       4.531  29.063  53.474  1.00  0.00     0.161 C 
BRANCH  17  18
HETATM   18  C   UNL     1       5.512  28.297  54.325  1.00  0.00    -0.038 A 
HETATM   19  C   UNL     1       5.060  27.518  55.405  1.00  0.00     0.048 A 
HETATM   20  C   UNL     1       5.999  26.887  56.192  1.00  0.00     0.105 A 
HETATM   21  C   UNL     1       7.347  27.011  55.953  1.00  0.00     0.105 A 
HETATM   22  O   UNL     1       5.733  26.104  57.272  1.00  0.00    -0.323 OA
HETATM   23  O   UNL     1       8.099  26.323  56.852  1.00  0.00    -0.323 OA
HETATM   24  C   UNL     1       7.830  27.771  54.911  1.00  0.00     0.040 A 
HETATM   25  C   UNL     1       7.069  25.758  57.691  1.00  0.00     0.352 A 
HETATM   26  C   UNL     1       6.901  28.422  54.093  1.00  0.00     0.012 A 
ENDBRANCH  17  18
ENDBRANCH  14  17
ENDBRANCH   2  13
BRANCH   2  27
HETATM   27  O   UNL     1       5.896  27.822  48.925  1.00  0.00    -0.359 OA
HETATM   28  H   UNL     1       6.668  27.584  49.474  1.00  0.00     0.213 HD
ENDBRANCH   2  27
BRANCH   1  29
HETATM   29  C   UNL     1       5.395  25.741  51.201  1.00  0.00     0.043 A 
HETATM   30  C   UNL     1       4.861  25.117  52.337  1.00  0.00     0.030 A 
HETATM   31  C   UNL     1       5.677  24.422  53.238  1.00  0.00     0.009 A 
HETATM   32  C   UNL     1       7.057  24.340  53.030  1.00  0.00    -0.058 A 
HETATM   33  C   UNL     1       7.606  24.980  51.918  1.00  0.00     0.009 A 
HETATM   34  C   UNL     1       6.786  25.672  51.020  1.00  0.00     0.030 A 
BRANCH  32  35
HETATM   35  C   UNL     1       7.929  23.545  53.966  1.00  0.00     0.034 C 
HETATM   36  C   UNL     1       7.182  23.163  55.235  1.00  0.00     0.010 C 
ENDBRANCH  32  35
ENDBRANCH   1  29
TORSDOF 6
ENDMDL
