MODEL 1
REMARK VINA RESULT:      -8.8      0.000      0.000
REMARK  4 active torsions:
REMARK  status: ('A' for Active; 'I' for Inactive)
REMARK    1  A    between atoms: C_6  and  C_7 
REMARK       I    between atoms: C_7  and  N_8 
REMARK    2  A    between atoms: N_8  and  C_9 
REMARK    3  A    between atoms: C_9  and  C_10 
REMARK    4  A    between atoms: C_19  and  O_20 
ROOT
HETATM    1  C   UNL     1       5.004  28.200  56.541  1.00  0.00     0.078 C 
HETATM    2  C   UNL     1       6.432  28.563  56.686  1.00  0.00     0.066 A 
HETATM    3  O   UNL     1       6.752  29.277  57.798  1.00  0.00    -0.314 OA
HETATM    4  C   UNL     1       8.087  29.517  57.749  1.00  0.00     0.087 A 
HETATM    5  C   UNL     1       8.643  28.958  56.601  1.00  0.00     0.019 A 
HETATM    6  C   UNL     1       7.561  28.310  55.917  1.00  0.00     0.074 A 
HETATM    7  C   UNL     1       8.800  30.231  58.711  1.00  0.00     0.041 A 
HETATM    8  C   UNL     1      10.168  30.399  58.485  1.00  0.00     0.039 A 
HETATM    9  C   UNL     1      10.759  29.872  57.339  1.00  0.00     0.066 A 
HETATM   10  C   UNL     1      10.023  29.157  56.386  1.00  0.00     0.052 A 
ENDROOT
BRANCH   6  11
HETATM   11  C   UNL     1       7.524  27.537  54.684  1.00  0.00     0.255 C 
HETATM   12  N   UNL     1       7.502  26.168  54.840  1.00  0.00    -0.353 N 
HETATM   13  H   UNL     1       7.352  25.788  55.763  1.00  0.00     0.163 HD
HETATM   14  O   UNL     1       7.453  28.068  53.579  1.00  0.00    -0.268 OA
BRANCH  12  15
HETATM   15  C   UNL     1       7.240  25.327  53.696  1.00  0.00     0.161 C 
BRANCH  15  16
HETATM   16  C   UNL     1       7.517  23.870  53.961  1.00  0.00    -0.041 A 
HETATM   17  C   UNL     1       7.486  23.352  55.266  1.00  0.00     0.009 A 
HETATM   18  C   UNL     1       7.698  21.991  55.495  1.00  0.00     0.001 A 
HETATM   19  C   UNL     1       7.930  21.131  54.424  1.00  0.00     0.000 A 
HETATM   20  C   UNL     1       7.951  21.629  53.124  1.00  0.00     0.001 A 
HETATM   21  C   UNL     1       7.747  22.991  52.894  1.00  0.00     0.009 A 
ENDBRANCH  15  16
ENDBRANCH  12  15
ENDBRANCH   6  11
BRANCH   9  22
HETATM   22  O   UNL     1      12.093  30.038  57.098  1.00  0.00    -0.361 OA
HETATM   23  H   UNL     1      12.242  30.938  56.767  1.00  0.00     0.217 HD
ENDBRANCH   9  22
TORSDOF 4
ENDMDL
MODEL 2
REMARK VINA RESULT:      -8.7      2.514      7.275
REMARK  4 active torsions:
REMARK  status: ('A' for Active; 'I' for Inactive)
REMARK    1  A    between atoms: C_6  and  C_7 
REMARK       I    between atoms: C_7  and  N_8 
REMARK    2  A    between atoms: N_8  and  C_9 
REMARK    3  A    between atoms: C_9  and  C_10 
REMARK    4  A    between atoms: C_19  and  O_20 
ROOT
HETATM    1  C   UNL     1       5.629  25.987  53.568  1.00  0.00     0.078 C 
HETATM    2  C   UNL     1       6.419  24.833  54.052  1.00  0.00     0.066 A 
HETATM    3  O   UNL     1       6.739  23.898  53.118  1.00  0.00    -0.314 OA
HETATM    4  C   UNL     1       7.449  22.928  53.747  1.00  0.00     0.087 A 
HETATM    5  C   UNL     1       7.596  23.229  55.100  1.00  0.00     0.019 A 
HETATM    6  C   UNL     1       6.942  24.492  55.294  1.00  0.00     0.074 A 
HETATM    7  C   UNL     1       7.953  21.786  53.128  1.00  0.00     0.041 A 
HETATM    8  C   UNL     1       8.644  20.883  53.940  1.00  0.00     0.039 A 
HETATM    9  C   UNL     1       8.795  21.137  55.301  1.00  0.00     0.066 A 
HETATM   10  C   UNL     1       8.280  22.292  55.901  1.00  0.00     0.052 A 
ENDROOT
BRANCH   6  11
HETATM   11  C   UNL     1       6.786  25.326  56.476  1.00  0.00     0.255 C 
HETATM   12  N   UNL     1       7.546  26.475  56.499  1.00  0.00    -0.353 N 
HETATM   13  H   UNL     1       8.029  26.753  55.658  1.00  0.00     0.163 HD
HETATM   14  O   UNL     1       5.984  25.058  57.366  1.00  0.00    -0.268 OA
BRANCH  12  15
HETATM   15  C   UNL     1       7.297  27.471  57.515  1.00  0.00     0.161 C 
BRANCH  15  16
HETATM   16  C   UNL     1       8.341  28.556  57.542  1.00  0.00    -0.041 A 
HETATM   17  C   UNL     1       8.302  29.576  58.507  1.00  0.00     0.009 A 
HETATM   18  C   UNL     1       9.302  30.550  58.552  1.00  0.00     0.001 A 
HETATM   19  C   UNL     1      10.358  30.508  57.644  1.00  0.00     0.000 A 
HETATM   20  C   UNL     1      10.416  29.496  56.690  1.00  0.00     0.001 A 
HETATM   21  C   UNL     1       9.413  28.526  56.638  1.00  0.00     0.009 A 
ENDBRANCH  15  16
ENDBRANCH  12  15
ENDBRANCH   6  11
BRANCH   9  22
HETATM   22  O   UNL     1       9.457  20.257  56.109  1.00  0.00    -0.361 OA
HETATM   23  H   UNL     1       9.192  20.416  57.029  1.00  0.00     0.217 HD
ENDBRANCH   9  22
TORSDOF 4
ENDMDL
MODEL 3
REMARK VINA RESULT:      -8.6      2.997      7.231
REMARK  4 active torsions:
REMARK  status: ('A' for Active; 'I' for Inactive)
REMARK    1  A    between atoms: C_6  and  C_7 
REMARK       I    between atoms: C_7  and  N_8 
REMARK    2  A    between atoms: N_8  and  C_9 
REMARK    3  A    between atoms: C_9  and  C_10 
REMARK    4  A    between atoms: C_19  and  O_20 
ROOT
HETATM    1  C   UNL     1       8.072  25.322  57.529  1.00  0.00     0.078 C 
HETATM    2  C   UNL     1       8.071  24.214  56.547  1.00  0.00     0.066 A 
HETATM    3  O   UNL     1       8.501  23.011  57.011  1.00  0.00    -0.314 OA
HETATM    4  C   UNL     1       8.435  22.135  55.976  1.00  0.00     0.087 A 
HETATM    5  C   UNL     1       7.958  22.767  54.830  1.00  0.00     0.019 A 
HETATM    6  C   UNL     1       7.694  24.126  55.213  1.00  0.00     0.074 A 
HETATM    7  C   UNL     1       8.801  20.792  56.049  1.00  0.00     0.041 A 
HETATM    8  C   UNL     1       8.685  20.044  54.875  1.00  0.00     0.039 A 
HETATM    9  C   UNL     1       8.231  20.644  53.703  1.00  0.00     0.066 A 
HETATM   10  C   UNL     1       7.869  21.995  53.654  1.00  0.00     0.052 A 
ENDROOT
BRANCH   6  11
HETATM   11  C   UNL     1       7.161  25.253  54.462  1.00  0.00     0.255 C 
HETATM   12  N   UNL     1       5.886  25.645  54.803  1.00  0.00    -0.353 N 
HETATM   13  H   UNL     1       5.463  25.254  55.632  1.00  0.00     0.163 HD
HETATM   14  O   UNL     1       7.827  25.856  53.625  1.00  0.00    -0.268 OA
BRANCH  12  15
HETATM   15  C   UNL     1       5.359  26.883  54.278  1.00  0.00     0.161 C 
BRANCH  15  16
HETATM   16  C   UNL     1       5.162  27.935  55.338  1.00  0.00    -0.041 A 
HETATM   17  C   UNL     1       4.021  28.753  55.345  1.00  0.00     0.009 A 
HETATM   18  C   UNL     1       3.827  29.693  56.359  1.00  0.00     0.001 A 
HETATM   19  C   UNL     1       4.761  29.816  57.385  1.00  0.00     0.000 A 
HETATM   20  C   UNL     1       5.892  29.003  57.397  1.00  0.00     0.001 A 
HETATM   21  C   UNL     1       6.092  28.069  56.379  1.00  0.00     0.009 A 
ENDBRANCH  15  16
ENDBRANCH  12  15
ENDBRANCH   6  11
BRANCH   9  22
HETATM   22  O   UNL     1       8.125  19.928  52.544  1.00  0.00    -0.361 OA
HETATM   23  H   UNL     1       7.186  19.812  52.332  1.00  0.00     0.217 HD
ENDBRANCH   9  22
TORSDOF 4
ENDMDL
MODEL 4
REMARK VINA RESULT:      -8.5      2.102      2.949
REMARK  4 active torsions:
REMARK  status: ('A' for Active; 'I' for Inactive)
REMARK    1  A    between atoms: C_6  and  C_7 
REMARK       I    between atoms: C_7  and  N_8 
REMARK    2  A    between atoms: N_8  and  C_9 
REMARK    3  A    between atoms: C_9  and  C_10 
REMARK    4  A    between atoms: C_19  and  O_20 
ROOT
HETATM    1  C   UNL     1       8.488  24.717  57.508  1.00  0.00     0.078 C 
HETATM    2  C   UNL     1       7.897  26.027  57.154  1.00  0.00     0.066 A 
HETATM    3  O   UNL     1       8.188  27.055  57.995  1.00  0.00    -0.314 OA
HETATM    4  C   UNL     1       7.559  28.157  57.514  1.00  0.00     0.087 A 
HETATM    5  C   UNL     1       6.854  27.850  56.353  1.00  0.00     0.019 A 
HETATM    6  C   UNL     1       7.099  26.458  56.102  1.00  0.00     0.074 A 
HETATM    7  C   UNL     1       7.605  29.418  58.106  1.00  0.00     0.041 A 
HETATM    8  C   UNL     1       6.877  30.434  57.481  1.00  0.00     0.039 A 
HETATM    9  C   UNL     1       6.143  30.163  56.328  1.00  0.00     0.066 A 
HETATM   10  C   UNL     1       6.112  28.888  55.751  1.00  0.00     0.052 A 
ENDROOT
BRANCH   6  11
HETATM   11  C   UNL     1       6.659  25.579  55.029  1.00  0.00     0.255 C 
HETATM   12  N   UNL     1       7.660  25.040  54.252  1.00  0.00    -0.353 N 
HETATM   13  H   UNL     1       8.618  25.145  54.554  1.00  0.00     0.163 HD
HETATM   14  O   UNL     1       5.477  25.286  54.864  1.00  0.00    -0.268 OA
BRANCH  12  15
HETATM   15  C   UNL     1       7.344  23.990  53.314  1.00  0.00     0.161 C 
BRANCH  15  16
HETATM   16  C   UNL     1       7.751  22.623  53.801  1.00  0.00    -0.041 A 
HETATM   17  C   UNL     1       7.597  22.258  55.148  1.00  0.00     0.009 A 
HETATM   18  C   UNL     1       7.934  20.973  55.579  1.00  0.00     0.001 A 
HETATM   19  C   UNL     1       8.416  20.036  54.668  1.00  0.00     0.000 A 
HETATM   20  C   UNL     1       8.563  20.380  53.327  1.00  0.00     0.001 A 
HETATM   21  C   UNL     1       8.234  21.667  52.896  1.00  0.00     0.009 A 
ENDBRANCH  15  16
ENDBRANCH  12  15
ENDBRANCH   6  11
BRANCH   9  22
HETATM   22  O   UNL     1       5.416  31.142  55.713  1.00  0.00    -0.361 OA
HETATM   23  H   UNL     1       5.808  31.326  54.845  1.00  0.00     0.217 HD
ENDBRANCH   9  22
TORSDOF 4
ENDMDL
MODEL 5
REMARK VINA RESULT:      -8.4      3.523      6.834
REMARK  4 active torsions:
REMARK  status: ('A' for Active; 'I' for Inactive)
REMARK    1  A    between atoms: C_6  and  C_7 
REMARK       I    between atoms: C_7  and  N_8 
REMARK    2  A    between atoms: N_8  and  C_9 
REMARK    3  A    between atoms: C_9  and  C_10 
REMARK    4  A    between atoms: C_19  and  O_20 
ROOT
HETATM    1  C   UNL     1       7.739  25.419  57.475  1.00  0.00     0.078 C 
HETATM    2  C   UNL     1       7.789  24.312  56.493  1.00  0.00     0.066 A 
HETATM    3  O   UNL     1       8.112  23.090  56.994  1.00  0.00    -0.314 OA
HETATM    4  C   UNL     1       8.114  22.218  55.954  1.00  0.00     0.087 A 
HETATM    5  C   UNL     1       7.789  22.872  54.767  1.00  0.00     0.019 A 
HETATM    6  C   UNL     1       7.551  24.241  55.126  1.00  0.00     0.074 A 
HETATM    7  C   UNL     1       8.407  20.860  56.058  1.00  0.00     0.041 A 
HETATM    8  C   UNL     1       8.381  20.117  54.875  1.00  0.00     0.039 A 
HETATM    9  C   UNL     1       8.081  20.738  53.664  1.00  0.00     0.066 A 
HETATM   10  C   UNL     1       7.788  22.105  53.584  1.00  0.00     0.052 A 
ENDROOT
BRANCH   6  11
HETATM   11  C   UNL     1       7.152  25.392  54.330  1.00  0.00     0.255 C 
HETATM   12  N   UNL     1       5.823  25.742  54.412  1.00  0.00    -0.353 N 
HETATM   13  H   UNL     1       5.249  25.303  55.117  1.00  0.00     0.163 HD
HETATM   14  O   UNL     1       7.959  26.048  53.677  1.00  0.00    -0.268 OA
BRANCH  12  15
HETATM   15  C   UNL     1       5.380  26.992  53.841  1.00  0.00     0.161 C 
BRANCH  15  16
HETATM   16  C   UNL     1       5.251  26.941  52.341  1.00  0.00    -0.041 A 
HETATM   17  C   UNL     1       4.922  25.745  51.682  1.00  0.00     0.009 A 
HETATM   18  C   UNL     1       4.758  25.721  50.296  1.00  0.00     0.001 A 
HETATM   19  C   UNL     1       4.907  26.890  49.554  1.00  0.00     0.000 A 
HETATM   20  C   UNL     1       5.222  28.086  50.196  1.00  0.00     0.001 A 
HETATM   21  C   UNL     1       5.394  28.111  51.581  1.00  0.00     0.009 A 
ENDBRANCH  15  16
ENDBRANCH  12  15
ENDBRANCH   6  11
BRANCH   9  22
HETATM   22  O   UNL     1       8.064  20.028  52.498  1.00  0.00    -0.361 OA
HETATM   23  H   UNL     1       7.152  19.749  52.313  1.00  0.00     0.217 HD
ENDBRANCH   9  22
TORSDOF 4
ENDMDL
MODEL 6
REMARK VINA RESULT:      -8.1      3.626      4.428
REMARK  4 active torsions:
REMARK  status: ('A' for Active; 'I' for Inactive)
REMARK    1  A    between atoms: C_6  and  C_7 
REMARK       I    between atoms: C_7  and  N_8 
REMARK    2  A    between atoms: N_8  and  C_9 
REMARK    3  A    between atoms: C_9  and  C_10 
REMARK    4  A    between atoms: C_19  and  O_20 
ROOT
HETATM    1  C   UNL     1       6.350  25.076  56.875  1.00  0.00     0.078 C 
HETATM    2  C   UNL     1       5.719  26.168  56.100  1.00  0.00     0.066 A 
HETATM    3  O   UNL     1       5.274  27.230  56.824  1.00  0.00    -0.314 OA
HETATM    4  C   UNL     1       4.728  28.111  55.950  1.00  0.00     0.087 A 
HETATM    5  C   UNL     1       4.816  27.627  54.647  1.00  0.00     0.019 A 
HETATM    6  C   UNL     1       5.490  26.363  54.744  1.00  0.00     0.074 A 
HETATM    7  C   UNL     1       4.152  29.329  56.307  1.00  0.00     0.041 A 
HETATM    8  C   UNL     1       3.619  30.101  55.272  1.00  0.00     0.039 A 
HETATM    9  C   UNL     1       3.669  29.643  53.958  1.00  0.00     0.066 A 
HETATM   10  C   UNL     1       4.254  28.415  53.622  1.00  0.00     0.052 A 
ENDROOT
BRANCH   6  11
HETATM   11  C   UNL     1       5.893  25.404  53.726  1.00  0.00     0.255 C 
HETATM   12  N   UNL     1       7.250  25.292  53.517  1.00  0.00    -0.353 N 
HETATM   13  H   UNL     1       7.879  25.740  54.166  1.00  0.00     0.163 HD
HETATM   14  O   UNL     1       5.082  24.695  53.136  1.00  0.00    -0.268 OA
BRANCH  12  15
HETATM   15  C   UNL     1       7.756  24.217  52.696  1.00  0.00     0.161 C 
BRANCH  15  16
HETATM   16  C   UNL     1       8.029  22.959  53.478  1.00  0.00    -0.041 A 
HETATM   17  C   UNL     1       7.823  21.692  52.909  1.00  0.00     0.009 A 
HETATM   18  C   UNL     1       8.124  20.533  53.627  1.00  0.00     0.001 A 
HETATM   19  C   UNL     1       8.647  20.625  54.915  1.00  0.00     0.000 A 
HETATM   20  C   UNL     1       8.867  21.875  55.488  1.00  0.00     0.001 A 
HETATM   21  C   UNL     1       8.559  23.036  54.774  1.00  0.00     0.009 A 
ENDBRANCH  15  16
ENDBRANCH  12  15
ENDBRANCH   6  11
BRANCH   9  22
HETATM   22  O   UNL     1       3.141  30.380  52.937  1.00  0.00    -0.361 OA
HETATM   23  H   UNL     1       2.686  29.784  52.322  1.00  0.00     0.217 HD
ENDBRANCH   9  22
TORSDOF 4
ENDMDL
MODEL 7
REMARK VINA RESULT:      -8.0      2.993      7.344
REMARK  4 active torsions:
REMARK  status: ('A' for Active; 'I' for Inactive)
REMARK    1  A    between atoms: C_6  and  C_7 
REMARK       I    between atoms: C_7  and  N_8 
REMARK    2  A    between atoms: N_8  and  C_9 
REMARK    3  A    between atoms: C_9  and  C_10 
REMARK    4  A    between atoms: C_19  and  O_20 
ROOT
HETATM    1  C   UNL     1       5.675  25.401  53.328  1.00  0.00     0.078 C 
HETATM    2  C   UNL     1       6.507  24.300  53.863  1.00  0.00     0.066 A 
HETATM    3  O   UNL     1       6.817  23.310  52.985  1.00  0.00    -0.314 OA
HETATM    4  C   UNL     1       7.569  22.401  53.655  1.00  0.00     0.087 A 
HETATM    5  C   UNL     1       7.754  22.797  54.977  1.00  0.00     0.019 A 
HETATM    6  C   UNL     1       7.078  24.058  55.106  1.00  0.00     0.074 A 
HETATM    7  C   UNL     1       8.079  21.228  53.099  1.00  0.00     0.041 A 
HETATM    8  C   UNL     1       8.816  20.398  53.946  1.00  0.00     0.039 A 
HETATM    9  C   UNL     1       9.007  20.750  55.280  1.00  0.00     0.066 A 
HETATM   10  C   UNL     1       8.485  21.933  55.817  1.00  0.00     0.052 A 
ENDROOT
BRANCH   6  11
HETATM   11  C   UNL     1       6.943  24.968  56.233  1.00  0.00     0.255 C 
HETATM   12  N   UNL     1       7.591  26.176  56.104  1.00  0.00    -0.353 N 
HETATM   13  H   UNL     1       7.976  26.426  55.205  1.00  0.00     0.163 HD
HETATM   14  O   UNL     1       6.244  24.705  57.208  1.00  0.00    -0.268 OA
BRANCH  12  15
HETATM   15  C   UNL     1       7.334  27.227  57.061  1.00  0.00     0.161 C 
BRANCH  15  16
HETATM   16  C   UNL     1       6.309  28.221  56.581  1.00  0.00    -0.041 A 
HETATM   17  C   UNL     1       5.012  27.814  56.230  1.00  0.00     0.009 A 
HETATM   18  C   UNL     1       4.057  28.751  55.832  1.00  0.00     0.001 A 
HETATM   19  C   UNL     1       4.381  30.105  55.793  1.00  0.00     0.000 A 
HETATM   20  C   UNL     1       5.660  30.525  56.149  1.00  0.00     0.001 A 
HETATM   21  C   UNL     1       6.619  29.588  56.540  1.00  0.00     0.009 A 
ENDBRANCH  15  16
ENDBRANCH  12  15
ENDBRANCH   6  11
BRANCH   9  22
HETATM   22  O   UNL     1       9.714  19.942  56.124  1.00  0.00    -0.361 OA
HETATM   23  H   UNL     1      10.520  19.644  55.672  1.00  0.00     0.217 HD
ENDBRANCH   9  22
TORSDOF 4
ENDMDL
MODEL 8
REMARK VINA RESULT:      -8.0      2.473      3.356
REMARK  4 active torsions:
REMARK  status: ('A' for Active; 'I' for Inactive)
REMARK    1  A    between atoms: C_6  and  C_7 
REMARK       I    between atoms: C_7  and  N_8 
REMARK    2  A    between atoms: N_8  and  C_9 
REMARK    3  A    between atoms: C_9  and  C_10 
REMARK    4  A    between atoms: C_19  and  O_20 
ROOT
HETATM    1  C   UNL     1       4.848  26.158  53.215  1.00  0.00     0.078 C 
HETATM    2  C   UNL     1       5.205  27.054  54.338  1.00  0.00     0.066 A 
HETATM    3  O   UNL     1       4.821  28.351  54.208  1.00  0.00    -0.314 OA
HETATM    4  C   UNL     1       5.239  29.007  55.319  1.00  0.00     0.087 A 
HETATM    5  C   UNL     1       5.899  28.136  56.182  1.00  0.00     0.019 A 
HETATM    6  C   UNL     1       5.854  26.848  55.549  1.00  0.00     0.074 A 
HETATM    7  C   UNL     1       5.042  30.366  55.559  1.00  0.00     0.041 A 
HETATM    8  C   UNL     1       5.561  30.877  56.752  1.00  0.00     0.039 A 
HETATM    9  C   UNL     1       6.245  30.042  57.632  1.00  0.00     0.066 A 
HETATM   10  C   UNL     1       6.431  28.680  57.370  1.00  0.00     0.052 A 
ENDROOT
BRANCH   6  11
HETATM   11  C   UNL     1       6.347  25.547  55.975  1.00  0.00     0.255 C 
HETATM   12  N   UNL     1       7.603  25.208  55.521  1.00  0.00    -0.353 N 
HETATM   13  H   UNL     1       8.163  25.917  55.070  1.00  0.00     0.163 HD
HETATM   14  O   UNL     1       5.714  24.824  56.740  1.00  0.00    -0.268 OA
BRANCH  12  15
HETATM   15  C   UNL     1       8.266  24.048  56.066  1.00  0.00     0.161 C 
BRANCH  15  16
HETATM   16  C   UNL     1       8.173  22.841  55.169  1.00  0.00    -0.041 A 
HETATM   17  C   UNL     1       8.100  21.544  55.702  1.00  0.00     0.009 A 
HETATM   18  C   UNL     1       7.967  20.437  54.862  1.00  0.00     0.001 A 
HETATM   19  C   UNL     1       7.890  20.613  53.482  1.00  0.00     0.000 A 
HETATM   20  C   UNL     1       7.949  21.895  52.940  1.00  0.00     0.001 A 
HETATM   21  C   UNL     1       8.091  23.002  53.778  1.00  0.00     0.009 A 
ENDBRANCH  15  16
ENDBRANCH  12  15
ENDBRANCH   6  11
BRANCH   9  22
HETATM   22  O   UNL     1       6.770  30.529  58.795  1.00  0.00    -0.361 OA
HETATM   23  H   UNL     1       7.344  31.284  58.589  1.00  0.00     0.217 HD
ENDBRANCH   9  22
TORSDOF 4
ENDMDL
MODEL 9
REMARK VINA RESULT:      -7.9      3.109      5.113
REMARK  4 active torsions:
REMARK  status: ('A' for Active; 'I' for Inactive)
REMARK    1  A    between atoms: C_6  and  C_7 
REMARK       I    between atoms: C_7  and  N_8 
REMARK    2  A    between atoms: N_8  and  C_9 
REMARK    3  A    between atoms: C_9  and  C_10 
REMARK    4  A    between atoms: C_19  and  O_20 
ROOT
HETATM    1  C   UNL     1       4.674  28.677  56.627  1.00  0.00     0.078 C 
HETATM    2  C   UNL     1       4.842  28.244  55.222  1.00  0.00     0.066 A 
HETATM    3  O   UNL     1       4.054  28.871  54.309  1.00  0.00    -0.314 OA
HETATM    4  C   UNL     1       4.344  28.340  53.095  1.00  0.00     0.087 A 
HETATM    5  C   UNL     1       5.327  27.360  53.212  1.00  0.00     0.019 A 
HETATM    6  C   UNL     1       5.672  27.316  54.605  1.00  0.00     0.074 A 
HETATM    7  C   UNL     1       3.737  28.716  51.898  1.00  0.00     0.041 A 
HETATM    8  C   UNL     1       4.147  28.044  50.745  1.00  0.00     0.039 A 
HETATM    9  C   UNL     1       5.114  27.043  50.823  1.00  0.00     0.066 A 
HETATM   10  C   UNL     1       5.711  26.682  52.037  1.00  0.00     0.052 A 
ENDROOT
BRANCH   6  11
HETATM   11  C   UNL     1       6.648  26.518  55.332  1.00  0.00     0.255 C 
HETATM   12  N   UNL     1       6.378  25.169  55.407  1.00  0.00    -0.353 N 
HETATM   13  H   UNL     1       5.634  24.792  54.839  1.00  0.00     0.163 HD
HETATM   14  O   UNL     1       7.678  27.002  55.794  1.00  0.00    -0.268 OA
BRANCH  12  15
HETATM   15  C   UNL     1       7.389  24.268  55.908  1.00  0.00     0.161 C 
BRANCH  15  16
HETATM   16  C   UNL     1       7.553  23.037  55.056  1.00  0.00    -0.041 A 
HETATM   17  C   UNL     1       7.620  23.126  53.656  1.00  0.00     0.009 A 
HETATM   18  C   UNL     1       7.819  21.983  52.879  1.00  0.00     0.001 A 
HETATM   19  C   UNL     1       7.967  20.741  53.492  1.00  0.00     0.000 A 
HETATM   20  C   UNL     1       7.914  20.638  54.879  1.00  0.00     0.001 A 
HETATM   21  C   UNL     1       7.707  21.779  55.657  1.00  0.00     0.009 A 
ENDBRANCH  15  16
ENDBRANCH  12  15
ENDBRANCH   6  11
BRANCH   9  22
HETATM   22  O   UNL     1       5.516  26.368  49.706  1.00  0.00    -0.361 OA
HETATM   23  H   UNL     1       6.277  26.829  49.318  1.00  0.00     0.217 HD
ENDBRANCH   9  22
TORSDOF 4
ENDMDL
MODEL 10
REMARK VINA RESULT:      -7.9      3.880      6.192
REMARK  4 active torsions:
REMARK  status: ('A' for Active; 'I' for Inactive)
REMARK    1  A    between atoms: C_6  and  C_7 
REMARK       I    between atoms: C_7  and  N_8 
REMARK    2  A    between atoms: N_8  and  C_9 
REMARK    3  A    between atoms: C_9  and  C_10 
REMARK    4  A    between atoms: C_19  and  O_20 
ROOT
HETATM    1  C   UNL     1      10.060  31.762  59.057  1.00  0.00     0.078 C 
HETATM    2  C   UNL     1       8.978  31.914  60.056  1.00  0.00     0.066 A 
HETATM    3  O   UNL     1       9.368  32.317  61.295  1.00  0.00    -0.314 OA
HETATM    4  C   UNL     1       8.251  32.391  62.062  1.00  0.00     0.087 A 
HETATM    5  C   UNL     1       7.125  32.037  61.323  1.00  0.00     0.019 A 
HETATM    6  C   UNL     1       7.600  31.750  59.999  1.00  0.00     0.074 A 
HETATM    7  C   UNL     1       8.235  32.762  63.405  1.00  0.00     0.041 A 
HETATM    8  C   UNL     1       6.992  32.763  64.044  1.00  0.00     0.039 A 
HETATM    9  C   UNL     1       5.845  32.396  63.344  1.00  0.00     0.066 A 
HETATM   10  C   UNL     1       5.885  32.027  61.994  1.00  0.00     0.052 A 
ENDROOT
BRANCH   6  11
HETATM   11  C   UNL     1       6.898  31.356  58.786  1.00  0.00     0.255 C 
HETATM   12  N   UNL     1       6.955  30.016  58.473  1.00  0.00    -0.353 N 
HETATM   13  H   UNL     1       7.327  29.374  59.157  1.00  0.00     0.163 HD
HETATM   14  O   UNL     1       6.243  32.153  58.120  1.00  0.00    -0.268 OA
BRANCH  12  15
HETATM   15  C   UNL     1       6.111  29.495  57.424  1.00  0.00     0.161 C 
BRANCH  15  16
HETATM   16  C   UNL     1       6.224  28.001  57.265  1.00  0.00    -0.041 A 
HETATM   17  C   UNL     1       7.394  27.319  57.637  1.00  0.00     0.009 A 
HETATM   18  C   UNL     1       7.470  25.929  57.529  1.00  0.00     0.001 A 
HETATM   19  C   UNL     1       6.376  25.204  57.063  1.00  0.00     0.000 A 
HETATM   20  C   UNL     1       5.205  25.866  56.702  1.00  0.00     0.001 A 
HETATM   21  C   UNL     1       5.130  27.257  56.801  1.00  0.00     0.009 A 
ENDBRANCH  15  16
ENDBRANCH  12  15
ENDBRANCH   6  11
BRANCH   9  22
HETATM   22  O   UNL     1       4.625  32.379  63.958  1.00  0.00    -0.361 OA
HETATM   23  H   UNL     1       4.738  32.078  64.874  1.00  0.00     0.217 HD
ENDBRANCH   9  22
TORSDOF 4
ENDMDL
