MODEL 1
REMARK VINA RESULT:     -10.2      0.000      0.000
REMARK  5 active torsions:
REMARK  status: ('A' for Active; 'I' for Inactive)
REMARK    1  A    between atoms: C_9  and  N_10 
REMARK       I    between atoms: N_10  and  C_11 
REMARK    2  A    between atoms: C_11  and  C_12 
REMARK    3  A    between atoms: C_14  and  C_15 
REMARK    4  A    between atoms: C_15  and  O_16 
REMARK    5  A    between atoms: O_16  and  C_17 
ROOT
HETATM    1  N   UNL     1       7.725  30.900  60.597  1.00  0.00    -0.321 N 
HETATM    2  C   UNL     1       8.463  31.300  59.488  1.00  0.00     0.279 C 
HETATM    3  O   UNL     1       8.893  32.440  59.329  1.00  0.00    -0.265 OA
HETATM    4  H   UNL     1       7.581  29.903  60.695  1.00  0.00     0.169 HD
ENDROOT
BRANCH   2   5
HETATM    5  C   UNL     1       8.737  30.221  58.555  1.00  0.00     0.143 A 
HETATM    6  O   UNL     1       7.914  29.129  58.585  1.00  0.00    -0.307 OA
HETATM    7  C   UNL     1       8.328  28.266  57.615  1.00  0.00     0.078 A 
HETATM    8  C   UNL     1       9.432  28.782  56.970  1.00  0.00     0.038 A 
HETATM    9  C   UNL     1       9.692  30.042  57.568  1.00  0.00     0.045 A 
BRANCH   7  10
HETATM   10  C   UNL     1       7.527  27.027  57.445  1.00  0.00     0.240 C 
BRANCH  10  11
HETATM   11  O   UNL     1       8.424  25.928  57.590  1.00  0.00    -0.345 OA
BRANCH  11  12
HETATM   12  C   UNL     1       8.198  24.846  56.782  1.00  0.00     0.069 A 
HETATM   13  C   UNL     1       8.536  23.521  57.074  1.00  0.00     0.040 A 
HETATM   14  C   UNL     1       8.251  22.508  56.153  1.00  0.00     0.045 A 
HETATM   15  C   UNL     1       7.631  22.822  54.951  1.00  0.00     0.116 A 
HETATM   16  F   UNL     1       7.364  21.848  54.072  1.00  0.00    -0.206 F 
HETATM   17  C   UNL     1       7.282  24.133  54.651  1.00  0.00     0.045 A 
HETATM   18  C   UNL     1       7.566  25.144  55.571  1.00  0.00     0.040 A 
ENDBRANCH  11  12
ENDBRANCH  10  11
ENDBRANCH   7  10
ENDBRANCH   2   5
BRANCH   1  19
HETATM   19  C   UNL     1       7.326  31.706  61.683  1.00  0.00     0.035 A 
HETATM   20  C   UNL     1       6.047  32.258  61.803  1.00  0.00     0.039 A 
HETATM   21  C   UNL     1       5.761  33.058  62.900  1.00  0.00    -0.022 A 
HETATM   22  C   UNL     1       4.467  33.714  63.238  1.00  0.00     0.274 C 
HETATM   23  C   UNL     1       6.720  33.313  63.882  1.00  0.00    -0.025 A 
HETATM   24  N   UNL     1       4.796  34.629  64.413  1.00  0.00    -0.067 N 
HETATM   25  C   UNL     1       3.724  34.719  65.439  1.00  0.00     0.270 C 
HETATM   26  H   UNL     1       4.943  35.560  64.007  1.00  0.00     0.280 HD
HETATM   27  C   UNL     1       6.151  34.182  64.951  1.00  0.00     0.273 C 
HETATM   28  C   UNL     1       7.984  32.760  63.794  1.00  0.00     0.012 A 
HETATM   29  C   UNL     1       8.280  31.949  62.691  1.00  0.00     0.030 A 
ENDBRANCH   1  19
TORSDOF 5
ENDMDL
MODEL 2
REMARK VINA RESULT:      -9.5      4.274     10.882
REMARK  5 active torsions:
REMARK  status: ('A' for Active; 'I' for Inactive)
REMARK    1  A    between atoms: C_9  and  N_10 
REMARK       I    between atoms: N_10  and  C_11 
REMARK    2  A    between atoms: C_11  and  C_12 
REMARK    3  A    between atoms: C_14  and  C_15 
REMARK    4  A    between atoms: C_15  and  O_16 
REMARK    5  A    between atoms: O_16  and  C_17 
ROOT
HETATM    1  N   UNL     1       6.873  26.910  55.809  1.00  0.00    -0.321 N 
HETATM    2  C   UNL     1       5.791  27.215  56.628  1.00  0.00     0.279 C 
HETATM    3  O   UNL     1       4.905  26.413  56.916  1.00  0.00    -0.265 OA
HETATM    4  H   UNL     1       7.618  27.593  55.791  1.00  0.00     0.169 HD
ENDROOT
BRANCH   2   5
HETATM    5  C   UNL     1       5.836  28.561  57.170  1.00  0.00     0.143 A 
HETATM    6  O   UNL     1       7.038  29.021  57.633  1.00  0.00    -0.307 OA
HETATM    7  C   UNL     1       6.859  30.303  58.059  1.00  0.00     0.078 A 
HETATM    8  C   UNL     1       5.540  30.670  57.898  1.00  0.00     0.038 A 
HETATM    9  C   UNL     1       4.883  29.555  57.320  1.00  0.00     0.045 A 
BRANCH   7  10
HETATM   10  C   UNL     1       8.068  31.010  58.556  1.00  0.00     0.240 C 
BRANCH  10  11
HETATM   11  O   UNL     1       7.638  32.277  59.046  1.00  0.00    -0.345 OA
BRANCH  11  12
HETATM   12  C   UNL     1       7.590  32.421  60.406  1.00  0.00     0.069 A 
HETATM   13  C   UNL     1       6.529  32.966  61.136  1.00  0.00     0.040 A 
HETATM   14  C   UNL     1       6.614  33.060  62.529  1.00  0.00     0.045 A 
HETATM   15  C   UNL     1       7.753  32.607  63.183  1.00  0.00     0.116 A 
HETATM   16  F   UNL     1       7.829  32.702  64.517  1.00  0.00    -0.206 F 
HETATM   17  C   UNL     1       8.811  32.056  62.472  1.00  0.00     0.045 A 
HETATM   18  C   UNL     1       8.726  31.963  61.082  1.00  0.00     0.040 A 
ENDBRANCH  11  12
ENDBRANCH  10  11
ENDBRANCH   7  10
ENDBRANCH   2   5
BRANCH   1  19
HETATM   19  C   UNL     1       7.123  25.683  55.160  1.00  0.00     0.035 A 
HETATM   20  C   UNL     1       7.883  24.654  55.724  1.00  0.00     0.039 A 
HETATM   21  C   UNL     1       8.090  23.494  54.992  1.00  0.00    -0.022 A 
HETATM   22  C   UNL     1       8.835  22.273  55.410  1.00  0.00     0.274 C 
HETATM   23  C   UNL     1       7.552  23.335  53.715  1.00  0.00    -0.025 A 
HETATM   24  N   UNL     1       8.925  21.426  54.145  1.00  0.00    -0.067 N 
HETATM   25  C   UNL     1       8.803  19.963  54.376  1.00  0.00     0.270 C 
HETATM   26  H   UNL     1       9.850  21.622  53.746  1.00  0.00     0.280 HD
HETATM   27  C   UNL     1       7.909  21.998  53.162  1.00  0.00     0.273 C 
HETATM   28  C   UNL     1       6.779  24.331  53.146  1.00  0.00     0.012 A 
HETATM   29  C   UNL     1       6.562  25.505  53.879  1.00  0.00     0.030 A 
ENDBRANCH   1  19
TORSDOF 5
ENDMDL
MODEL 3
REMARK VINA RESULT:      -9.5      4.050     10.425
REMARK  5 active torsions:
REMARK  status: ('A' for Active; 'I' for Inactive)
REMARK    1  A    between atoms: C_9  and  N_10 
REMARK       I    between atoms: N_10  and  C_11 
REMARK    2  A    between atoms: C_11  and  C_12 
REMARK    3  A    between atoms: C_14  and  C_15 
REMARK    4  A    between atoms: C_15  and  O_16 
REMARK    5  A    between atoms: O_16  and  C_17 
ROOT
HETATM    1  N   UNL     1       8.109  28.218  57.805  1.00  0.00    -0.321 N 
HETATM    2  C   UNL     1       9.171  29.110  57.706  1.00  0.00     0.279 C 
HETATM    3  O   UNL     1      10.059  29.024  56.860  1.00  0.00    -0.265 OA
HETATM    4  H   UNL     1       7.357  28.494  58.423  1.00  0.00     0.169 HD
ENDROOT
BRANCH   2   5
HETATM    5  C   UNL     1       9.101  30.202  58.661  1.00  0.00     0.143 A 
HETATM    6  O   UNL     1       8.663  29.916  59.924  1.00  0.00    -0.307 OA
HETATM    7  C   UNL     1       8.710  31.066  60.654  1.00  0.00     0.078 A 
HETATM    8  C   UNL     1       9.153  32.104  59.862  1.00  0.00     0.038 A 
HETATM    9  C   UNL     1       9.412  31.550  58.583  1.00  0.00     0.045 A 
BRANCH   7  10
HETATM   10  C   UNL     1       8.320  30.959  62.083  1.00  0.00     0.240 C 
BRANCH  10  11
HETATM   11  O   UNL     1       8.485  32.252  62.658  1.00  0.00    -0.345 OA
BRANCH  11  12
HETATM   12  C   UNL     1       7.471  32.696  63.464  1.00  0.00     0.069 A 
HETATM   13  C   UNL     1       7.625  33.394  64.666  1.00  0.00     0.040 A 
HETATM   14  C   UNL     1       6.498  33.785  65.396  1.00  0.00     0.045 A 
HETATM   15  C   UNL     1       5.229  33.481  64.922  1.00  0.00     0.116 A 
HETATM   16  F   UNL     1       4.154  33.856  65.628  1.00  0.00    -0.206 F 
HETATM   17  C   UNL     1       5.060  32.796  63.726  1.00  0.00     0.045 A 
HETATM   18  C   UNL     1       6.184  32.406  62.997  1.00  0.00     0.040 A 
ENDBRANCH  11  12
ENDBRANCH  10  11
ENDBRANCH   7  10
ENDBRANCH   2   5
BRANCH   1  19
HETATM   19  C   UNL     1       7.884  27.079  57.005  1.00  0.00     0.035 A 
HETATM   20  C   UNL     1       8.389  25.811  57.309  1.00  0.00     0.039 A 
HETATM   21  C   UNL     1       8.130  24.758  56.444  1.00  0.00    -0.022 A 
HETATM   22  C   UNL     1       8.541  23.334  56.590  1.00  0.00     0.274 C 
HETATM   23  C   UNL     1       7.373  24.941  55.285  1.00  0.00    -0.025 A 
HETATM   24  N   UNL     1       8.179  22.691  55.256  1.00  0.00    -0.067 N 
HETATM   25  C   UNL     1       7.673  21.298  55.364  1.00  0.00     0.270 C 
HETATM   26  H   UNL     1       9.045  22.685  54.706  1.00  0.00     0.280 HD
HETATM   27  C   UNL     1       7.233  23.654  54.547  1.00  0.00     0.273 C 
HETATM   28  C   UNL     1       6.846  26.181  54.975  1.00  0.00     0.012 A 
HETATM   29  C   UNL     1       7.101  27.249  55.845  1.00  0.00     0.030 A 
ENDBRANCH   1  19
TORSDOF 5
ENDMDL
MODEL 4
REMARK VINA RESULT:      -9.1      1.727      2.165
REMARK  5 active torsions:
REMARK  status: ('A' for Active; 'I' for Inactive)
REMARK    1  A    between atoms: C_9  and  N_10 
REMARK       I    between atoms: N_10  and  C_11 
REMARK    2  A    between atoms: C_11  and  C_12 
REMARK    3  A    between atoms: C_14  and  C_15 
REMARK    4  A    between atoms: C_15  and  O_16 
REMARK    5  A    between atoms: O_16  and  C_17 
ROOT
HETATM    1  N   UNL     1       6.515  31.386  60.162  1.00  0.00    -0.321 N 
HETATM    2  C   UNL     1       7.324  31.556  59.043  1.00  0.00     0.279 C 
HETATM    3  O   UNL     1       8.335  32.255  59.031  1.00  0.00    -0.265 OA
HETATM    4  H   UNL     1       5.819  30.655  60.095  1.00  0.00     0.169 HD
ENDROOT
BRANCH   2   5
HETATM    5  C   UNL     1       6.898  30.775  57.896  1.00  0.00     0.143 A 
HETATM    6  O   UNL     1       7.627  29.663  57.576  1.00  0.00    -0.307 OA
HETATM    7  C   UNL     1       7.036  29.069  56.501  1.00  0.00     0.078 A 
HETATM    8  C   UNL     1       5.940  29.805  56.105  1.00  0.00     0.038 A 
HETATM    9  C   UNL     1       5.845  30.897  57.004  1.00  0.00     0.045 A 
BRANCH   7  10
HETATM   10  C   UNL     1       7.650  27.804  56.024  1.00  0.00     0.240 C 
BRANCH  10  11
HETATM   11  O   UNL     1       6.934  27.408  54.857  1.00  0.00    -0.345 OA
BRANCH  11  12
HETATM   12  C   UNL     1       7.301  26.217  54.290  1.00  0.00     0.069 A 
HETATM   13  C   UNL     1       7.606  26.010  52.941  1.00  0.00     0.040 A 
HETATM   14  C   UNL     1       7.963  24.734  52.493  1.00  0.00     0.045 A 
HETATM   15  C   UNL     1       8.017  23.677  53.392  1.00  0.00     0.116 A 
HETATM   16  F   UNL     1       8.356  22.457  52.955  1.00  0.00    -0.206 F 
HETATM   17  C   UNL     1       7.725  23.869  54.736  1.00  0.00     0.045 A 
HETATM   18  C   UNL     1       7.369  25.142  55.183  1.00  0.00     0.040 A 
ENDBRANCH  11  12
ENDBRANCH  10  11
ENDBRANCH   7  10
ENDBRANCH   2   5
BRANCH   1  19
HETATM   19  C   UNL     1       6.684  31.986  61.426  1.00  0.00     0.035 A 
HETATM   20  C   UNL     1       5.744  32.846  62.003  1.00  0.00     0.039 A 
HETATM   21  C   UNL     1       6.016  33.403  63.244  1.00  0.00    -0.022 A 
HETATM   22  C   UNL     1       5.149  34.311  64.046  1.00  0.00     0.274 C 
HETATM   23  C   UNL     1       7.201  33.118  63.924  1.00  0.00    -0.025 A 
HETATM   24  N   UNL     1       6.038  34.774  65.196  1.00  0.00    -0.067 N 
HETATM   25  C   UNL     1       5.331  34.926  66.494  1.00  0.00     0.270 C 
HETATM   26  H   UNL     1       6.405  35.689  64.911  1.00  0.00     0.280 HD
HETATM   27  C   UNL     1       7.233  33.829  65.233  1.00  0.00     0.273 C 
HETATM   28  C   UNL     1       8.135  32.253  63.383  1.00  0.00     0.012 A 
HETATM   29  C   UNL     1       7.866  31.684  62.131  1.00  0.00     0.030 A 
ENDBRANCH   1  19
TORSDOF 5
ENDMDL
MODEL 5
REMARK VINA RESULT:      -8.8      7.573     10.949
REMARK  5 active torsions:
REMARK  status: ('A' for Active; 'I' for Inactive)
REMARK    1  A    between atoms: C_9  and  N_10 
REMARK       I    between atoms: N_10  and  C_11 
REMARK    2  A    between atoms: C_11  and  C_12 
REMARK    3  A    between atoms: C_14  and  C_15 
REMARK    4  A    between atoms: C_15  and  O_16 
REMARK    5  A    between atoms: O_16  and  C_17 
ROOT
HETATM    1  N   UNL     1       5.712  26.318  53.488  1.00  0.00    -0.321 N 
HETATM    2  C   UNL     1       5.947  27.604  53.962  1.00  0.00     0.279 C 
HETATM    3  O   UNL     1       6.951  27.927  54.594  1.00  0.00    -0.265 OA
HETATM    4  H   UNL     1       4.943  26.221  52.837  1.00  0.00     0.169 HD
ENDROOT
BRANCH   2   5
HETATM    5  C   UNL     1       4.919  28.558  53.583  1.00  0.00     0.143 A 
HETATM    6  O   UNL     1       4.372  28.442  52.335  1.00  0.00    -0.307 OA
HETATM    7  C   UNL     1       3.417  29.405  52.206  1.00  0.00     0.078 A 
HETATM    8  C   UNL     1       3.358  30.162  53.357  1.00  0.00     0.038 A 
HETATM    9  C   UNL     1       4.317  29.615  54.245  1.00  0.00     0.045 A 
BRANCH   7  10
HETATM   10  C   UNL     1       2.659  29.418  50.928  1.00  0.00     0.240 C 
BRANCH  10  11
HETATM   11  O   UNL     1       3.591  29.134  49.888  1.00  0.00    -0.345 OA
BRANCH  11  12
HETATM   12  C   UNL     1       3.254  28.125  49.027  1.00  0.00     0.069 A 
HETATM   13  C   UNL     1       1.965  27.832  48.570  1.00  0.00     0.040 A 
HETATM   14  C   UNL     1       1.761  26.764  47.691  1.00  0.00     0.045 A 
HETATM   15  C   UNL     1       2.841  25.999  47.272  1.00  0.00     0.116 A 
HETATM   16  F   UNL     1       2.638  24.975  46.432  1.00  0.00    -0.206 F 
HETATM   17  C   UNL     1       4.128  26.283  47.710  1.00  0.00     0.045 A 
HETATM   18  C   UNL     1       4.332  27.349  48.587  1.00  0.00     0.040 A 
ENDBRANCH  11  12
ENDBRANCH  10  11
ENDBRANCH   7  10
ENDBRANCH   2   5
BRANCH   1  19
HETATM   19  C   UNL     1       6.535  25.187  53.667  1.00  0.00     0.035 A 
HETATM   20  C   UNL     1       6.752  24.580  54.908  1.00  0.00     0.039 A 
HETATM   21  C   UNL     1       7.599  23.484  54.981  1.00  0.00    -0.022 A 
HETATM   22  C   UNL     1       7.943  22.675  56.184  1.00  0.00     0.274 C 
HETATM   23  C   UNL     1       8.229  22.977  53.844  1.00  0.00    -0.025 A 
HETATM   24  N   UNL     1       9.069  21.758  55.721  1.00  0.00    -0.067 N 
HETATM   25  C   UNL     1       9.026  20.392  56.304  1.00  0.00     0.270 C 
HETATM   26  H   UNL     1       9.939  22.215  56.016  1.00  0.00     0.280 HD
HETATM   27  C   UNL     1       9.066  21.795  54.196  1.00  0.00     0.273 C 
HETATM   28  C   UNL     1       8.013  23.548  52.603  1.00  0.00     0.012 A 
HETATM   29  C   UNL     1       7.157  24.654  52.520  1.00  0.00     0.030 A 
ENDBRANCH   1  19
TORSDOF 5
ENDMDL
MODEL 6
REMARK VINA RESULT:      -8.8      6.809     10.289
REMARK  5 active torsions:
REMARK  status: ('A' for Active; 'I' for Inactive)
REMARK    1  A    between atoms: C_9  and  N_10 
REMARK       I    between atoms: N_10  and  C_11 
REMARK    2  A    between atoms: C_11  and  C_12 
REMARK    3  A    between atoms: C_14  and  C_15 
REMARK    4  A    between atoms: C_15  and  O_16 
REMARK    5  A    between atoms: O_16  and  C_17 
ROOT
HETATM    1  N   UNL     1       5.701  27.324  52.377  1.00  0.00    -0.321 N 
HETATM    2  C   UNL     1       5.213  27.583  53.654  1.00  0.00     0.279 C 
HETATM    3  O   UNL     1       4.056  27.925  53.887  1.00  0.00    -0.265 OA
HETATM    4  H   UNL     1       6.611  26.884  52.334  1.00  0.00     0.169 HD
ENDROOT
BRANCH   2   5
HETATM    5  C   UNL     1       6.188  27.347  54.705  1.00  0.00     0.143 A 
HETATM    6  O   UNL     1       6.519  26.050  54.987  1.00  0.00    -0.307 OA
HETATM    7  C   UNL     1       7.463  26.064  55.969  1.00  0.00     0.078 A 
HETATM    8  C   UNL     1       7.729  27.364  56.344  1.00  0.00     0.038 A 
HETATM    9  C   UNL     1       6.916  28.190  55.528  1.00  0.00     0.045 A 
BRANCH   7  10
HETATM   10  C   UNL     1       8.001  24.744  56.388  1.00  0.00     0.240 C 
BRANCH  10  11
HETATM   11  O   UNL     1       7.012  23.770  56.064  1.00  0.00    -0.345 OA
BRANCH  11  12
HETATM   12  C   UNL     1       7.412  22.742  55.253  1.00  0.00     0.069 A 
HETATM   13  C   UNL     1       7.735  21.447  55.671  1.00  0.00     0.040 A 
HETATM   14  C   UNL     1       8.135  20.490  54.733  1.00  0.00     0.045 A 
HETATM   15  C   UNL     1       8.207  20.829  53.388  1.00  0.00     0.116 A 
HETATM   16  F   UNL     1       8.594  19.908  52.496  1.00  0.00    -0.206 F 
HETATM   17  C   UNL     1       7.881  22.108  52.958  1.00  0.00     0.045 A 
HETATM   18  C   UNL     1       7.481  23.064  53.894  1.00  0.00     0.040 A 
ENDBRANCH  11  12
ENDBRANCH  10  11
ENDBRANCH   7  10
ENDBRANCH   2   5
BRANCH   1  19
HETATM   19  C   UNL     1       4.993  27.434  51.163  1.00  0.00     0.035 A 
HETATM   20  C   UNL     1       4.350  28.605  50.749  1.00  0.00     0.039 A 
HETATM   21  C   UNL     1       3.659  28.603  49.546  1.00  0.00    -0.022 A 
HETATM   22  C   UNL     1       2.936  29.737  48.907  1.00  0.00     0.274 C 
HETATM   23  C   UNL     1       3.602  27.462  48.744  1.00  0.00    -0.025 A 
HETATM   24  N   UNL     1       2.194  29.108  47.733  1.00  0.00    -0.067 N 
HETATM   25  C   UNL     1       2.130  29.963  46.519  1.00  0.00     0.270 C 
HETATM   26  H   UNL     1       1.239  28.938  48.068  1.00  0.00     0.280 HD
HETATM   27  C   UNL     1       2.816  27.734  47.508  1.00  0.00     0.273 C 
HETATM   28  C   UNL     1       4.249  26.300  49.123  1.00  0.00     0.012 A 
HETATM   29  C   UNL     1       4.950  26.294  50.336  1.00  0.00     0.030 A 
ENDBRANCH   1  19
TORSDOF 5
ENDMDL
MODEL 7
REMARK VINA RESULT:      -8.6      4.774     10.581
REMARK  5 active torsions:
REMARK  status: ('A' for Active; 'I' for Inactive)
REMARK    1  A    between atoms: C_9  and  N_10 
REMARK       I    between atoms: N_10  and  C_11 
REMARK    2  A    between atoms: C_11  and  C_12 
REMARK    3  A    between atoms: C_14  and  C_15 
REMARK    4  A    between atoms: C_15  and  O_16 
REMARK    5  A    between atoms: O_16  and  C_17 
ROOT
HETATM    1  N   UNL     1       6.305  26.937  54.425  1.00  0.00    -0.321 N 
HETATM    2  C   UNL     1       5.103  27.393  53.893  1.00  0.00     0.279 C 
HETATM    3  O   UNL     1       4.374  26.714  53.173  1.00  0.00    -0.265 OA
HETATM    4  H   UNL     1       6.721  27.522  55.138  1.00  0.00     0.169 HD
ENDROOT
BRANCH   2   5
HETATM    5  C   UNL     1       4.752  28.735  54.321  1.00  0.00     0.143 A 
HETATM    6  O   UNL     1       5.379  29.234  55.430  1.00  0.00    -0.307 OA
HETATM    7  C   UNL     1       4.929  30.505  55.628  1.00  0.00     0.078 A 
HETATM    8  C   UNL     1       3.994  30.826  54.667  1.00  0.00     0.038 A 
HETATM    9  C   UNL     1       3.884  29.693  53.822  1.00  0.00     0.045 A 
BRANCH   7  10
HETATM   10  C   UNL     1       5.531  31.251  56.764  1.00  0.00     0.240 C 
BRANCH  10  11
HETATM   11  O   UNL     1       6.330  30.323  57.494  1.00  0.00    -0.345 OA
BRANCH  11  12
HETATM   12  C   UNL     1       7.194  30.854  58.413  1.00  0.00     0.069 A 
HETATM   13  C   UNL     1       6.907  31.895  59.302  1.00  0.00     0.040 A 
HETATM   14  C   UNL     1       7.889  32.346  60.190  1.00  0.00     0.045 A 
HETATM   15  C   UNL     1       9.145  31.755  60.188  1.00  0.00     0.116 A 
HETATM   16  F   UNL     1      10.082  32.194  61.039  1.00  0.00    -0.206 F 
HETATM   17  C   UNL     1       9.443  30.715  59.317  1.00  0.00     0.045 A 
HETATM   18  C   UNL     1       8.462  30.265  58.431  1.00  0.00     0.040 A 
ENDBRANCH  11  12
ENDBRANCH  10  11
ENDBRANCH   7  10
ENDBRANCH   2   5
BRANCH   1  19
HETATM   19  C   UNL     1       6.897  25.675  54.218  1.00  0.00     0.035 A 
HETATM   20  C   UNL     1       7.075  24.731  55.233  1.00  0.00     0.039 A 
HETATM   21  C   UNL     1       7.691  23.525  54.930  1.00  0.00    -0.022 A 
HETATM   22  C   UNL     1       7.951  22.378  55.843  1.00  0.00     0.274 C 
HETATM   23  C   UNL     1       8.126  23.238  53.635  1.00  0.00    -0.025 A 
HETATM   24  N   UNL     1       8.837  21.436  55.035  1.00  0.00    -0.067 N 
HETATM   25  C   UNL     1       8.564  19.993  55.262  1.00  0.00     0.270 C 
HETATM   26  H   UNL     1       9.799  21.640  55.328  1.00  0.00     0.280 HD
HETATM   27  C   UNL     1       8.733  21.878  53.580  1.00  0.00     0.273 C 
HETATM   28  C   UNL     1       7.940  24.148  52.610  1.00  0.00     0.012 A 
HETATM   29  C   UNL     1       7.317  25.367  52.908  1.00  0.00     0.030 A 
ENDBRANCH   1  19
TORSDOF 5
ENDMDL
MODEL 8
REMARK VINA RESULT:      -8.5      1.579      2.289
REMARK  5 active torsions:
REMARK  status: ('A' for Active; 'I' for Inactive)
REMARK    1  A    between atoms: C_9  and  N_10 
REMARK       I    between atoms: N_10  and  C_11 
REMARK    2  A    between atoms: C_11  and  C_12 
REMARK    3  A    between atoms: C_14  and  C_15 
REMARK    4  A    between atoms: C_15  and  O_16 
REMARK    5  A    between atoms: O_16  and  C_17 
ROOT
HETATM    1  N   UNL     1       6.778  31.371  59.594  1.00  0.00    -0.321 N 
HETATM    2  C   UNL     1       8.054  31.455  59.046  1.00  0.00     0.279 C 
HETATM    3  O   UNL     1       8.801  32.419  59.201  1.00  0.00    -0.265 OA
HETATM    4  H   UNL     1       6.335  30.462  59.542  1.00  0.00     0.169 HD
ENDROOT
BRANCH   2   5
HETATM    5  C   UNL     1       8.453  30.262  58.321  1.00  0.00     0.143 A 
HETATM    6  O   UNL     1       7.579  29.211  58.294  1.00  0.00    -0.307 OA
HETATM    7  C   UNL     1       8.136  28.223  57.539  1.00  0.00     0.078 A 
HETATM    8  C   UNL     1       9.379  28.618  57.095  1.00  0.00     0.038 A 
HETATM    9  C   UNL     1       9.582  29.931  57.589  1.00  0.00     0.045 A 
BRANCH   7  10
HETATM   10  C   UNL     1       7.315  27.000  57.340  1.00  0.00     0.240 C 
BRANCH  10  11
HETATM   11  O   UNL     1       8.000  26.190  56.388  1.00  0.00    -0.345 OA
BRANCH  11  12
HETATM   12  C   UNL     1       7.242  25.664  55.377  1.00  0.00     0.069 A 
HETATM   13  C   UNL     1       7.461  24.438  54.741  1.00  0.00     0.040 A 
HETATM   14  C   UNL     1       6.608  24.021  53.713  1.00  0.00     0.045 A 
HETATM   15  C   UNL     1       5.544  24.828  53.330  1.00  0.00     0.116 A 
HETATM   16  F   UNL     1       4.733  24.425  52.343  1.00  0.00    -0.206 F 
HETATM   17  C   UNL     1       5.310  26.044  53.958  1.00  0.00     0.045 A 
HETATM   18  C   UNL     1       6.160  26.459  54.984  1.00  0.00     0.040 A 
ENDBRANCH  11  12
ENDBRANCH  10  11
ENDBRANCH   7  10
ENDBRANCH   2   5
BRANCH   1  19
HETATM   19  C   UNL     1       6.124  32.350  60.369  1.00  0.00     0.035 A 
HETATM   20  C   UNL     1       6.343  32.523  61.738  1.00  0.00     0.039 A 
HETATM   21  C   UNL     1       5.630  33.502  62.415  1.00  0.00    -0.022 A 
HETATM   22  C   UNL     1       5.730  33.873  63.854  1.00  0.00     0.274 C 
HETATM   23  C   UNL     1       4.709  34.315  61.755  1.00  0.00    -0.025 A 
HETATM   24  N   UNL     1       4.574  34.840  64.083  1.00  0.00    -0.067 N 
HETATM   25  C   UNL     1       4.882  35.952  65.020  1.00  0.00     0.270 C 
HETATM   26  H   UNL     1       3.814  34.276  64.479  1.00  0.00     0.280 HD
HETATM   27  C   UNL     1       4.098  35.288  62.705  1.00  0.00     0.273 C 
HETATM   28  C   UNL     1       4.491  34.177  60.396  1.00  0.00     0.012 A 
HETATM   29  C   UNL     1       5.209  33.192  59.705  1.00  0.00     0.030 A 
ENDBRANCH   1  19
TORSDOF 5
ENDMDL
MODEL 9
REMARK VINA RESULT:      -8.5      3.602      5.846
REMARK  5 active torsions:
REMARK  status: ('A' for Active; 'I' for Inactive)
REMARK    1  A    between atoms: C_9  and  N_10 
REMARK       I    between atoms: N_10  and  C_11 
REMARK    2  A    between atoms: C_11  and  C_12 
REMARK    3  A    between atoms: C_14  and  C_15 
REMARK    4  A    between atoms: C_15  and  O_16 
REMARK    5  A    between atoms: O_16  and  C_17 
ROOT
HETATM    1  N   UNL     1       6.292  27.669  55.678  1.00  0.00    -0.321 N 
HETATM    2  C   UNL     1       5.833  27.767  54.369  1.00  0.00     0.279 C 
HETATM    3  O   UNL     1       5.495  28.824  53.841  1.00  0.00    -0.265 OA
HETATM    4  H   UNL     1       6.702  26.781  55.937  1.00  0.00     0.169 HD
ENDROOT
BRANCH   2   5
HETATM    5  C   UNL     1       5.851  26.503  53.654  1.00  0.00     0.143 A 
HETATM    6  O   UNL     1       7.049  25.854  53.536  1.00  0.00    -0.307 OA
HETATM    7  C   UNL     1       6.829  24.688  52.867  1.00  0.00     0.078 A 
HETATM    8  C   UNL     1       5.497  24.587  52.527  1.00  0.00     0.038 A 
HETATM    9  C   UNL     1       4.865  25.749  53.038  1.00  0.00     0.045 A 
BRANCH   7  10
HETATM   10  C   UNL     1       8.007  23.801  52.679  1.00  0.00     0.240 C 
BRANCH  10  11
HETATM   11  O   UNL     1       7.575  22.471  52.955  1.00  0.00    -0.345 OA
BRANCH  11  12
HETATM   12  C   UNL     1       7.796  22.010  54.225  1.00  0.00     0.069 A 
HETATM   13  C   UNL     1       7.691  20.679  54.643  1.00  0.00     0.040 A 
HETATM   14  C   UNL     1       7.940  20.344  55.978  1.00  0.00     0.045 A 
HETATM   15  C   UNL     1       8.295  21.336  56.883  1.00  0.00     0.116 A 
HETATM   16  F   UNL     1       8.529  21.009  58.161  1.00  0.00    -0.206 F 
HETATM   17  C   UNL     1       8.411  22.660  56.481  1.00  0.00     0.045 A 
HETATM   18  C   UNL     1       8.162  22.994  55.148  1.00  0.00     0.040 A 
ENDBRANCH  11  12
ENDBRANCH  10  11
ENDBRANCH   7  10
ENDBRANCH   2   5
BRANCH   1  19
HETATM   19  C   UNL     1       6.417  28.719  56.611  1.00  0.00     0.035 A 
HETATM   20  C   UNL     1       7.507  28.855  57.477  1.00  0.00     0.039 A 
HETATM   21  C   UNL     1       7.523  29.913  58.375  1.00  0.00    -0.022 A 
HETATM   22  C   UNL     1       8.590  30.260  59.355  1.00  0.00     0.274 C 
HETATM   23  C   UNL     1       6.482  30.840  58.424  1.00  0.00    -0.025 A 
HETATM   24  N   UNL     1       7.979  31.364  60.211  1.00  0.00    -0.067 N 
HETATM   25  C   UNL     1       8.938  32.423  60.621  1.00  0.00     0.270 C 
HETATM   26  H   UNL     1       7.623  30.898  61.054  1.00  0.00     0.280 HD
HETATM   27  C   UNL     1       6.756  31.876  59.459  1.00  0.00     0.273 C 
HETATM   28  C   UNL     1       5.404  30.737  57.562  1.00  0.00     0.012 A 
HETATM   29  C   UNL     1       5.381  29.674  56.651  1.00  0.00     0.030 A 
ENDBRANCH   1  19
TORSDOF 5
ENDMDL
MODEL 10
REMARK VINA RESULT:      -8.3      3.382      4.133
REMARK  5 active torsions:
REMARK  status: ('A' for Active; 'I' for Inactive)
REMARK    1  A    between atoms: C_9  and  N_10 
REMARK       I    between atoms: N_10  and  C_11 
REMARK    2  A    between atoms: C_11  and  C_12 
REMARK    3  A    between atoms: C_14  and  C_15 
REMARK    4  A    between atoms: C_15  and  O_16 
REMARK    5  A    between atoms: O_16  and  C_17 
ROOT
HETATM    1  N   UNL     1       4.825  29.878  57.665  1.00  0.00    -0.321 N 
HETATM    2  C   UNL     1       6.063  29.253  57.557  1.00  0.00     0.279 C 
HETATM    3  O   UNL     1       7.127  29.791  57.854  1.00  0.00    -0.265 OA
HETATM    4  H   UNL     1       4.018  29.277  57.559  1.00  0.00     0.169 HD
ENDROOT
BRANCH   2   5
HETATM    5  C   UNL     1       5.979  27.872  57.117  1.00  0.00     0.143 A 
HETATM    6  O   UNL     1       7.142  27.158  57.037  1.00  0.00    -0.307 OA
HETATM    7  C   UNL     1       6.829  25.891  56.642  1.00  0.00     0.078 A 
HETATM    8  C   UNL     1       5.469  25.787  56.442  1.00  0.00     0.038 A 
HETATM    9  C   UNL     1       4.920  27.056  56.754  1.00  0.00     0.045 A 
BRANCH   7  10
HETATM   10  C   UNL     1       7.958  24.931  56.542  1.00  0.00     0.240 C 
BRANCH  10  11
HETATM   11  O   UNL     1       7.393  23.622  56.539  1.00  0.00    -0.345 OA
BRANCH  11  12
HETATM   12  C   UNL     1       7.609  22.867  55.418  1.00  0.00     0.069 A 
HETATM   13  C   UNL     1       7.687  23.350  54.107  1.00  0.00     0.040 A 
HETATM   14  C   UNL     1       7.907  22.464  53.048  1.00  0.00     0.045 A 
HETATM   15  C   UNL     1       8.052  21.106  53.303  1.00  0.00     0.116 A 
HETATM   16  F   UNL     1       8.259  20.262  52.284  1.00  0.00    -0.206 F 
HETATM   17  C   UNL     1       7.984  20.613  54.600  1.00  0.00     0.045 A 
HETATM   18  C   UNL     1       7.765  21.498  55.657  1.00  0.00     0.040 A 
ENDBRANCH  11  12
ENDBRANCH  10  11
ENDBRANCH   7  10
ENDBRANCH   2   5
BRANCH   1  19
HETATM   19  C   UNL     1       4.578  31.199  58.088  1.00  0.00     0.035 A 
HETATM   20  C   UNL     1       3.832  31.518  59.227  1.00  0.00     0.039 A 
HETATM   21  C   UNL     1       3.627  32.853  59.545  1.00  0.00    -0.022 A 
HETATM   22  C   UNL     1       2.896  33.410  60.717  1.00  0.00     0.274 C 
HETATM   23  C   UNL     1       4.154  33.876  58.756  1.00  0.00    -0.025 A 
HETATM   24  N   UNL     1       2.800  34.905  60.435  1.00  0.00    -0.067 N 
HETATM   25  C   UNL     1       2.936  35.766  61.639  1.00  0.00     0.270 C 
HETATM   26  H   UNL     1       1.870  35.052  60.028  1.00  0.00     0.280 HD
HETATM   27  C   UNL     1       3.802  35.207  59.326  1.00  0.00     0.273 C 
HETATM   28  C   UNL     1       4.914  33.584  57.637  1.00  0.00     0.012 A 
HETATM   29  C   UNL     1       5.127  32.239  57.311  1.00  0.00     0.030 A 
ENDBRANCH   1  19
TORSDOF 5
ENDMDL
