MODEL 1
REMARK VINA RESULT:     -10.1      0.000      0.000
REMARK  5 active torsions:
REMARK  status: ('A' for Active; 'I' for Inactive)
REMARK    1  A    between atoms: O_2  and  C_3 
REMARK    2  A    between atoms: C_5  and  O_6 
REMARK    3  A    between atoms: C_9  and  N_10 
REMARK       I    between atoms: N_10  and  C_11 
REMARK    4  A    between atoms: C_11  and  C_12 
REMARK    5  A    between atoms: C_20  and  C_21 
ROOT
HETATM    1  C   UNL     1       6.158  26.024  53.839  1.00  0.00     0.047 A 
HETATM    2  C   UNL     1       6.632  26.697  54.993  1.00  0.00     0.008 A 
HETATM    3  C   UNL     1       7.319  25.897  55.926  1.00  0.00     0.068 A 
HETATM    4  C   UNL     1       7.759  26.469  57.111  1.00  0.00     0.032 A 
HETATM    5  C   UNL     1       7.575  27.823  57.395  1.00  0.00     0.002 A 
HETATM    6  C   UNL     1       6.955  28.638  56.462  1.00  0.00     0.001 A 
HETATM    7  C   UNL     1       6.499  28.085  55.266  1.00  0.00     0.015 A 
HETATM    8  N   UNL     1       7.588  24.598  55.721  1.00  0.00    -0.248 NA
HETATM    9  C   UNL     1       7.216  23.999  54.565  1.00  0.00     0.068 A 
HETATM   10  C   UNL     1       6.473  24.680  53.618  1.00  0.00     0.050 A 
ENDROOT
BRANCH   1  11
HETATM   11  C   UNL     1       5.318  26.663  52.788  1.00  0.00     0.257 C 
HETATM   12  N   UNL     1       5.921  26.797  51.549  1.00  0.00    -0.323 N 
HETATM   13  H   UNL     1       6.864  26.442  51.453  1.00  0.00     0.169 HD
HETATM   14  O   UNL     1       4.195  27.037  53.101  1.00  0.00    -0.267 OA
BRANCH  12  15
HETATM   15  C   UNL     1       5.333  27.297  50.368  1.00  0.00     0.040 A 
HETATM   16  C   UNL     1       4.782  26.488  49.367  1.00  0.00     0.066 A 
HETATM   17  C   UNL     1       4.214  27.062  48.223  1.00  0.00     0.073 A 
HETATM   18  C   UNL     1       4.257  28.445  48.049  1.00  0.00     0.073 A 
HETATM   19  C   UNL     1       4.829  29.244  49.031  1.00  0.00     0.073 A 
HETATM   20  C   UNL     1       5.321  28.686  50.208  1.00  0.00     0.066 A 
BRANCH  17  21
HETATM   21  O   UNL     1       3.613  26.373  47.202  1.00  0.00    -0.356 OA
HETATM   22  C   UNL     1       3.026  25.123  47.552  1.00  0.00     0.210 C 
ENDBRANCH  17  21
BRANCH  19  23
HETATM   23  O   UNL     1       4.867  30.603  48.869  1.00  0.00    -0.356 OA
HETATM   24  C   UNL     1       5.759  31.176  49.828  1.00  0.00     0.210 C 
ENDBRANCH  19  23
ENDBRANCH  12  15
ENDBRANCH   1  11
BRANCH   9  25
HETATM   25  C   UNL     1       7.666  22.600  54.392  1.00  0.00    -0.007 A 
HETATM   26  C   UNL     1       7.920  21.780  55.508  1.00  0.00     0.014 A 
HETATM   27  C   UNL     1       8.369  20.464  55.364  1.00  0.00     0.001 A 
HETATM   28  C   UNL     1       8.578  19.935  54.095  1.00  0.00     0.000 A 
HETATM   29  C   UNL     1       8.341  20.722  52.972  1.00  0.00     0.001 A 
HETATM   30  C   UNL     1       7.893  22.039  53.120  1.00  0.00     0.014 A 
ENDBRANCH   9  25
TORSDOF 5
ENDMDL
MODEL 2
REMARK VINA RESULT:     -10.1      3.075      6.952
REMARK  5 active torsions:
REMARK  status: ('A' for Active; 'I' for Inactive)
REMARK    1  A    between atoms: O_2  and  C_3 
REMARK    2  A    between atoms: C_5  and  O_6 
REMARK    3  A    between atoms: C_9  and  N_10 
REMARK       I    between atoms: N_10  and  C_11 
REMARK    4  A    between atoms: C_11  and  C_12 
REMARK    5  A    between atoms: C_20  and  C_21 
ROOT
HETATM    1  C   UNL     1       7.082  26.905  53.974  1.00  0.00     0.047 A 
HETATM    2  C   UNL     1       6.288  27.072  52.813  1.00  0.00     0.008 A 
HETATM    3  C   UNL     1       6.063  25.907  52.055  1.00  0.00     0.068 A 
HETATM    4  C   UNL     1       5.348  25.999  50.870  1.00  0.00     0.032 A 
HETATM    5  C   UNL     1       4.811  27.205  50.419  1.00  0.00     0.002 A 
HETATM    6  C   UNL     1       4.969  28.351  51.182  1.00  0.00     0.001 A 
HETATM    7  C   UNL     1       5.689  28.284  52.374  1.00  0.00     0.015 A 
HETATM    8  N   UNL     1       6.497  24.693  52.430  1.00  0.00    -0.248 NA
HETATM    9  C   UNL     1       7.166  24.539  53.598  1.00  0.00     0.068 A 
HETATM   10  C   UNL     1       7.499  25.633  54.376  1.00  0.00     0.050 A 
ENDROOT
BRANCH   1  11
HETATM   11  C   UNL     1       7.524  28.027  54.850  1.00  0.00     0.257 C 
HETATM   12  N   UNL     1       6.712  28.281  55.941  1.00  0.00    -0.323 N 
HETATM   13  H   UNL     1       5.902  27.685  56.064  1.00  0.00     0.169 HD
HETATM   14  O   UNL     1       8.534  28.640  54.529  1.00  0.00    -0.267 OA
BRANCH  12  15
HETATM   15  C   UNL     1       6.933  29.230  56.961  1.00  0.00     0.040 A 
HETATM   16  C   UNL     1       7.891  29.083  57.971  1.00  0.00     0.066 A 
HETATM   17  C   UNL     1       8.051  30.073  58.948  1.00  0.00     0.073 A 
HETATM   18  C   UNL     1       7.205  31.181  58.955  1.00  0.00     0.073 A 
HETATM   19  C   UNL     1       6.235  31.312  57.968  1.00  0.00     0.073 A 
HETATM   20  C   UNL     1       6.126  30.373  56.946  1.00  0.00     0.066 A 
BRANCH  17  21
HETATM   21  O   UNL     1       8.980  30.053  59.955  1.00  0.00    -0.356 OA
HETATM   22  C   UNL     1       8.668  30.827  61.109  1.00  0.00     0.210 C 
ENDBRANCH  17  21
BRANCH  19  23
HETATM   23  O   UNL     1       5.407  32.402  57.965  1.00  0.00    -0.356 OA
HETATM   24  C   UNL     1       4.970  32.669  56.631  1.00  0.00     0.210 C 
ENDBRANCH  19  23
ENDBRANCH  12  15
ENDBRANCH   1  11
BRANCH   9  25
HETATM   25  C   UNL     1       7.493  23.146  53.973  1.00  0.00    -0.007 A 
HETATM   26  C   UNL     1       7.805  22.188  52.990  1.00  0.00     0.014 A 
HETATM   27  C   UNL     1       8.093  20.861  53.324  1.00  0.00     0.001 A 
HETATM   28  C   UNL     1       8.072  20.458  54.655  1.00  0.00     0.000 A 
HETATM   29  C   UNL     1       7.762  21.380  55.649  1.00  0.00     0.001 A 
HETATM   30  C   UNL     1       7.474  22.707  55.312  1.00  0.00     0.014 A 
ENDBRANCH   9  25
TORSDOF 5
ENDMDL
MODEL 3
REMARK VINA RESULT:     -10.0      0.341      2.377
REMARK  5 active torsions:
REMARK  status: ('A' for Active; 'I' for Inactive)
REMARK    1  A    between atoms: O_2  and  C_3 
REMARK    2  A    between atoms: C_5  and  O_6 
REMARK    3  A    between atoms: C_9  and  N_10 
REMARK       I    between atoms: N_10  and  C_11 
REMARK    4  A    between atoms: C_11  and  C_12 
REMARK    5  A    between atoms: C_20  and  C_21 
ROOT
HETATM    1  C   UNL     1       6.219  26.050  53.746  1.00  0.00     0.047 A 
HETATM    2  C   UNL     1       6.751  26.754  54.854  1.00  0.00     0.008 A 
HETATM    3  C   UNL     1       7.470  25.977  55.782  1.00  0.00     0.068 A 
HETATM    4  C   UNL     1       7.969  26.582  56.927  1.00  0.00     0.032 A 
HETATM    5  C   UNL     1       7.812  27.947  57.174  1.00  0.00     0.002 A 
HETATM    6  C   UNL     1       7.160  28.739  56.243  1.00  0.00     0.001 A 
HETATM    7  C   UNL     1       6.645  28.153  55.087  1.00  0.00     0.015 A 
HETATM    8  N   UNL     1       7.716  24.669  55.609  1.00  0.00    -0.248 NA
HETATM    9  C   UNL     1       7.286  24.037  54.490  1.00  0.00     0.068 A 
HETATM   10  C   UNL     1       6.509  24.695  53.556  1.00  0.00     0.050 A 
ENDROOT
BRANCH   1  11
HETATM   11  C   UNL     1       5.340  26.664  52.712  1.00  0.00     0.257 C 
HETATM   12  N   UNL     1       5.935  26.880  51.481  1.00  0.00    -0.323 N 
HETATM   13  H   UNL     1       6.901  26.595  51.379  1.00  0.00     0.169 HD
HETATM   14  O   UNL     1       4.192  26.949  53.031  1.00  0.00    -0.267 OA
BRANCH  12  15
HETATM   15  C   UNL     1       5.317  27.378  50.315  1.00  0.00     0.040 A 
HETATM   16  C   UNL     1       5.076  28.736  50.077  1.00  0.00     0.066 A 
HETATM   17  C   UNL     1       4.459  29.151  48.891  1.00  0.00     0.073 A 
HETATM   18  C   UNL     1       4.021  28.200  47.969  1.00  0.00     0.073 A 
HETATM   19  C   UNL     1       4.236  26.850  48.220  1.00  0.00     0.073 A 
HETATM   20  C   UNL     1       4.923  26.437  49.358  1.00  0.00     0.066 A 
BRANCH  17  21
HETATM   21  O   UNL     1       4.210  30.451  48.536  1.00  0.00    -0.356 OA
HETATM   22  C   UNL     1       5.241  31.388  48.835  1.00  0.00     0.210 C 
ENDBRANCH  17  21
BRANCH  19  23
HETATM   23  O   UNL     1       3.816  25.913  47.315  1.00  0.00    -0.356 OA
HETATM   24  C   UNL     1       3.001  24.941  47.974  1.00  0.00     0.210 C 
ENDBRANCH  19  23
ENDBRANCH  12  15
ENDBRANCH   1  11
BRANCH   9  25
HETATM   25  C   UNL     1       7.714  22.627  54.345  1.00  0.00    -0.007 A 
HETATM   26  C   UNL     1       8.003  21.840  55.475  1.00  0.00     0.014 A 
HETATM   27  C   UNL     1       8.431  20.515  55.355  1.00  0.00     0.001 A 
HETATM   28  C   UNL     1       8.583  19.943  54.096  1.00  0.00     0.000 A 
HETATM   29  C   UNL     1       8.309  20.697  52.960  1.00  0.00     0.001 A 
HETATM   30  C   UNL     1       7.882  22.024  53.083  1.00  0.00     0.014 A 
ENDBRANCH   9  25
TORSDOF 5
ENDMDL
MODEL 4
REMARK VINA RESULT:      -9.9      3.197      6.879
REMARK  5 active torsions:
REMARK  status: ('A' for Active; 'I' for Inactive)
REMARK    1  A    between atoms: O_2  and  C_3 
REMARK    2  A    between atoms: C_5  and  O_6 
REMARK    3  A    between atoms: C_9  and  N_10 
REMARK       I    between atoms: N_10  and  C_11 
REMARK    4  A    between atoms: C_11  and  C_12 
REMARK    5  A    between atoms: C_20  and  C_21 
ROOT
HETATM    1  C   UNL     1       6.105  26.123  54.915  1.00  0.00     0.047 A 
HETATM    2  C   UNL     1       5.653  26.454  53.613  1.00  0.00     0.008 A 
HETATM    3  C   UNL     1       5.971  25.525  52.604  1.00  0.00     0.068 A 
HETATM    4  C   UNL     1       5.620  25.806  51.292  1.00  0.00     0.032 A 
HETATM    5  C   UNL     1       4.927  26.966  50.941  1.00  0.00     0.002 A 
HETATM    6  C   UNL     1       4.552  27.862  51.930  1.00  0.00     0.001 A 
HETATM    7  C   UNL     1       4.899  27.604  53.255  1.00  0.00     0.015 A 
HETATM    8  N   UNL     1       6.591  24.359  52.848  1.00  0.00    -0.248 NA
HETATM    9  C   UNL     1       6.922  24.016  54.116  1.00  0.00     0.068 A 
HETATM   10  C   UNL     1       6.718  24.892  55.166  1.00  0.00     0.050 A 
ENDROOT
BRANCH   1  11
HETATM   11  C   UNL     1       5.966  27.019  56.097  1.00  0.00     0.257 C 
HETATM   12  N   UNL     1       6.828  28.101  56.124  1.00  0.00    -0.323 N 
HETATM   13  H   UNL     1       7.464  28.205  55.343  1.00  0.00     0.169 HD
HETATM   14  O   UNL     1       5.138  26.720  56.949  1.00  0.00    -0.267 OA
BRANCH  12  15
HETATM   15  C   UNL     1       6.862  29.136  57.082  1.00  0.00     0.040 A 
HETATM   16  C   UNL     1       5.953  30.200  57.115  1.00  0.00     0.066 A 
HETATM   17  C   UNL     1       6.053  31.189  58.102  1.00  0.00     0.073 A 
HETATM   18  C   UNL     1       7.104  31.150  59.017  1.00  0.00     0.073 A 
HETATM   19  C   UNL     1       8.023  30.108  58.964  1.00  0.00     0.073 A 
HETATM   20  C   UNL     1       7.881  29.078  58.039  1.00  0.00     0.066 A 
BRANCH  17  21
HETATM   21  O   UNL     1       5.198  32.249  58.254  1.00  0.00    -0.356 OA
HETATM   22  C   UNL     1       3.819  31.979  58.020  1.00  0.00     0.210 C 
ENDBRANCH  17  21
BRANCH  19  23
HETATM   23  O   UNL     1       9.053  30.060  59.865  1.00  0.00    -0.356 OA
HETATM   24  C   UNL     1       8.698  30.795  61.039  1.00  0.00     0.210 C 
ENDBRANCH  19  23
ENDBRANCH  12  15
ENDBRANCH   1  11
BRANCH   9  25
HETATM   25  C   UNL     1       7.492  22.661  54.287  1.00  0.00    -0.007 A 
HETATM   26  C   UNL     1       7.846  21.881  53.171  1.00  0.00     0.014 A 
HETATM   27  C   UNL     1       8.363  20.590  53.313  1.00  0.00     0.001 A 
HETATM   28  C   UNL     1       8.537  20.045  54.581  1.00  0.00     0.000 A 
HETATM   29  C   UNL     1       8.192  20.790  55.704  1.00  0.00     0.001 A 
HETATM   30  C   UNL     1       7.674  22.081  55.558  1.00  0.00     0.014 A 
ENDBRANCH   9  25
TORSDOF 5
ENDMDL
MODEL 5
REMARK VINA RESULT:      -9.0      1.963      5.201
REMARK  5 active torsions:
REMARK  status: ('A' for Active; 'I' for Inactive)
REMARK    1  A    between atoms: O_2  and  C_3 
REMARK    2  A    between atoms: C_5  and  O_6 
REMARK    3  A    between atoms: C_9  and  N_10 
REMARK       I    between atoms: N_10  and  C_11 
REMARK    4  A    between atoms: C_11  and  C_12 
REMARK    5  A    between atoms: C_20  and  C_21 
ROOT
HETATM    1  C   UNL     1       6.783  27.019  55.201  1.00  0.00     0.047 A 
HETATM    2  C   UNL     1       7.215  25.746  55.649  1.00  0.00     0.008 A 
HETATM    3  C   UNL     1       8.192  25.756  56.662  1.00  0.00     0.068 A 
HETATM    4  C   UNL     1       8.713  24.551  57.110  1.00  0.00     0.032 A 
HETATM    5  C   UNL     1       8.272  23.322  56.615  1.00  0.00     0.002 A 
HETATM    6  C   UNL     1       7.267  23.291  55.662  1.00  0.00     0.001 A 
HETATM    7  C   UNL     1       6.733  24.490  55.192  1.00  0.00     0.015 A 
HETATM    8  N   UNL     1       8.644  26.883  57.235  1.00  0.00    -0.248 NA
HETATM    9  C   UNL     1       8.142  28.085  56.864  1.00  0.00     0.068 A 
HETATM   10  C   UNL     1       7.232  28.186  55.828  1.00  0.00     0.050 A 
ENDROOT
BRANCH   1  11
HETATM   11  C   UNL     1       5.839  27.228  54.068  1.00  0.00     0.257 C 
HETATM   12  N   UNL     1       6.404  27.164  52.806  1.00  0.00    -0.323 N 
HETATM   13  H   UNL     1       7.396  26.968  52.754  1.00  0.00     0.169 HD
HETATM   14  O   UNL     1       4.666  27.462  54.334  1.00  0.00    -0.267 OA
BRANCH  12  15
HETATM   15  C   UNL     1       5.733  27.253  51.569  1.00  0.00     0.040 A 
HETATM   16  C   UNL     1       5.150  26.161  50.916  1.00  0.00     0.066 A 
HETATM   17  C   UNL     1       4.498  26.333  49.688  1.00  0.00     0.073 A 
HETATM   18  C   UNL     1       4.487  27.587  49.080  1.00  0.00     0.073 A 
HETATM   19  C   UNL     1       5.091  28.665  49.717  1.00  0.00     0.073 A 
HETATM   20  C   UNL     1       5.668  28.518  50.976  1.00  0.00     0.066 A 
BRANCH  17  21
HETATM   21  O   UNL     1       3.860  25.347  48.982  1.00  0.00    -0.356 OA
HETATM   22  C   UNL     1       3.112  25.774  47.848  1.00  0.00     0.210 C 
ENDBRANCH  17  21
BRANCH  19  23
HETATM   23  O   UNL     1       5.077  29.901  49.129  1.00  0.00    -0.356 OA
HETATM   24  C   UNL     1       3.860  30.575  49.459  1.00  0.00     0.210 C 
ENDBRANCH  19  23
ENDBRANCH  12  15
ENDBRANCH   1  11
BRANCH   9  25
HETATM   25  C   UNL     1       8.621  29.249  57.641  1.00  0.00    -0.007 A 
HETATM   26  C   UNL     1       7.812  29.840  58.629  1.00  0.00     0.014 A 
HETATM   27  C   UNL     1       8.239  30.955  59.357  1.00  0.00     0.001 A 
HETATM   28  C   UNL     1       9.490  31.510  59.109  1.00  0.00     0.000 A 
HETATM   29  C   UNL     1      10.311  30.952  58.135  1.00  0.00     0.001 A 
HETATM   30  C   UNL     1       9.881  29.836  57.408  1.00  0.00     0.014 A 
ENDBRANCH   9  25
TORSDOF 5
ENDMDL
MODEL 6
REMARK VINA RESULT:      -8.8      2.163      5.779
REMARK  5 active torsions:
REMARK  status: ('A' for Active; 'I' for Inactive)
REMARK    1  A    between atoms: O_2  and  C_3 
REMARK    2  A    between atoms: C_5  and  O_6 
REMARK    3  A    between atoms: C_9  and  N_10 
REMARK       I    between atoms: N_10  and  C_11 
REMARK    4  A    between atoms: C_11  and  C_12 
REMARK    5  A    between atoms: C_20  and  C_21 
ROOT
HETATM    1  C   UNL     1       6.676  27.504  55.380  1.00  0.00     0.047 A 
HETATM    2  C   UNL     1       7.077  26.220  55.826  1.00  0.00     0.008 A 
HETATM    3  C   UNL     1       8.033  26.205  56.860  1.00  0.00     0.068 A 
HETATM    4  C   UNL     1       8.523  24.987  57.308  1.00  0.00     0.032 A 
HETATM    5  C   UNL     1       8.074  23.770  56.792  1.00  0.00     0.002 A 
HETATM    6  C   UNL     1       7.089  23.764  55.817  1.00  0.00     0.001 A 
HETATM    7  C   UNL     1       6.585  24.976  55.346  1.00  0.00     0.015 A 
HETATM    8  N   UNL     1       8.490  27.318  57.453  1.00  0.00    -0.248 NA
HETATM    9  C   UNL     1       8.015  28.532  57.082  1.00  0.00     0.068 A 
HETATM   10  C   UNL     1       7.130  28.657  56.028  1.00  0.00     0.050 A 
ENDROOT
BRANCH   1  11
HETATM   11  C   UNL     1       5.760  27.738  54.229  1.00  0.00     0.257 C 
HETATM   12  N   UNL     1       6.380  27.889  53.001  1.00  0.00    -0.323 N 
HETATM   13  H   UNL     1       7.390  27.815  52.980  1.00  0.00     0.169 HD
HETATM   14  O   UNL     1       4.559  27.805  54.457  1.00  0.00    -0.267 OA
BRANCH  12  15
HETATM   15  C   UNL     1       5.754  28.049  51.747  1.00  0.00     0.040 A 
HETATM   16  C   UNL     1       5.529  29.290  51.139  1.00  0.00     0.066 A 
HETATM   17  C   UNL     1       4.902  29.365  49.889  1.00  0.00     0.073 A 
HETATM   18  C   UNL     1       4.438  28.202  49.277  1.00  0.00     0.073 A 
HETATM   19  C   UNL     1       4.636  26.973  49.896  1.00  0.00     0.073 A 
HETATM   20  C   UNL     1       5.333  26.884  51.098  1.00  0.00     0.066 A 
BRANCH  17  21
HETATM   21  O   UNL     1       4.668  30.517  49.185  1.00  0.00    -0.356 OA
HETATM   22  C   UNL     1       3.659  30.443  48.183  1.00  0.00     0.210 C 
ENDBRANCH  17  21
BRANCH  19  23
HETATM   23  O   UNL     1       4.190  25.826  49.295  1.00  0.00    -0.356 OA
HETATM   24  C   UNL     1       3.364  26.160  48.177  1.00  0.00     0.210 C 
ENDBRANCH  19  23
ENDBRANCH  12  15
ENDBRANCH   1  11
BRANCH   9  25
HETATM   25  C   UNL     1       8.496  29.681  57.880  1.00  0.00    -0.007 A 
HETATM   26  C   UNL     1       7.652  30.320  58.807  1.00  0.00     0.014 A 
HETATM   27  C   UNL     1       8.082  31.422  59.553  1.00  0.00     0.001 A 
HETATM   28  C   UNL     1       9.372  31.915  59.385  1.00  0.00     0.000 A 
HETATM   29  C   UNL     1      10.228  31.309  58.473  1.00  0.00     0.001 A 
HETATM   30  C   UNL     1       9.795  30.206  57.728  1.00  0.00     0.014 A 
ENDBRANCH   9  25
TORSDOF 5
ENDMDL
MODEL 7
REMARK VINA RESULT:      -8.5      7.964     10.407
REMARK  5 active torsions:
REMARK  status: ('A' for Active; 'I' for Inactive)
REMARK    1  A    between atoms: O_2  and  C_3 
REMARK    2  A    between atoms: C_5  and  O_6 
REMARK    3  A    between atoms: C_9  and  N_10 
REMARK       I    between atoms: N_10  and  C_11 
REMARK    4  A    between atoms: C_11  and  C_12 
REMARK    5  A    between atoms: C_20  and  C_21 
ROOT
HETATM    1  C   UNL     1       6.039  32.343  60.246  1.00  0.00     0.047 A 
HETATM    2  C   UNL     1       6.595  32.611  61.522  1.00  0.00     0.008 A 
HETATM    3  C   UNL     1       7.873  32.068  61.756  1.00  0.00     0.068 A 
HETATM    4  C   UNL     1       8.458  32.232  63.003  1.00  0.00     0.032 A 
HETATM    5  C   UNL     1       7.837  32.952  64.026  1.00  0.00     0.002 A 
HETATM    6  C   UNL     1       6.608  33.546  63.793  1.00  0.00     0.001 A 
HETATM    7  C   UNL     1       5.997  33.389  62.550  1.00  0.00     0.015 A 
HETATM    8  N   UNL     1       8.571  31.404  60.821  1.00  0.00    -0.248 NA
HETATM    9  C   UNL     1       8.063  31.248  59.575  1.00  0.00     0.068 A 
HETATM   10  C   UNL     1       6.787  31.681  59.267  1.00  0.00     0.050 A 
ENDROOT
BRANCH   1  11
HETATM   11  C   UNL     1       4.661  32.734  59.839  1.00  0.00     0.257 C 
HETATM   12  N   UNL     1       4.536  34.012  59.322  1.00  0.00    -0.323 N 
HETATM   13  H   UNL     1       5.381  34.566  59.250  1.00  0.00     0.169 HD
HETATM   14  O   UNL     1       3.760  31.923  60.013  1.00  0.00    -0.267 OA
BRANCH  12  15
HETATM   15  C   UNL     1       3.369  34.607  58.799  1.00  0.00     0.040 A 
HETATM   16  C   UNL     1       2.181  34.766  59.522  1.00  0.00     0.066 A 
HETATM   17  C   UNL     1       1.065  35.369  58.931  1.00  0.00     0.073 A 
HETATM   18  C   UNL     1       1.114  35.754  57.592  1.00  0.00     0.073 A 
HETATM   19  C   UNL     1       2.285  35.569  56.866  1.00  0.00     0.073 A 
HETATM   20  C   UNL     1       3.424  35.046  57.472  1.00  0.00     0.066 A 
BRANCH  17  21
HETATM   21  O   UNL     1      -0.131  35.613  59.554  1.00  0.00    -0.356 OA
HETATM   22  C   UNL     1      -0.502  34.693  60.577  1.00  0.00     0.210 C 
ENDBRANCH  17  21
BRANCH  19  23
HETATM   23  O   UNL     1       2.342  35.952  55.553  1.00  0.00    -0.356 OA
HETATM   24  C   UNL     1       2.162  37.366  55.458  1.00  0.00     0.210 C 
ENDBRANCH  19  23
ENDBRANCH  12  15
ENDBRANCH   1  11
BRANCH   9  25
HETATM   25  C   UNL     1       8.963  30.606  58.591  1.00  0.00    -0.007 A 
HETATM   26  C   UNL     1       8.594  29.409  57.948  1.00  0.00     0.014 A 
HETATM   27  C   UNL     1       9.442  28.777  57.034  1.00  0.00     0.001 A 
HETATM   28  C   UNL     1      10.686  29.327  56.742  1.00  0.00     0.000 A 
HETATM   29  C   UNL     1      11.081  30.506  57.365  1.00  0.00     0.001 A 
HETATM   30  C   UNL     1      10.230  31.137  58.279  1.00  0.00     0.014 A 
ENDBRANCH   9  25
TORSDOF 5
ENDMDL
MODEL 8
REMARK VINA RESULT:      -8.4      2.171      8.814
REMARK  5 active torsions:
REMARK  status: ('A' for Active; 'I' for Inactive)
REMARK    1  A    between atoms: O_2  and  C_3 
REMARK    2  A    between atoms: C_5  and  O_6 
REMARK    3  A    between atoms: C_9  and  N_10 
REMARK       I    between atoms: N_10  and  C_11 
REMARK    4  A    between atoms: C_11  and  C_12 
REMARK    5  A    between atoms: C_20  and  C_21 
ROOT
HETATM    1  C   UNL     1       4.858  27.264  50.291  1.00  0.00     0.047 A 
HETATM    2  C   UNL     1       4.168  26.662  49.209  1.00  0.00     0.008 A 
HETATM    3  C   UNL     1       3.780  27.533  48.173  1.00  0.00     0.068 A 
HETATM    4  C   UNL     1       3.044  27.031  47.109  1.00  0.00     0.032 A 
HETATM    5  C   UNL     1       2.705  25.680  47.012  1.00  0.00     0.002 A 
HETATM    6  C   UNL     1       3.132  24.798  47.992  1.00  0.00     0.001 A 
HETATM    7  C   UNL     1       3.867  25.279  49.074  1.00  0.00     0.015 A 
HETATM    8  N   UNL     1       4.100  28.836  48.152  1.00  0.00    -0.248 NA
HETATM    9  C   UNL     1       4.850  29.370  49.146  1.00  0.00     0.068 A 
HETATM   10  C   UNL     1       5.218  28.614  50.243  1.00  0.00     0.050 A 
ENDROOT
BRANCH   1  11
HETATM   11  C   UNL     1       5.259  26.541  51.530  1.00  0.00     0.257 C 
HETATM   12  N   UNL     1       6.445  25.834  51.446  1.00  0.00    -0.323 N 
HETATM   13  H   UNL     1       6.947  25.875  50.567  1.00  0.00     0.169 HD
HETATM   14  O   UNL     1       4.510  26.604  52.498  1.00  0.00    -0.267 OA
BRANCH  12  15
HETATM   15  C   UNL     1       7.087  25.125  52.483  1.00  0.00     0.040 A 
HETATM   16  C   UNL     1       7.600  23.830  52.343  1.00  0.00     0.066 A 
HETATM   17  C   UNL     1       8.227  23.195  53.421  1.00  0.00     0.073 A 
HETATM   18  C   UNL     1       8.282  23.829  54.662  1.00  0.00     0.073 A 
HETATM   19  C   UNL     1       7.747  25.103  54.806  1.00  0.00     0.073 A 
HETATM   20  C   UNL     1       7.197  25.774  53.717  1.00  0.00     0.066 A 
BRANCH  17  21
HETATM   21  O   UNL     1       8.799  21.950  53.387  1.00  0.00    -0.356 OA
HETATM   22  C   UNL     1       7.946  20.881  52.989  1.00  0.00     0.210 C 
ENDBRANCH  17  21
BRANCH  19  23
HETATM   23  O   UNL     1       7.805  25.735  56.020  1.00  0.00    -0.356 OA
HETATM   24  C   UNL     1       7.312  27.070  55.890  1.00  0.00     0.210 C 
ENDBRANCH  19  23
ENDBRANCH  12  15
ENDBRANCH   1  11
BRANCH   9  25
HETATM   25  C   UNL     1       5.245  30.784  48.963  1.00  0.00    -0.007 A 
HETATM   26  C   UNL     1       5.062  31.431  47.727  1.00  0.00     0.014 A 
HETATM   27  C   UNL     1       5.452  32.760  47.530  1.00  0.00     0.001 A 
HETATM   28  C   UNL     1       6.039  33.474  48.569  1.00  0.00     0.000 A 
HETATM   29  C   UNL     1       6.238  32.861  49.801  1.00  0.00     0.001 A 
HETATM   30  C   UNL     1       5.848  31.531  49.995  1.00  0.00     0.014 A 
ENDBRANCH   9  25
TORSDOF 5
ENDMDL
MODEL 9
REMARK VINA RESULT:      -8.4      7.929     10.273
REMARK  5 active torsions:
REMARK  status: ('A' for Active; 'I' for Inactive)
REMARK    1  A    between atoms: O_2  and  C_3 
REMARK    2  A    between atoms: C_5  and  O_6 
REMARK    3  A    between atoms: C_9  and  N_10 
REMARK       I    between atoms: N_10  and  C_11 
REMARK    4  A    between atoms: C_11  and  C_12 
REMARK    5  A    between atoms: C_20  and  C_21 
ROOT
HETATM    1  C   UNL     1       5.987  32.383  60.167  1.00  0.00     0.047 A 
HETATM    2  C   UNL     1       6.519  32.655  61.452  1.00  0.00     0.008 A 
HETATM    3  C   UNL     1       7.789  32.106  61.714  1.00  0.00     0.068 A 
HETATM    4  C   UNL     1       8.351  32.274  62.971  1.00  0.00     0.032 A 
HETATM    5  C   UNL     1       7.714  33.003  63.977  1.00  0.00     0.002 A 
HETATM    6  C   UNL     1       6.492  33.602  63.717  1.00  0.00     0.001 A 
HETATM    7  C   UNL     1       5.905  33.442  62.463  1.00  0.00     0.015 A 
HETATM    8  N   UNL     1       8.501  31.432  60.797  1.00  0.00    -0.248 NA
HETATM    9  C   UNL     1       8.017  31.272  59.541  1.00  0.00     0.068 A 
HETATM   10  C   UNL     1       6.749  31.711  59.207  1.00  0.00     0.050 A 
ENDROOT
BRANCH   1  11
HETATM   11  C   UNL     1       4.619  32.779  59.731  1.00  0.00     0.257 C 
HETATM   12  N   UNL     1       4.545  33.959  59.011  1.00  0.00    -0.323 N 
HETATM   13  H   UNL     1       5.415  34.444  58.828  1.00  0.00     0.169 HD
HETATM   14  O   UNL     1       3.682  32.061  60.058  1.00  0.00    -0.267 OA
BRANCH  12  15
HETATM   15  C   UNL     1       3.394  34.524  58.421  1.00  0.00     0.040 A 
HETATM   16  C   UNL     1       3.273  34.801  57.055  1.00  0.00     0.066 A 
HETATM   17  C   UNL     1       2.096  35.361  56.545  1.00  0.00     0.073 A 
HETATM   18  C   UNL     1       1.062  35.707  57.414  1.00  0.00     0.073 A 
HETATM   19  C   UNL     1       1.195  35.458  58.775  1.00  0.00     0.073 A 
HETATM   20  C   UNL     1       2.330  34.825  59.276  1.00  0.00     0.066 A 
BRANCH  17  21
HETATM   21  O   UNL     1       1.852  35.636  55.225  1.00  0.00    -0.356 OA
HETATM   22  C   UNL     1       0.484  35.797  54.862  1.00  0.00     0.210 C 
ENDBRANCH  17  21
BRANCH  19  23
HETATM   23  O   UNL     1       0.180  35.788  59.632  1.00  0.00    -0.356 OA
HETATM   24  C   UNL     1       0.005  34.744  60.593  1.00  0.00     0.210 C 
ENDBRANCH  19  23
ENDBRANCH  12  15
ENDBRANCH   1  11
BRANCH   9  25
HETATM   25  C   UNL     1       8.932  30.620  58.579  1.00  0.00    -0.007 A 
HETATM   26  C   UNL     1       8.573  29.417  57.943  1.00  0.00     0.014 A 
HETATM   27  C   UNL     1       9.435  28.774  57.049  1.00  0.00     0.001 A 
HETATM   28  C   UNL     1      10.684  29.321  56.771  1.00  0.00     0.000 A 
HETATM   29  C   UNL     1      11.069  30.507  57.388  1.00  0.00     0.001 A 
HETATM   30  C   UNL     1      10.204  31.147  58.282  1.00  0.00     0.014 A 
ENDBRANCH   9  25
TORSDOF 5
ENDMDL
MODEL 10
REMARK VINA RESULT:      -8.4      2.749      7.935
REMARK  5 active torsions:
REMARK  status: ('A' for Active; 'I' for Inactive)
REMARK    1  A    between atoms: O_2  and  C_3 
REMARK    2  A    between atoms: C_5  and  O_6 
REMARK    3  A    between atoms: C_9  and  N_10 
REMARK       I    between atoms: N_10  and  C_11 
REMARK    4  A    between atoms: C_11  and  C_12 
REMARK    5  A    between atoms: C_20  and  C_21 
ROOT
HETATM    1  C   UNL     1       5.397  27.544  52.505  1.00  0.00     0.047 A 
HETATM    2  C   UNL     1       4.819  28.707  53.072  1.00  0.00     0.008 A 
HETATM    3  C   UNL     1       3.923  29.408  52.242  1.00  0.00     0.068 A 
HETATM    4  C   UNL     1       3.364  30.592  52.701  1.00  0.00     0.032 A 
HETATM    5  C   UNL     1       3.632  31.096  53.975  1.00  0.00     0.002 A 
HETATM    6  C   UNL     1       4.464  30.387  54.828  1.00  0.00     0.001 A 
HETATM    7  C   UNL     1       5.043  29.198  54.387  1.00  0.00     0.015 A 
HETATM    8  N   UNL     1       3.564  28.980  51.022  1.00  0.00    -0.248 NA
HETATM    9  C   UNL     1       4.049  27.810  50.540  1.00  0.00     0.068 A 
HETATM   10  C   UNL     1       4.991  27.086  51.248  1.00  0.00     0.050 A 
ENDROOT
BRANCH   1  11
HETATM   11  C   UNL     1       6.446  26.725  53.173  1.00  0.00     0.257 C 
HETATM   12  N   UNL     1       6.060  25.444  53.529  1.00  0.00    -0.323 N 
HETATM   13  H   UNL     1       5.114  25.165  53.298  1.00  0.00     0.169 HD
HETATM   14  O   UNL     1       7.537  27.244  53.376  1.00  0.00    -0.267 OA
BRANCH  12  15
HETATM   15  C   UNL     1       6.869  24.442  54.105  1.00  0.00     0.040 A 
HETATM   16  C   UNL     1       7.341  24.481  55.422  1.00  0.00     0.066 A 
HETATM   17  C   UNL     1       8.139  23.444  55.921  1.00  0.00     0.073 A 
HETATM   18  C   UNL     1       8.520  22.399  55.082  1.00  0.00     0.073 A 
HETATM   19  C   UNL     1       8.073  22.376  53.766  1.00  0.00     0.073 A 
HETATM   20  C   UNL     1       7.213  23.361  53.288  1.00  0.00     0.066 A 
BRANCH  17  21
HETATM   21  O   UNL     1       8.622  23.358  57.201  1.00  0.00    -0.356 OA
HETATM   22  C   UNL     1       8.900  24.596  57.849  1.00  0.00     0.210 C 
ENDBRANCH  17  21
BRANCH  19  23
HETATM   23  O   UNL     1       8.438  21.348  52.939  1.00  0.00    -0.356 OA
HETATM   24  C   UNL     1       8.648  20.163  53.710  1.00  0.00     0.210 C 
ENDBRANCH  19  23
ENDBRANCH  12  15
ENDBRANCH   1  11
BRANCH   9  25
HETATM   25  C   UNL     1       3.498  27.373  49.239  1.00  0.00    -0.007 A 
HETATM   26  C   UNL     1       2.580  28.177  48.537  1.00  0.00     0.014 A 
HETATM   27  C   UNL     1       2.030  27.769  47.318  1.00  0.00     0.001 A 
HETATM   28  C   UNL     1       2.385  26.540  46.771  1.00  0.00     0.000 A 
HETATM   29  C   UNL     1       3.286  25.721  47.443  1.00  0.00     0.001 A 
HETATM   30  C   UNL     1       3.834  26.132  48.663  1.00  0.00     0.014 A 
ENDBRANCH   9  25
TORSDOF 5
ENDMDL
