MODEL 1
REMARK VINA RESULT:      -8.1      0.000      0.000
REMARK  3 active torsions:
REMARK  status: ('A' for Active; 'I' for Inactive)
REMARK    1  A    between atoms: C_9  and  C_10 
REMARK    2  A    between atoms: C_16  and  C_17 
REMARK       I    between atoms: C_17  and  N_18 
REMARK    3  A    between atoms: N_18  and  C_19 
ROOT
HETATM    1  C   UNL     1      10.790  29.384  56.576  1.00  0.00     0.070 C 
HETATM    2  C   UNL     1       9.642  29.936  57.385  1.00  0.00     0.037 C 
HETATM    3  N   UNL     1       9.891  31.142  58.033  1.00  0.00    -0.192 N 
HETATM    4  C   UNL     1       9.085  31.634  58.993  1.00  0.00     0.725 A 
HETATM    5  N   UNL     1       7.878  31.034  59.229  1.00  0.00    -0.082 N 
HETATM    6  N   UNL     1       7.276  31.559  60.322  1.00  0.00    -0.149 NA
HETATM    7  C   UNL     1       8.144  32.527  60.638  1.00  0.00     0.275 A 
HETATM    8  N   UNL     1       9.265  32.606  59.851  1.00  0.00    -0.054 NA
HETATM    9  C   UNL     1       7.372  29.885  58.478  1.00  0.00     0.221 C 
HETATM   10  C   UNL     1       8.451  29.312  57.566  1.00  0.00     0.064 C 
HETATM   11  H   UNL     1      10.821  31.543  57.941  1.00  0.00     0.184 HD
ENDROOT
BRANCH  10  12
HETATM   12  C   UNL     1       8.105  27.980  57.008  1.00  0.00     0.256 C 
HETATM   13  N   UNL     1       7.416  28.028  55.818  1.00  0.00    -0.322 N 
HETATM   14  H   UNL     1       7.118  28.941  55.497  1.00  0.00     0.169 HD
HETATM   15  O   UNL     1       8.424  26.978  57.636  1.00  0.00    -0.267 OA
BRANCH  13  16
HETATM   16  C   UNL     1       7.122  26.932  54.980  1.00  0.00     0.052 A 
HETATM   17  C   UNL     1       6.239  25.900  55.289  1.00  0.00     0.145 A 
HETATM   18  N   UNL     1       6.005  24.829  54.486  1.00  0.00    -0.271 NA
HETATM   19  C   UNL     1       6.684  24.778  53.323  1.00  0.00     0.116 A 
HETATM   20  C   UNL     1       7.581  25.752  52.920  1.00  0.00     0.021 A 
HETATM   21  C   UNL     1       7.797  26.845  53.760  1.00  0.00     0.032 A 
ENDBRANCH  13  16
ENDBRANCH  10  12
BRANCH   9  22
HETATM   22  C   UNL     1       6.122  30.318  57.717  1.00  0.00     0.064 A 
HETATM   23  N   UNL     1       5.135  29.400  57.511  1.00  0.00    -0.263 NA
HETATM   24  C   UNL     1       4.072  29.783  56.769  1.00  0.00     0.117 A 
HETATM   25  C   UNL     1       3.925  31.046  56.223  1.00  0.00     0.019 A 
HETATM   26  C   UNL     1       4.928  31.979  56.450  1.00  0.00     0.003 A 
HETATM   27  C   UNL     1       6.040  31.615  57.202  1.00  0.00     0.030 A 
ENDBRANCH   9  22
TORSDOF 3
ENDMDL
MODEL 2
REMARK VINA RESULT:      -8.0      3.151      5.230
REMARK  3 active torsions:
REMARK  status: ('A' for Active; 'I' for Inactive)
REMARK    1  A    between atoms: C_9  and  C_10 
REMARK    2  A    between atoms: C_16  and  C_17 
REMARK       I    between atoms: C_17  and  N_18 
REMARK    3  A    between atoms: N_18  and  C_19 
ROOT
HETATM    1  C   UNL     1       8.718  27.077  57.010  1.00  0.00     0.070 C 
HETATM    2  C   UNL     1       7.456  27.415  56.255  1.00  0.00     0.037 C 
HETATM    3  N   UNL     1       7.161  28.771  56.158  1.00  0.00    -0.192 N 
HETATM    4  C   UNL     1       5.960  29.230  55.756  1.00  0.00     0.725 A 
HETATM    5  N   UNL     1       5.041  28.352  55.251  1.00  0.00    -0.082 N 
HETATM    6  N   UNL     1       3.847  28.955  55.047  1.00  0.00    -0.149 NA
HETATM    7  C   UNL     1       4.153  30.217  55.375  1.00  0.00     0.275 A 
HETATM    8  N   UNL     1       5.434  30.427  55.815  1.00  0.00    -0.054 NA
HETATM    9  C   UNL     1       5.282  26.918  55.082  1.00  0.00     0.221 C 
HETATM   10  C   UNL     1       6.589  26.503  55.748  1.00  0.00     0.064 C 
HETATM   11  H   UNL     1       7.791  29.425  56.617  1.00  0.00     0.184 HD
ENDROOT
BRANCH  10  12
HETATM   12  C   UNL     1       6.745  25.032  55.876  1.00  0.00     0.256 C 
HETATM   13  N   UNL     1       7.424  24.443  54.835  1.00  0.00    -0.322 N 
HETATM   14  H   UNL     1       7.652  25.034  54.044  1.00  0.00     0.169 HD
HETATM   15  O   UNL     1       6.254  24.470  56.848  1.00  0.00    -0.267 OA
BRANCH  13  16
HETATM   16  C   UNL     1       7.872  23.106  54.781  1.00  0.00     0.052 A 
HETATM   17  C   UNL     1       8.626  22.472  55.766  1.00  0.00     0.145 A 
HETATM   18  N   UNL     1       9.087  21.198  55.672  1.00  0.00    -0.271 NA
HETATM   19  C   UNL     1       8.789  20.522  54.545  1.00  0.00     0.116 A 
HETATM   20  C   UNL     1       8.043  21.058  53.509  1.00  0.00     0.021 A 
HETATM   21  C   UNL     1       7.576  22.366  53.634  1.00  0.00     0.032 A 
ENDBRANCH  13  16
ENDBRANCH  10  12
BRANCH   9  22
HETATM   22  C   UNL     1       5.248  26.594  53.591  1.00  0.00     0.064 A 
HETATM   23  N   UNL     1       4.842  25.352  53.204  1.00  0.00    -0.263 NA
HETATM   24  C   UNL     1       4.893  25.062  51.884  1.00  0.00     0.117 A 
HETATM   25  C   UNL     1       5.318  25.951  50.914  1.00  0.00     0.019 A 
HETATM   26  C   UNL     1       5.716  27.219  51.315  1.00  0.00     0.003 A 
HETATM   27  C   UNL     1       5.684  27.548  52.667  1.00  0.00     0.030 A 
ENDBRANCH   9  22
TORSDOF 3
ENDMDL
MODEL 3
REMARK VINA RESULT:      -8.0      3.769      6.400
REMARK  3 active torsions:
REMARK  status: ('A' for Active; 'I' for Inactive)
REMARK    1  A    between atoms: C_9  and  C_10 
REMARK    2  A    between atoms: C_16  and  C_17 
REMARK       I    between atoms: C_17  and  N_18 
REMARK    3  A    between atoms: N_18  and  C_19 
ROOT
HETATM    1  C   UNL     1       3.413  29.646  53.920  1.00  0.00     0.070 C 
HETATM    2  C   UNL     1       4.680  28.925  54.308  1.00  0.00     0.037 C 
HETATM    3  N   UNL     1       4.937  28.858  55.673  1.00  0.00    -0.192 N 
HETATM    4  C   UNL     1       6.132  28.490  56.173  1.00  0.00     0.725 A 
HETATM    5  N   UNL     1       7.088  27.989  55.332  1.00  0.00    -0.082 N 
HETATM    6  N   UNL     1       8.268  27.822  55.973  1.00  0.00    -0.149 NA
HETATM    7  C   UNL     1       7.918  28.166  57.219  1.00  0.00     0.275 A 
HETATM    8  N   UNL     1       6.622  28.582  57.384  1.00  0.00    -0.054 NA
HETATM    9  C   UNL     1       6.892  27.789  53.895  1.00  0.00     0.221 C 
HETATM   10  C   UNL     1       5.583  28.420  53.431  1.00  0.00     0.064 C 
HETATM   11  H   UNL     1       4.280  29.316  56.299  1.00  0.00     0.184 HD
ENDROOT
BRANCH  10  12
HETATM   12  C   UNL     1       5.468  28.517  51.953  1.00  0.00     0.256 C 
HETATM   13  N   UNL     1       4.655  27.564  51.386  1.00  0.00    -0.322 N 
HETATM   14  H   UNL     1       4.308  26.835  51.998  1.00  0.00     0.169 HD
HETATM   15  O   UNL     1       6.101  29.389  51.369  1.00  0.00    -0.267 OA
BRANCH  13  16
HETATM   16  C   UNL     1       4.222  27.528  50.043  1.00  0.00     0.052 A 
HETATM   17  C   UNL     1       3.374  28.459  49.449  1.00  0.00     0.145 A 
HETATM   18  N   UNL     1       2.932  28.380  48.167  1.00  0.00    -0.271 NA
HETATM   19  C   UNL     1       3.349  27.323  47.441  1.00  0.00     0.116 A 
HETATM   20  C   UNL     1       4.194  26.345  47.935  1.00  0.00     0.021 A 
HETATM   21  C   UNL     1       4.639  26.454  49.253  1.00  0.00     0.032 A 
ENDBRANCH  13  16
ENDBRANCH  10  12
BRANCH   9  22
HETATM   22  C   UNL     1       6.966  26.294  53.600  1.00  0.00     0.064 A 
HETATM   23  N   UNL     1       6.238  25.441  54.376  1.00  0.00    -0.263 NA
HETATM   24  C   UNL     1       6.379  24.116  54.147  1.00  0.00     0.117 A 
HETATM   25  C   UNL     1       7.202  23.584  53.170  1.00  0.00     0.019 A 
HETATM   26  C   UNL     1       7.928  24.460  52.375  1.00  0.00     0.003 A 
HETATM   27  C   UNL     1       7.813  25.830  52.590  1.00  0.00     0.030 A 
ENDBRANCH   9  22
TORSDOF 3
ENDMDL
MODEL 4
REMARK VINA RESULT:      -7.8      2.428      6.510
REMARK  3 active torsions:
REMARK  status: ('A' for Active; 'I' for Inactive)
REMARK    1  A    between atoms: C_9  and  C_10 
REMARK    2  A    between atoms: C_16  and  C_17 
REMARK       I    between atoms: C_17  and  N_18 
REMARK    3  A    between atoms: N_18  and  C_19 
ROOT
HETATM    1  C   UNL     1       4.891  28.458  54.201  1.00  0.00     0.070 C 
HETATM    2  C   UNL     1       5.912  28.057  55.237  1.00  0.00     0.037 C 
HETATM    3  N   UNL     1       6.529  26.828  55.027  1.00  0.00    -0.192 N 
HETATM    4  C   UNL     1       7.258  26.206  55.974  1.00  0.00     0.725 A 
HETATM    5  N   UNL     1       7.564  26.871  57.130  1.00  0.00    -0.082 N 
HETATM    6  N   UNL     1       8.160  26.048  58.025  1.00  0.00    -0.149 NA
HETATM    7  C   UNL     1       8.254  24.927  57.300  1.00  0.00     0.275 A 
HETATM    8  N   UNL     1       7.712  24.981  56.041  1.00  0.00    -0.054 NA
HETATM    9  C   UNL     1       7.174  28.253  57.410  1.00  0.00     0.221 C 
HETATM   10  C   UNL     1       6.199  28.768  56.356  1.00  0.00     0.064 C 
HETATM   11  H   UNL     1       6.233  26.285  54.221  1.00  0.00     0.184 HD
ENDROOT
BRANCH  10  12
HETATM   12  C   UNL     1       5.537  30.041  56.739  1.00  0.00     0.256 C 
HETATM   13  N   UNL     1       5.178  30.115  58.064  1.00  0.00    -0.322 N 
HETATM   14  H   UNL     1       5.293  29.275  58.618  1.00  0.00     0.169 HD
HETATM   15  O   UNL     1       5.344  30.888  55.874  1.00  0.00    -0.267 OA
BRANCH  13  16
HETATM   16  C   UNL     1       4.705  31.261  58.738  1.00  0.00     0.052 A 
HETATM   17  C   UNL     1       3.370  31.521  59.039  1.00  0.00     0.145 A 
HETATM   18  N   UNL     1       2.931  32.653  59.647  1.00  0.00    -0.271 NA
HETATM   19  C   UNL     1       3.861  33.574  59.969  1.00  0.00     0.116 A 
HETATM   20  C   UNL     1       5.213  33.412  59.718  1.00  0.00     0.021 A 
HETATM   21  C   UNL     1       5.638  32.237  59.098  1.00  0.00     0.032 A 
ENDBRANCH  13  16
ENDBRANCH  10  12
BRANCH   9  22
HETATM   22  C   UNL     1       8.438  29.101  57.513  1.00  0.00     0.064 A 
HETATM   23  N   UNL     1       8.576  29.936  58.581  1.00  0.00    -0.263 NA
HETATM   24  C   UNL     1       9.668  30.734  58.612  1.00  0.00     0.117 A 
HETATM   25  C   UNL     1      10.648  30.740  57.636  1.00  0.00     0.019 A 
HETATM   26  C   UNL     1      10.507  29.876  56.559  1.00  0.00     0.003 A 
HETATM   27  C   UNL     1       9.391  29.047  56.491  1.00  0.00     0.030 A 
ENDBRANCH   9  22
TORSDOF 3
ENDMDL
MODEL 5
REMARK VINA RESULT:      -7.5      2.887      4.953
REMARK  3 active torsions:
REMARK  status: ('A' for Active; 'I' for Inactive)
REMARK    1  A    between atoms: C_9  and  C_10 
REMARK    2  A    between atoms: C_16  and  C_17 
REMARK       I    between atoms: C_17  and  N_18 
REMARK    3  A    between atoms: N_18  and  C_19 
ROOT
HETATM    1  C   UNL     1       3.838  30.129  56.549  1.00  0.00     0.070 C 
HETATM    2  C   UNL     1       5.223  29.530  56.559  1.00  0.00     0.037 C 
HETATM    3  N   UNL     1       5.988  29.807  57.687  1.00  0.00    -0.192 N 
HETATM    4  C   UNL     1       7.314  29.578  57.744  1.00  0.00     0.725 A 
HETATM    5  N   UNL     1       7.920  28.883  56.733  1.00  0.00    -0.082 N 
HETATM    6  N   UNL     1       9.266  28.884  56.875  1.00  0.00    -0.149 NA
HETATM    7  C   UNL     1       9.387  29.528  58.043  1.00  0.00     0.275 A 
HETATM    8  N   UNL     1       8.217  29.971  58.606  1.00  0.00    -0.054 NA
HETATM    9  C   UNL     1       7.211  28.330  55.579  1.00  0.00     0.221 C 
HETATM   10  C   UNL     1       5.768  28.822  55.538  1.00  0.00     0.064 C 
HETATM   11  H   UNL     1       5.578  30.406  58.399  1.00  0.00     0.184 HD
ENDROOT
BRANCH  10  12
HETATM   12  C   UNL     1       5.088  28.546  54.246  1.00  0.00     0.256 C 
HETATM   13  N   UNL     1       5.898  28.673  53.143  1.00  0.00    -0.322 N 
HETATM   14  H   UNL     1       6.829  29.042  53.298  1.00  0.00     0.169 HD
HETATM   15  O   UNL     1       3.896  28.262  54.258  1.00  0.00    -0.267 OA
BRANCH  13  16
HETATM   16  C   UNL     1       5.574  28.299  51.822  1.00  0.00     0.052 A 
HETATM   17  C   UNL     1       5.286  29.184  50.785  1.00  0.00     0.145 A 
HETATM   18  N   UNL     1       4.930  28.801  49.531  1.00  0.00    -0.271 NA
HETATM   19  C   UNL     1       4.852  27.476  49.296  1.00  0.00     0.116 A 
HETATM   20  C   UNL     1       5.120  26.515  50.255  1.00  0.00     0.021 A 
HETATM   21  C   UNL     1       5.490  26.935  51.532  1.00  0.00     0.032 A 
ENDBRANCH  13  16
ENDBRANCH  10  12
BRANCH   9  22
HETATM   22  C   UNL     1       7.316  26.808  55.630  1.00  0.00     0.064 A 
HETATM   23  N   UNL     1       7.576  26.135  54.474  1.00  0.00    -0.263 NA
HETATM   24  C   UNL     1       7.589  24.784  54.529  1.00  0.00     0.117 A 
HETATM   25  C   UNL     1       7.368  24.055  55.684  1.00  0.00     0.019 A 
HETATM   26  C   UNL     1       7.120  24.750  56.860  1.00  0.00     0.003 A 
HETATM   27  C   UNL     1       7.091  26.141  56.837  1.00  0.00     0.030 A 
ENDBRANCH   9  22
TORSDOF 3
ENDMDL
MODEL 6
REMARK VINA RESULT:      -7.5      4.685      7.316
REMARK  3 active torsions:
REMARK  status: ('A' for Active; 'I' for Inactive)
REMARK    1  A    between atoms: C_9  and  C_10 
REMARK    2  A    between atoms: C_16  and  C_17 
REMARK       I    between atoms: C_17  and  N_18 
REMARK    3  A    between atoms: N_18  and  C_19 
ROOT
HETATM    1  C   UNL     1       3.804  25.705  48.973  1.00  0.00     0.070 C 
HETATM    2  C   UNL     1       4.376  26.966  49.572  1.00  0.00     0.037 C 
HETATM    3  N   UNL     1       4.175  28.126  48.831  1.00  0.00    -0.192 N 
HETATM    4  C   UNL     1       4.834  29.274  49.080  1.00  0.00     0.725 A 
HETATM    5  N   UNL     1       5.600  29.378  50.209  1.00  0.00    -0.082 N 
HETATM    6  N   UNL     1       6.308  30.531  50.217  1.00  0.00    -0.149 NA
HETATM    7  C   UNL     1       5.848  31.107  49.100  1.00  0.00     0.275 A 
HETATM    8  N   UNL     1       4.947  30.371  48.374  1.00  0.00    -0.054 NA
HETATM    9  C   UNL     1       5.737  28.317  51.207  1.00  0.00     0.221 C 
HETATM   10  C   UNL     1       5.107  27.019  50.713  1.00  0.00     0.064 C 
HETATM   11  H   UNL     1       3.691  28.039  47.941  1.00  0.00     0.184 HD
ENDROOT
BRANCH  10  12
HETATM   12  C   UNL     1       5.470  25.837  51.536  1.00  0.00     0.256 C 
HETATM   13  N   UNL     1       6.769  25.841  51.988  1.00  0.00    -0.322 N 
HETATM   14  H   UNL     1       7.375  26.573  51.635  1.00  0.00     0.169 HD
HETATM   15  O   UNL     1       4.627  24.968  51.723  1.00  0.00    -0.267 OA
BRANCH  13  16
HETATM   16  C   UNL     1       7.328  24.950  52.929  1.00  0.00     0.052 A 
HETATM   17  C   UNL     1       7.543  25.236  54.275  1.00  0.00     0.145 A 
HETATM   18  N   UNL     1       8.126  24.379  55.153  1.00  0.00    -0.271 NA
HETATM   19  C   UNL     1       8.519  23.183  54.671  1.00  0.00     0.116 A 
HETATM   20  C   UNL     1       8.349  22.800  53.352  1.00  0.00     0.021 A 
HETATM   21  C   UNL     1       7.741  23.696  52.473  1.00  0.00     0.032 A 
ENDBRANCH  13  16
ENDBRANCH  10  12
BRANCH   9  22
HETATM   22  C   UNL     1       5.132  28.807  52.520  1.00  0.00     0.064 A 
HETATM   23  N   UNL     1       5.777  28.511  53.684  1.00  0.00    -0.263 NA
HETATM   24  C   UNL     1       5.184  28.889  54.839  1.00  0.00     0.117 A 
HETATM   25  C   UNL     1       3.977  29.562  54.903  1.00  0.00     0.019 A 
HETATM   26  C   UNL     1       3.334  29.871  53.713  1.00  0.00     0.003 A 
HETATM   27  C   UNL     1       3.913  29.490  52.506  1.00  0.00     0.030 A 
ENDBRANCH   9  22
TORSDOF 3
ENDMDL
MODEL 7
REMARK VINA RESULT:      -7.4      2.526      6.282
REMARK  3 active torsions:
REMARK  status: ('A' for Active; 'I' for Inactive)
REMARK    1  A    between atoms: C_9  and  C_10 
REMARK    2  A    between atoms: C_16  and  C_17 
REMARK       I    between atoms: C_17  and  N_18 
REMARK    3  A    between atoms: N_18  and  C_19 
ROOT
HETATM    1  C   UNL     1       4.764  27.816  54.042  1.00  0.00     0.070 C 
HETATM    2  C   UNL     1       5.810  27.561  55.100  1.00  0.00     0.037 C 
HETATM    3  N   UNL     1       6.534  26.383  54.954  1.00  0.00    -0.192 N 
HETATM    4  C   UNL     1       7.309  25.877  55.933  1.00  0.00     0.725 A 
HETATM    5  N   UNL     1       7.547  26.623  57.056  1.00  0.00    -0.082 N 
HETATM    6  N   UNL     1       8.206  25.903  57.992  1.00  0.00    -0.149 NA
HETATM    7  C   UNL     1       8.404  24.759  57.326  1.00  0.00     0.275 A 
HETATM    8  N   UNL     1       7.869  24.701  56.064  1.00  0.00    -0.054 NA
HETATM    9  C   UNL     1       7.034  27.978  57.263  1.00  0.00     0.221 C 
HETATM   10  C   UNL     1       6.025  28.351  56.182  1.00  0.00     0.064 C 
HETATM   11  H   UNL     1       6.294  25.775  54.176  1.00  0.00     0.184 HD
ENDROOT
BRANCH  10  12
HETATM   12  C   UNL     1       5.250  29.578  56.498  1.00  0.00     0.256 C 
HETATM   13  N   UNL     1       5.639  30.689  55.788  1.00  0.00    -0.322 N 
HETATM   14  H   UNL     1       6.470  30.599  55.214  1.00  0.00     0.169 HD
HETATM   15  O   UNL     1       4.372  29.517  57.350  1.00  0.00    -0.267 OA
BRANCH  13  16
HETATM   16  C   UNL     1       4.970  31.931  55.749  1.00  0.00     0.052 A 
HETATM   17  C   UNL     1       4.172  32.380  54.700  1.00  0.00     0.145 A 
HETATM   18  N   UNL     1       3.575  33.599  54.662  1.00  0.00    -0.271 NA
HETATM   19  C   UNL     1       3.783  34.414  55.716  1.00  0.00     0.116 A 
HETATM   20  C   UNL     1       4.555  34.064  56.810  1.00  0.00     0.021 A 
HETATM   21  C   UNL     1       5.152  32.803  56.826  1.00  0.00     0.032 A 
ENDBRANCH  13  16
ENDBRANCH  10  12
BRANCH   9  22
HETATM   22  C   UNL     1       8.217  28.938  57.326  1.00  0.00     0.064 A 
HETATM   23  N   UNL     1       9.082  28.976  56.272  1.00  0.00    -0.263 NA
HETATM   24  C   UNL     1      10.164  29.778  56.382  1.00  0.00     0.117 A 
HETATM   25  C   UNL     1      10.435  30.564  57.487  1.00  0.00     0.019 A 
HETATM   26  C   UNL     1       9.542  30.531  58.550  1.00  0.00     0.003 A 
HETATM   27  C   UNL     1       8.421  29.710  58.474  1.00  0.00     0.030 A 
ENDBRANCH   9  22
TORSDOF 3
ENDMDL
MODEL 8
REMARK VINA RESULT:      -7.2      3.610      6.221
REMARK  3 active torsions:
REMARK  status: ('A' for Active; 'I' for Inactive)
REMARK    1  A    between atoms: C_9  and  C_10 
REMARK    2  A    between atoms: C_16  and  C_17 
REMARK       I    between atoms: C_17  and  N_18 
REMARK    3  A    between atoms: N_18  and  C_19 
ROOT
HETATM    1  C   UNL     1       7.667  24.343  51.672  1.00  0.00     0.070 C 
HETATM    2  C   UNL     1       7.496  24.639  53.142  1.00  0.00     0.037 C 
HETATM    3  N   UNL     1       8.482  24.122  53.976  1.00  0.00    -0.192 N 
HETATM    4  C   UNL     1       8.350  24.066  55.315  1.00  0.00     0.725 A 
HETATM    5  N   UNL     1       7.292  24.696  55.912  1.00  0.00    -0.082 N 
HETATM    6  N   UNL     1       7.230  24.405  57.232  1.00  0.00    -0.149 NA
HETATM    7  C   UNL     1       8.335  23.661  57.370  1.00  0.00     0.275 A 
HETATM    8  N   UNL     1       9.046  23.428  56.221  1.00  0.00    -0.054 NA
HETATM    9  C   UNL     1       6.285  25.473  55.188  1.00  0.00     0.221 C 
HETATM   10  C   UNL     1       6.439  25.295  53.682  1.00  0.00     0.064 C 
HETATM   11  H   UNL     1       9.219  23.568  53.547  1.00  0.00     0.184 HD
ENDROOT
BRANCH  10  12
HETATM   12  C   UNL     1       5.279  25.806  52.907  1.00  0.00     0.256 C 
HETATM   13  N   UNL     1       5.529  26.968  52.216  1.00  0.00    -0.322 N 
HETATM   14  H   UNL     1       6.422  27.418  52.383  1.00  0.00     0.169 HD
HETATM   15  O   UNL     1       4.220  25.192  52.958  1.00  0.00    -0.267 OA
BRANCH  13  16
HETATM   16  C   UNL     1       4.681  27.572  51.263  1.00  0.00     0.052 A 
HETATM   17  C   UNL     1       3.802  28.621  51.523  1.00  0.00     0.145 A 
HETATM   18  N   UNL     1       2.959  29.156  50.602  1.00  0.00    -0.271 NA
HETATM   19  C   UNL     1       2.989  28.623  49.364  1.00  0.00     0.116 A 
HETATM   20  C   UNL     1       3.827  27.583  49.002  1.00  0.00     0.021 A 
HETATM   21  C   UNL     1       4.687  27.056  49.965  1.00  0.00     0.032 A 
ENDBRANCH  13  16
ENDBRANCH  10  12
BRANCH   9  22
HETATM   22  C   UNL     1       6.391  26.931  55.627  1.00  0.00     0.064 A 
HETATM   23  N   UNL     1       5.304  27.518  56.203  1.00  0.00    -0.263 NA
HETATM   24  C   UNL     1       5.395  28.831  56.513  1.00  0.00     0.117 A 
HETATM   25  C   UNL     1       6.524  29.600  56.293  1.00  0.00     0.019 A 
HETATM   26  C   UNL     1       7.631  28.990  55.719  1.00  0.00     0.003 A 
HETATM   27  C   UNL     1       7.568  27.642  55.380  1.00  0.00     0.030 A 
ENDBRANCH   9  22
TORSDOF 3
ENDMDL
MODEL 9
REMARK VINA RESULT:      -7.2      2.635      4.260
REMARK  3 active torsions:
REMARK  status: ('A' for Active; 'I' for Inactive)
REMARK    1  A    between atoms: C_9  and  C_10 
REMARK    2  A    between atoms: C_16  and  C_17 
REMARK       I    between atoms: C_17  and  N_18 
REMARK    3  A    between atoms: N_18  and  C_19 
ROOT
HETATM    1  C   UNL     1       8.383  27.450  57.197  1.00  0.00     0.070 C 
HETATM    2  C   UNL     1       7.158  28.131  56.636  1.00  0.00     0.037 C 
HETATM    3  N   UNL     1       7.040  29.486  56.926  1.00  0.00    -0.192 N 
HETATM    4  C   UNL     1       5.900  30.177  56.733  1.00  0.00     0.725 A 
HETATM    5  N   UNL     1       4.863  29.588  56.063  1.00  0.00    -0.082 N 
HETATM    6  N   UNL     1       3.753  30.361  56.099  1.00  0.00    -0.149 NA
HETATM    7  C   UNL     1       4.228  31.438  56.737  1.00  0.00     0.275 A 
HETATM    8  N   UNL     1       5.536  31.365  57.144  1.00  0.00    -0.054 NA
HETATM    9  C   UNL     1       4.912  28.238  55.499  1.00  0.00     0.221 C 
HETATM   10  C   UNL     1       6.169  27.504  55.951  1.00  0.00     0.064 C 
HETATM   11  H   UNL     1       7.759  29.908  57.508  1.00  0.00     0.184 HD
ENDROOT
BRANCH  10  12
HETATM   12  C   UNL     1       6.135  26.046  55.667  1.00  0.00     0.256 C 
HETATM   13  N   UNL     1       7.093  25.622  54.777  1.00  0.00    -0.322 N 
HETATM   14  H   UNL     1       7.647  26.339  54.323  1.00  0.00     0.169 HD
HETATM   15  O   UNL     1       5.273  25.361  56.206  1.00  0.00    -0.267 OA
BRANCH  13  16
HETATM   16  C   UNL     1       7.409  24.282  54.466  1.00  0.00     0.052 A 
HETATM   17  C   UNL     1       7.345  23.717  53.194  1.00  0.00     0.145 A 
HETATM   18  N   UNL     1       7.608  22.412  52.925  1.00  0.00    -0.271 NA
HETATM   19  C   UNL     1       7.947  21.629  53.968  1.00  0.00     0.116 A 
HETATM   20  C   UNL     1       8.043  22.092  55.269  1.00  0.00     0.021 A 
HETATM   21  C   UNL     1       7.774  23.438  55.517  1.00  0.00     0.032 A 
ENDBRANCH  13  16
ENDBRANCH  10  12
BRANCH   9  22
HETATM   22  C   UNL     1       4.803  28.344  53.980  1.00  0.00     0.064 A 
HETATM   23  N   UNL     1       5.950  28.435  53.250  1.00  0.00    -0.263 NA
HETATM   24  C   UNL     1       5.827  28.605  51.914  1.00  0.00     0.117 A 
HETATM   25  C   UNL     1       4.615  28.679  51.253  1.00  0.00     0.019 A 
HETATM   26  C   UNL     1       3.451  28.572  52.003  1.00  0.00     0.003 A 
HETATM   27  C   UNL     1       3.541  28.404  53.381  1.00  0.00     0.030 A 
ENDBRANCH   9  22
TORSDOF 3
ENDMDL
MODEL 10
REMARK VINA RESULT:      -7.2      3.119      7.162
REMARK  3 active torsions:
REMARK  status: ('A' for Active; 'I' for Inactive)
REMARK    1  A    between atoms: C_9  and  C_10 
REMARK    2  A    between atoms: C_16  and  C_17 
REMARK       I    between atoms: C_17  and  N_18 
REMARK    3  A    between atoms: N_18  and  C_19 
ROOT
HETATM    1  C   UNL     1       4.704  31.941  55.472  1.00  0.00     0.070 C 
HETATM    2  C   UNL     1       5.625  31.069  56.289  1.00  0.00     0.037 C 
HETATM    3  N   UNL     1       6.209  30.007  55.605  1.00  0.00    -0.192 N 
HETATM    4  C   UNL     1       6.837  28.993  56.230  1.00  0.00     0.725 A 
HETATM    5  N   UNL     1       7.077  29.078  57.575  1.00  0.00    -0.082 N 
HETATM    6  N   UNL     1       7.569  27.915  58.059  1.00  0.00    -0.149 NA
HETATM    7  C   UNL     1       7.677  27.206  56.929  1.00  0.00     0.275 A 
HETATM    8  N   UNL     1       7.238  27.828  55.788  1.00  0.00    -0.054 NA
HETATM    9  C   UNL     1       6.719  30.232  58.400  1.00  0.00     0.221 C 
HETATM   10  C   UNL     1       5.851  31.213  57.619  1.00  0.00     0.064 C 
HETATM   11  H   UNL     1       5.957  29.881  54.628  1.00  0.00     0.184 HD
ENDROOT
BRANCH  10  12
HETATM   12  C   UNL     1       5.210  32.243  58.476  1.00  0.00     0.256 C 
HETATM   13  N   UNL     1       4.416  31.732  59.476  1.00  0.00    -0.322 N 
HETATM   14  H   UNL     1       4.256  30.732  59.468  1.00  0.00     0.169 HD
HETATM   15  O   UNL     1       5.407  33.426  58.222  1.00  0.00    -0.267 OA
BRANCH  13  16
HETATM   16  C   UNL     1       3.838  32.461  60.537  1.00  0.00     0.052 A 
HETATM   17  C   UNL     1       4.103  32.256  61.889  1.00  0.00     0.145 A 
HETATM   18  N   UNL     1       3.499  32.938  62.897  1.00  0.00    -0.271 NA
HETATM   19  C   UNL     1       2.587  33.866  62.546  1.00  0.00     0.116 A 
HETATM   20  C   UNL     1       2.254  34.149  61.233  1.00  0.00     0.021 A 
HETATM   21  C   UNL     1       2.893  33.439  60.217  1.00  0.00     0.032 A 
ENDBRANCH  13  16
ENDBRANCH  10  12
BRANCH   9  22
HETATM   22  C   UNL     1       8.003  30.868  58.926  1.00  0.00     0.064 A 
HETATM   23  N   UNL     1       9.040  31.053  58.059  1.00  0.00    -0.263 NA
HETATM   24  C   UNL     1      10.193  31.547  58.563  1.00  0.00     0.117 A 
HETATM   25  C   UNL     1      10.375  31.881  59.893  1.00  0.00     0.019 A 
HETATM   26  C   UNL     1       9.310  31.702  60.766  1.00  0.00     0.003 A 
HETATM   27  C   UNL     1       8.110  31.189  60.282  1.00  0.00     0.030 A 
ENDBRANCH   9  22
TORSDOF 3
ENDMDL
