MODEL 1
REMARK VINA RESULT:      -8.7      0.000      0.000
REMARK  10 active torsions:
REMARK  status: ('A' for Active; 'I' for Inactive)
REMARK    1  A    between atoms: C_2  and  O_3 
REMARK    2  A    between atoms: O_3  and  C_4 
REMARK    3  A    between atoms: C_4  and  O_5 
REMARK    4  A    between atoms: C_4  and  C_8 
REMARK    5  A    between atoms: C_4  and  C_14 
REMARK    6  A    between atoms: O_5  and  C_6 
REMARK    7  A    between atoms: C_14  and  N_15 
REMARK       I    between atoms: N_15  and  C_16 
REMARK    8  A    between atoms: C_16  and  C_17 
REMARK    9  A    between atoms: C_19  and  N_20 
REMARK       I    between atoms: N_20  and  C_21 
REMARK   10  A    between atoms: C_21  and  C_22 
ROOT
HETATM    1  N   UNL     1       8.108  27.347  55.037  1.00  0.00    -0.351 N 
HETATM    2  C   UNL     1       7.596  28.559  55.442  1.00  0.00     0.251 C 
HETATM    3  O   UNL     1       6.503  28.985  55.097  1.00  0.00    -0.268 OA
HETATM    4  H   UNL     1       8.907  26.958  55.525  1.00  0.00     0.162 HD
ENDROOT
BRANCH   2   5
HETATM    5  C   UNL     1       8.460  29.341  56.368  1.00  0.00     0.034 A 
HETATM    6  C   UNL     1       7.922  29.923  57.525  1.00  0.00     0.046 A 
HETATM    7  C   UNL     1       8.725  30.673  58.384  1.00  0.00     0.035 A 
HETATM    8  C   UNL     1      10.085  30.814  58.082  1.00  0.00     0.029 A 
HETATM    9  C   UNL     1      10.633  30.209  56.947  1.00  0.00     0.003 A 
HETATM   10  C   UNL     1       9.821  29.468  56.089  1.00  0.00     0.017 A 
BRANCH   7  11
HETATM   11  N   UNL     1       8.241  31.313  59.543  1.00  0.00    -0.322 N 
HETATM   12  C   UNL     1       8.484  30.980  60.868  1.00  0.00     0.263 C 
HETATM   13  O   UNL     1       9.228  30.071  61.226  1.00  0.00    -0.267 OA
HETATM   14  H   UNL     1       7.631  32.110  59.402  1.00  0.00     0.169 HD
BRANCH  12  15
HETATM   15  C   UNL     1       7.780  31.803  61.851  1.00  0.00     0.072 A 
HETATM   16  S   UNL     1       6.181  32.375  61.607  1.00  0.00    -0.097 SA
HETATM   17  C   UNL     1       6.149  33.149  63.131  1.00  0.00     0.050 A 
HETATM   18  C   UNL     1       7.331  32.989  63.816  1.00  0.00     0.009 A 
HETATM   19  C   UNL     1       8.270  32.213  63.079  1.00  0.00     0.025 A 
ENDBRANCH  12  15
ENDBRANCH   7  11
ENDBRANCH   2   5
BRANCH   1  20
HETATM   20  C   UNL     1       7.407  26.506  54.072  1.00  0.00     0.198 C 
BRANCH  20  21
HETATM   21  C   UNL     1       6.692  25.232  54.647  1.00  0.00     0.227 C 
BRANCH  21  22
HETATM   22  O   UNL     1       5.341  25.085  54.165  1.00  0.00    -0.349 OA
BRANCH  22  23
HETATM   23  C   UNL     1       4.913  26.002  53.164  1.00  0.00     0.167 C 
HETATM   24  C   UNL     1       4.881  25.271  51.835  1.00  0.00     0.033 C 
ENDBRANCH  22  23
ENDBRANCH  21  22
BRANCH  21  25
HETATM   25  O   UNL     1       6.648  25.347  56.094  1.00  0.00    -0.349 OA
BRANCH  25  26
HETATM   26  C   UNL     1       5.347  25.238  56.661  1.00  0.00     0.167 C 
HETATM   27  C   UNL     1       4.906  26.627  57.085  1.00  0.00     0.033 C 
ENDBRANCH  25  26
ENDBRANCH  21  25
BRANCH  21  28
HETATM   28  C   UNL     1       7.532  23.949  54.417  1.00  0.00     0.097 A 
HETATM   29  N   UNL     1       8.462  23.591  55.348  1.00  0.00    -0.260 NA
HETATM   30  C   UNL     1       9.207  22.488  55.121  1.00  0.00     0.117 A 
HETATM   31  C   UNL     1       9.063  21.681  54.009  1.00  0.00     0.019 A 
HETATM   32  C   UNL     1       8.110  22.033  53.065  1.00  0.00     0.004 A 
HETATM   33  C   UNL     1       7.345  23.181  53.260  1.00  0.00     0.033 A 
ENDBRANCH  21  28
ENDBRANCH  20  21
ENDBRANCH   1  20
TORSDOF 10
ENDMDL
MODEL 2
REMARK VINA RESULT:      -8.6      2.174      3.325
REMARK  10 active torsions:
REMARK  status: ('A' for Active; 'I' for Inactive)
REMARK    1  A    between atoms: C_2  and  O_3 
REMARK    2  A    between atoms: O_3  and  C_4 
REMARK    3  A    between atoms: C_4  and  O_5 
REMARK    4  A    between atoms: C_4  and  C_8 
REMARK    5  A    between atoms: C_4  and  C_14 
REMARK    6  A    between atoms: O_5  and  C_6 
REMARK    7  A    between atoms: C_14  and  N_15 
REMARK       I    between atoms: N_15  and  C_16 
REMARK    8  A    between atoms: C_16  and  C_17 
REMARK    9  A    between atoms: C_19  and  N_20 
REMARK       I    between atoms: N_20  and  C_21 
REMARK   10  A    between atoms: C_21  and  C_22 
ROOT
HETATM    1  N   UNL     1       7.989  28.301  55.631  1.00  0.00    -0.351 N 
HETATM    2  C   UNL     1       8.404  28.104  56.928  1.00  0.00     0.251 C 
HETATM    3  O   UNL     1       8.359  27.023  57.499  1.00  0.00    -0.268 OA
HETATM    4  H   UNL     1       8.253  29.155  55.150  1.00  0.00     0.162 HD
ENDROOT
BRANCH   2   5
HETATM    5  C   UNL     1       8.946  29.306  57.617  1.00  0.00     0.034 A 
HETATM    6  C   UNL     1       8.308  29.825  58.754  1.00  0.00     0.046 A 
HETATM    7  C   UNL     1       8.802  30.964  59.390  1.00  0.00     0.035 A 
HETATM    8  C   UNL     1       9.962  31.565  58.887  1.00  0.00     0.029 A 
HETATM    9  C   UNL     1      10.620  31.034  57.774  1.00  0.00     0.003 A 
HETATM   10  C   UNL     1      10.114  29.900  57.139  1.00  0.00     0.017 A 
BRANCH   7  11
HETATM   11  N   UNL     1       8.191  31.556  60.513  1.00  0.00    -0.322 N 
HETATM   12  C   UNL     1       8.348  31.218  61.850  1.00  0.00     0.263 C 
HETATM   13  O   UNL     1       9.114  30.348  62.257  1.00  0.00    -0.267 OA
HETATM   14  H   UNL     1       7.548  32.318  60.332  1.00  0.00     0.169 HD
BRANCH  12  15
HETATM   15  C   UNL     1       7.520  31.983  62.782  1.00  0.00     0.072 A 
HETATM   16  S   UNL     1       5.805  31.964  62.731  1.00  0.00    -0.097 SA
HETATM   17  C   UNL     1       5.683  33.013  64.075  1.00  0.00     0.050 A 
HETATM   18  C   UNL     1       6.917  33.384  64.555  1.00  0.00     0.009 A 
HETATM   19  C   UNL     1       7.976  32.789  63.811  1.00  0.00     0.025 A 
ENDBRANCH  12  15
ENDBRANCH   7  11
ENDBRANCH   2   5
BRANCH   1  20
HETATM   20  C   UNL     1       7.366  27.233  54.855  1.00  0.00     0.198 C 
BRANCH  20  21
HETATM   21  C   UNL     1       5.860  27.441  54.466  1.00  0.00     0.227 C 
BRANCH  21  22
HETATM   22  O   UNL     1       5.327  28.692  54.948  1.00  0.00    -0.349 OA
BRANCH  22  23
HETATM   23  C   UNL     1       4.321  28.618  55.951  1.00  0.00     0.167 C 
HETATM   24  C   UNL     1       4.853  29.288  57.204  1.00  0.00     0.033 C 
ENDBRANCH  22  23
ENDBRANCH  21  22
BRANCH  21  25
HETATM   25  O   UNL     1       5.083  26.361  55.049  1.00  0.00    -0.349 OA
BRANCH  25  26
HETATM   26  C   UNL     1       5.843  25.417  55.796  1.00  0.00     0.167 C 
HETATM   27  C   UNL     1       5.177  25.249  57.149  1.00  0.00     0.033 C 
ENDBRANCH  25  26
ENDBRANCH  21  25
BRANCH  21  28
HETATM   28  C   UNL     1       5.631  27.263  52.942  1.00  0.00     0.097 A 
HETATM   29  N   UNL     1       5.636  28.365  52.140  1.00  0.00    -0.260 NA
HETATM   30  C   UNL     1       5.406  28.200  50.820  1.00  0.00     0.117 A 
HETATM   31  C   UNL     1       5.193  26.971  50.226  1.00  0.00     0.019 A 
HETATM   32  C   UNL     1       5.199  25.845  51.035  1.00  0.00     0.004 A 
HETATM   33  C   UNL     1       5.408  25.988  52.406  1.00  0.00     0.033 A 
ENDBRANCH  21  28
ENDBRANCH  20  21
ENDBRANCH   1  20
TORSDOF 10
ENDMDL
MODEL 3
REMARK VINA RESULT:      -8.4      2.210      4.210
REMARK  10 active torsions:
REMARK  status: ('A' for Active; 'I' for Inactive)
REMARK    1  A    between atoms: C_2  and  O_3 
REMARK    2  A    between atoms: O_3  and  C_4 
REMARK    3  A    between atoms: C_4  and  O_5 
REMARK    4  A    between atoms: C_4  and  C_8 
REMARK    5  A    between atoms: C_4  and  C_14 
REMARK    6  A    between atoms: O_5  and  C_6 
REMARK    7  A    between atoms: C_14  and  N_15 
REMARK       I    between atoms: N_15  and  C_16 
REMARK    8  A    between atoms: C_16  and  C_17 
REMARK    9  A    between atoms: C_19  and  N_20 
REMARK       I    between atoms: N_20  and  C_21 
REMARK   10  A    between atoms: C_21  and  C_22 
ROOT
HETATM    1  N   UNL     1       8.011  28.250  55.705  1.00  0.00    -0.351 N 
HETATM    2  C   UNL     1       8.446  28.085  57.001  1.00  0.00     0.251 C 
HETATM    3  O   UNL     1       8.443  27.011  57.586  1.00  0.00    -0.268 OA
HETATM    4  H   UNL     1       8.242  29.105  55.210  1.00  0.00     0.162 HD
ENDROOT
BRANCH   2   5
HETATM    5  C   UNL     1       8.955  29.314  57.667  1.00  0.00     0.034 A 
HETATM    6  C   UNL     1       8.315  29.825  58.805  1.00  0.00     0.046 A 
HETATM    7  C   UNL     1       8.777  30.988  59.420  1.00  0.00     0.035 A 
HETATM    8  C   UNL     1       9.909  31.623  58.894  1.00  0.00     0.029 A 
HETATM    9  C   UNL     1      10.570  31.100  57.779  1.00  0.00     0.003 A 
HETATM   10  C   UNL     1      10.095  29.942  57.165  1.00  0.00     0.017 A 
BRANCH   7  11
HETATM   11  N   UNL     1       8.161  31.574  60.545  1.00  0.00    -0.322 N 
HETATM   12  C   UNL     1       8.300  31.218  61.879  1.00  0.00     0.263 C 
HETATM   13  O   UNL     1       9.053  30.335  62.283  1.00  0.00    -0.267 OA
HETATM   14  H   UNL     1       7.528  32.345  60.366  1.00  0.00     0.169 HD
BRANCH  12  15
HETATM   15  C   UNL     1       7.471  31.980  62.811  1.00  0.00     0.072 A 
HETATM   16  S   UNL     1       5.756  31.967  62.753  1.00  0.00    -0.097 SA
HETATM   17  C   UNL     1       5.632  33.010  64.102  1.00  0.00     0.050 A 
HETATM   18  C   UNL     1       6.865  33.374  64.590  1.00  0.00     0.009 A 
HETATM   19  C   UNL     1       7.925  32.780  63.846  1.00  0.00     0.025 A 
ENDBRANCH  12  15
ENDBRANCH   7  11
ENDBRANCH   2   5
BRANCH   1  20
HETATM   20  C   UNL     1       7.416  27.151  54.951  1.00  0.00     0.198 C 
BRANCH  20  21
HETATM   21  C   UNL     1       5.880  27.263  54.651  1.00  0.00     0.227 C 
BRANCH  21  22
HETATM   22  O   UNL     1       5.147  26.083  55.041  1.00  0.00    -0.349 OA
BRANCH  22  23
HETATM   23  C   UNL     1       5.797  25.192  55.940  1.00  0.00     0.167 C 
HETATM   24  C   UNL     1       5.018  25.181  57.242  1.00  0.00     0.033 C 
ENDBRANCH  22  23
ENDBRANCH  21  22
BRANCH  21  25
HETATM   25  O   UNL     1       5.705  27.454  53.222  1.00  0.00    -0.349 OA
BRANCH  25  26
HETATM   26  C   UNL     1       5.000  26.408  52.563  1.00  0.00     0.167 C 
HETATM   27  C   UNL     1       5.745  26.078  51.283  1.00  0.00     0.033 C 
ENDBRANCH  25  26
ENDBRANCH  21  25
BRANCH  21  28
HETATM   28  C   UNL     1       5.268  28.551  55.261  1.00  0.00     0.097 A 
HETATM   29  N   UNL     1       5.160  28.654  56.617  1.00  0.00    -0.260 NA
HETATM   30  C   UNL     1       4.600  29.768  57.134  1.00  0.00     0.117 A 
HETATM   31  C   UNL     1       4.151  30.828  56.369  1.00  0.00     0.019 A 
HETATM   32  C   UNL     1       4.269  30.733  54.990  1.00  0.00     0.004 A 
HETATM   33  C   UNL     1       4.821  29.584  54.427  1.00  0.00     0.033 A 
ENDBRANCH  21  28
ENDBRANCH  20  21
ENDBRANCH   1  20
TORSDOF 10
ENDMDL
MODEL 4
REMARK VINA RESULT:      -8.2      3.118      5.693
REMARK  10 active torsions:
REMARK  status: ('A' for Active; 'I' for Inactive)
REMARK    1  A    between atoms: C_2  and  O_3 
REMARK    2  A    between atoms: O_3  and  C_4 
REMARK    3  A    between atoms: C_4  and  O_5 
REMARK    4  A    between atoms: C_4  and  C_8 
REMARK    5  A    between atoms: C_4  and  C_14 
REMARK    6  A    between atoms: O_5  and  C_6 
REMARK    7  A    between atoms: C_14  and  N_15 
REMARK       I    between atoms: N_15  and  C_16 
REMARK    8  A    between atoms: C_16  and  C_17 
REMARK    9  A    between atoms: C_19  and  N_20 
REMARK       I    between atoms: N_20  and  C_21 
REMARK   10  A    between atoms: C_21  and  C_22 
ROOT
HETATM    1  N   UNL     1       5.817  29.780  57.980  1.00  0.00    -0.351 N 
HETATM    2  C   UNL     1       5.445  30.908  57.284  1.00  0.00     0.251 C 
HETATM    3  O   UNL     1       5.434  30.979  56.063  1.00  0.00    -0.268 OA
HETATM    4  H   UNL     1       5.596  29.712  58.968  1.00  0.00     0.162 HD
ENDROOT
BRANCH   2   5
HETATM    5  C   UNL     1       5.024  32.065  58.118  1.00  0.00     0.034 A 
HETATM    6  C   UNL     1       5.488  32.202  59.435  1.00  0.00     0.046 A 
HETATM    7  C   UNL     1       5.080  33.275  60.226  1.00  0.00     0.035 A 
HETATM    8  C   UNL     1       4.217  34.229  59.673  1.00  0.00     0.029 A 
HETATM    9  C   UNL     1       3.777  34.115  58.351  1.00  0.00     0.003 A 
HETATM   10  C   UNL     1       4.183  33.034  57.570  1.00  0.00     0.017 A 
BRANCH   7  11
HETATM   11  N   UNL     1       5.480  33.453  61.566  1.00  0.00    -0.322 N 
HETATM   12  C   UNL     1       5.003  32.802  62.695  1.00  0.00     0.263 C 
HETATM   13  O   UNL     1       4.163  31.906  62.672  1.00  0.00    -0.267 OA
HETATM   14  H   UNL     1       6.198  34.147  61.737  1.00  0.00     0.169 HD
BRANCH  12  15
HETATM   15  C   UNL     1       5.577  33.259  63.960  1.00  0.00     0.072 A 
HETATM   16  S   UNL     1       4.616  33.804  65.272  1.00  0.00    -0.097 SA
HETATM   17  C   UNL     1       5.988  34.082  66.254  1.00  0.00     0.050 A 
HETATM   18  C   UNL     1       7.160  33.777  65.602  1.00  0.00     0.009 A 
HETATM   19  C   UNL     1       6.923  33.302  64.281  1.00  0.00     0.025 A 
ENDBRANCH  12  15
ENDBRANCH   7  11
ENDBRANCH   2   5
BRANCH   1  20
HETATM   20  C   UNL     1       6.324  28.593  57.299  1.00  0.00     0.198 C 
BRANCH  20  21
HETATM   21  C   UNL     1       7.883  28.416  57.274  1.00  0.00     0.227 C 
BRANCH  21  22
HETATM   22  O   UNL     1       8.408  28.285  55.937  1.00  0.00    -0.349 OA
BRANCH  22  23
HETATM   23  C   UNL     1       7.486  28.443  54.867  1.00  0.00     0.167 C 
HETATM   24  C   UNL     1       7.519  27.183  54.023  1.00  0.00     0.033 C 
ENDBRANCH  22  23
ENDBRANCH  21  22
BRANCH  21  25
HETATM   25  O   UNL     1       8.220  27.214  58.015  1.00  0.00    -0.349 OA
BRANCH  25  26
HETATM   26  C   UNL     1       7.457  26.065  57.664  1.00  0.00     0.167 C 
HETATM   27  C   UNL     1       8.423  24.924  57.407  1.00  0.00     0.033 C 
ENDBRANCH  25  26
ENDBRANCH  21  25
BRANCH  21  28
HETATM   28  C   UNL     1       8.600  29.538  58.070  1.00  0.00     0.097 A 
HETATM   29  N   UNL     1       8.282  29.724  59.383  1.00  0.00    -0.260 NA
HETATM   30  C   UNL     1       8.891  30.723  60.057  1.00  0.00     0.117 A 
HETATM   31  C   UNL     1       9.843  31.555  59.500  1.00  0.00     0.019 A 
HETATM   32  C   UNL     1      10.180  31.363  58.169  1.00  0.00     0.004 A 
HETATM   33  C   UNL     1       9.548  30.355  57.442  1.00  0.00     0.033 A 
ENDBRANCH  21  28
ENDBRANCH  20  21
ENDBRANCH   1  20
TORSDOF 10
ENDMDL
MODEL 5
REMARK VINA RESULT:      -8.2      1.354      2.711
REMARK  10 active torsions:
REMARK  status: ('A' for Active; 'I' for Inactive)
REMARK    1  A    between atoms: C_2  and  O_3 
REMARK    2  A    between atoms: O_3  and  C_4 
REMARK    3  A    between atoms: C_4  and  O_5 
REMARK    4  A    between atoms: C_4  and  C_8 
REMARK    5  A    between atoms: C_4  and  C_14 
REMARK    6  A    between atoms: O_5  and  C_6 
REMARK    7  A    between atoms: C_14  and  N_15 
REMARK       I    between atoms: N_15  and  C_16 
REMARK    8  A    between atoms: C_16  and  C_17 
REMARK    9  A    between atoms: C_19  and  N_20 
REMARK       I    between atoms: N_20  and  C_21 
REMARK   10  A    between atoms: C_21  and  C_22 
ROOT
HETATM    1  N   UNL     1       8.035  28.558  54.584  1.00  0.00    -0.351 N 
HETATM    2  C   UNL     1       7.392  29.136  55.656  1.00  0.00     0.251 C 
HETATM    3  O   UNL     1       6.175  29.178  55.776  1.00  0.00    -0.268 OA
HETATM    4  H   UNL     1       9.028  28.362  54.649  1.00  0.00     0.162 HD
ENDROOT
BRANCH   2   5
HETATM    5  C   UNL     1       8.281  29.707  56.703  1.00  0.00     0.034 A 
HETATM    6  C   UNL     1       7.741  30.244  57.882  1.00  0.00     0.046 A 
HETATM    7  C   UNL     1       8.570  30.798  58.857  1.00  0.00     0.035 A 
HETATM    8  C   UNL     1       9.955  30.787  58.649  1.00  0.00     0.029 A 
HETATM    9  C   UNL     1      10.500  30.224  57.491  1.00  0.00     0.003 A 
HETATM   10  C   UNL     1       9.663  29.680  56.517  1.00  0.00     0.017 A 
BRANCH   7  11
HETATM   11  N   UNL     1       8.091  31.384  60.046  1.00  0.00    -0.322 N 
HETATM   12  C   UNL     1       8.367  31.013  61.354  1.00  0.00     0.263 C 
HETATM   13  O   UNL     1       9.142  30.112  61.667  1.00  0.00    -0.267 OA
HETATM   14  H   UNL     1       7.458  32.169  59.943  1.00  0.00     0.169 HD
BRANCH  12  15
HETATM   15  C   UNL     1       7.659  31.782  62.377  1.00  0.00     0.072 A 
HETATM   16  S   UNL     1       5.948  31.858  62.462  1.00  0.00    -0.097 SA
HETATM   17  C   UNL     1       5.990  32.855  63.850  1.00  0.00     0.050 A 
HETATM   18  C   UNL     1       7.277  33.137  64.244  1.00  0.00     0.009 A 
HETATM   19  C   UNL     1       8.239  32.518  63.396  1.00  0.00     0.025 A 
ENDBRANCH  12  15
ENDBRANCH   7  11
ENDBRANCH   2   5
BRANCH   1  20
HETATM   20  C   UNL     1       7.295  28.024  53.446  1.00  0.00     0.198 C 
BRANCH  20  21
HETATM   21  C   UNL     1       7.026  26.478  53.453  1.00  0.00     0.227 C 
BRANCH  21  22
HETATM   22  O   UNL     1       8.052  25.729  52.770  1.00  0.00    -0.349 OA
BRANCH  22  23
HETATM   23  C   UNL     1       7.633  24.583  52.039  1.00  0.00     0.167 C 
HETATM   24  C   UNL     1       8.028  23.348  52.827  1.00  0.00     0.033 C 
ENDBRANCH  22  23
ENDBRANCH  21  22
BRANCH  21  25
HETATM   25  O   UNL     1       5.761  26.230  52.784  1.00  0.00    -0.349 OA
BRANCH  25  26
HETATM   26  C   UNL     1       5.279  27.316  51.999  1.00  0.00     0.167 C 
HETATM   27  C   UNL     1       5.148  26.834  50.567  1.00  0.00     0.033 C 
ENDBRANCH  25  26
ENDBRANCH  21  25
BRANCH  21  28
HETATM   28  C   UNL     1       6.780  25.945  54.889  1.00  0.00     0.097 A 
HETATM   29  N   UNL     1       7.852  25.619  55.666  1.00  0.00    -0.260 NA
HETATM   30  C   UNL     1       7.624  25.129  56.903  1.00  0.00     0.117 A 
HETATM   31  C   UNL     1       6.363  24.962  57.442  1.00  0.00     0.019 A 
HETATM   32  C   UNL     1       5.269  25.304  56.661  1.00  0.00     0.004 A 
HETATM   33  C   UNL     1       5.474  25.788  55.370  1.00  0.00     0.033 A 
ENDBRANCH  21  28
ENDBRANCH  20  21
ENDBRANCH   1  20
TORSDOF 10
ENDMDL
MODEL 6
REMARK VINA RESULT:      -8.1      2.750      5.071
REMARK  10 active torsions:
REMARK  status: ('A' for Active; 'I' for Inactive)
REMARK    1  A    between atoms: C_2  and  O_3 
REMARK    2  A    between atoms: O_3  and  C_4 
REMARK    3  A    between atoms: C_4  and  O_5 
REMARK    4  A    between atoms: C_4  and  C_8 
REMARK    5  A    between atoms: C_4  and  C_14 
REMARK    6  A    between atoms: O_5  and  C_6 
REMARK    7  A    between atoms: C_14  and  N_15 
REMARK       I    between atoms: N_15  and  C_16 
REMARK    8  A    between atoms: C_16  and  C_17 
REMARK    9  A    between atoms: C_19  and  N_20 
REMARK       I    between atoms: N_20  and  C_21 
REMARK   10  A    between atoms: C_21  and  C_22 
ROOT
HETATM    1  N   UNL     1       6.966  29.987  58.586  1.00  0.00    -0.351 N 
HETATM    2  C   UNL     1       7.000  31.333  58.874  1.00  0.00     0.251 C 
HETATM    3  O   UNL     1       6.592  32.200  58.114  1.00  0.00    -0.268 OA
HETATM    4  H   UNL     1       7.111  29.317  59.333  1.00  0.00     0.162 HD
ENDROOT
BRANCH   2   5
HETATM    5  C   UNL     1       7.558  31.688  60.206  1.00  0.00     0.034 A 
HETATM    6  C   UNL     1       6.750  32.296  61.179  1.00  0.00     0.046 A 
HETATM    7  C   UNL     1       7.276  32.649  62.421  1.00  0.00     0.035 A 
HETATM    8  C   UNL     1       8.620  32.362  62.690  1.00  0.00     0.029 A 
HETATM    9  C   UNL     1       9.421  31.729  61.736  1.00  0.00     0.003 A 
HETATM   10  C   UNL     1       8.890  31.387  60.493  1.00  0.00     0.017 A 
BRANCH   7  11
HETATM   11  N   UNL     1       6.529  33.291  63.429  1.00  0.00    -0.322 N 
HETATM   12  C   UNL     1       5.331  32.883  63.999  1.00  0.00     0.263 C 
HETATM   13  O   UNL     1       4.760  31.831  63.725  1.00  0.00    -0.267 OA
HETATM   14  H   UNL     1       6.899  34.167  63.781  1.00  0.00     0.169 HD
BRANCH  12  15
HETATM   15  C   UNL     1       4.768  33.807  64.982  1.00  0.00     0.072 A 
HETATM   16  S   UNL     1       3.543  34.943  64.592  1.00  0.00    -0.097 SA
HETATM   17  C   UNL     1       3.472  35.525  66.198  1.00  0.00     0.050 A 
HETATM   18  C   UNL     1       4.366  34.881  67.021  1.00  0.00     0.009 A 
HETATM   19  C   UNL     1       5.112  33.890  66.321  1.00  0.00     0.025 A 
ENDBRANCH  12  15
ENDBRANCH   7  11
ENDBRANCH   2   5
BRANCH   1  20
HETATM   20  C   UNL     1       6.515  29.493  57.289  1.00  0.00     0.198 C 
BRANCH  20  21
HETATM   21  C   UNL     1       7.546  28.635  56.473  1.00  0.00     0.227 C 
BRANCH  21  22
HETATM   22  O   UNL     1       8.175  27.611  57.271  1.00  0.00    -0.349 OA
BRANCH  22  23
HETATM   23  C   UNL     1       7.385  26.474  57.595  1.00  0.00     0.167 C 
HETATM   24  C   UNL     1       8.272  25.246  57.528  1.00  0.00     0.033 C 
ENDBRANCH  22  23
ENDBRANCH  21  22
BRANCH  21  25
HETATM   25  O   UNL     1       8.581  29.520  55.970  1.00  0.00    -0.349 OA
BRANCH  25  26
HETATM   26  C   UNL     1       9.885  29.264  56.482  1.00  0.00     0.167 C 
HETATM   27  C   UNL     1      10.362  30.517  57.191  1.00  0.00     0.033 C 
ENDBRANCH  25  26
ENDBRANCH  21  25
BRANCH  21  28
HETATM   28  C   UNL     1       6.914  28.055  55.180  1.00  0.00     0.097 A 
HETATM   29  N   UNL     1       7.715  27.409  54.285  1.00  0.00    -0.260 NA
HETATM   30  C   UNL     1       7.159  26.935  53.150  1.00  0.00     0.117 A 
HETATM   31  C   UNL     1       5.813  27.041  52.853  1.00  0.00     0.019 A 
HETATM   32  C   UNL     1       4.992  27.686  53.765  1.00  0.00     0.004 A 
HETATM   33  C   UNL     1       5.544  28.209  54.934  1.00  0.00     0.033 A 
ENDBRANCH  21  28
ENDBRANCH  20  21
ENDBRANCH   1  20
TORSDOF 10
ENDMDL
MODEL 7
REMARK VINA RESULT:      -7.9      2.624      4.242
REMARK  10 active torsions:
REMARK  status: ('A' for Active; 'I' for Inactive)
REMARK    1  A    between atoms: C_2  and  O_3 
REMARK    2  A    between atoms: O_3  and  C_4 
REMARK    3  A    between atoms: C_4  and  O_5 
REMARK    4  A    between atoms: C_4  and  C_8 
REMARK    5  A    between atoms: C_4  and  C_14 
REMARK    6  A    between atoms: O_5  and  C_6 
REMARK    7  A    between atoms: C_14  and  N_15 
REMARK       I    between atoms: N_15  and  C_16 
REMARK    8  A    between atoms: C_16  and  C_17 
REMARK    9  A    between atoms: C_19  and  N_20 
REMARK       I    between atoms: N_20  and  C_21 
REMARK   10  A    between atoms: C_21  and  C_22 
ROOT
HETATM    1  N   UNL     1       4.638  27.825  57.032  1.00  0.00    -0.351 N 
HETATM    2  C   UNL     1       4.285  28.842  56.173  1.00  0.00     0.251 C 
HETATM    3  O   UNL     1       4.083  28.682  54.977  1.00  0.00    -0.268 OA
HETATM    4  H   UNL     1       4.574  27.978  58.032  1.00  0.00     0.162 HD
ENDROOT
BRANCH   2   5
HETATM    5  C   UNL     1       4.137  30.184  56.796  1.00  0.00     0.034 A 
HETATM    6  C   UNL     1       4.769  30.479  58.013  1.00  0.00     0.046 A 
HETATM    7  C   UNL     1       4.616  31.730  58.610  1.00  0.00     0.035 A 
HETATM    8  C   UNL     1       3.839  32.696  57.960  1.00  0.00     0.029 A 
HETATM    9  C   UNL     1       3.232  32.418  56.732  1.00  0.00     0.003 A 
HETATM   10  C   UNL     1       3.383  31.162  56.146  1.00  0.00     0.017 A 
BRANCH   7  11
HETATM   11  N   UNL     1       5.195  32.080  59.847  1.00  0.00    -0.322 N 
HETATM   12  C   UNL     1       6.530  32.340  60.124  1.00  0.00     0.263 C 
HETATM   13  O   UNL     1       7.421  32.350  59.278  1.00  0.00    -0.267 OA
HETATM   14  H   UNL     1       4.569  32.142  60.641  1.00  0.00     0.169 HD
BRANCH  12  15
HETATM   15  C   UNL     1       6.828  32.613  61.529  1.00  0.00     0.072 A 
HETATM   16  S   UNL     1       5.698  33.345  62.592  1.00  0.00    -0.097 SA
HETATM   17  C   UNL     1       6.777  33.258  63.915  1.00  0.00     0.050 A 
HETATM   18  C   UNL     1       7.980  32.692  63.563  1.00  0.00     0.009 A 
HETATM   19  C   UNL     1       8.010  32.320  62.189  1.00  0.00     0.025 A 
ENDBRANCH  12  15
ENDBRANCH   7  11
ENDBRANCH   2   5
BRANCH   1  20
HETATM   20  C   UNL     1       4.892  26.471  56.551  1.00  0.00     0.198 C 
BRANCH  20  21
HETATM   21  C   UNL     1       6.390  26.107  56.255  1.00  0.00     0.227 C 
BRANCH  21  22
HETATM   22  O   UNL     1       6.574  25.518  54.952  1.00  0.00    -0.349 OA
BRANCH  22  23
HETATM   23  C   UNL     1       5.426  25.437  54.115  1.00  0.00     0.167 C 
HETATM   24  C   UNL     1       5.796  24.639  52.879  1.00  0.00     0.033 C 
ENDBRANCH  22  23
ENDBRANCH  21  22
BRANCH  21  25
HETATM   25  O   UNL     1       6.834  25.150  57.253  1.00  0.00    -0.349 OA
BRANCH  25  26
HETATM   26  C   UNL     1       7.683  24.122  56.757  1.00  0.00     0.167 C 
HETATM   27  C   UNL     1       9.074  24.354  57.318  1.00  0.00     0.033 C 
ENDBRANCH  25  26
ENDBRANCH  21  25
BRANCH  21  28
HETATM   28  C   UNL     1       7.331  27.319  56.480  1.00  0.00     0.097 A 
HETATM   29  N   UNL     1       7.607  27.713  57.757  1.00  0.00    -0.260 NA
HETATM   30  C   UNL     1       8.403  28.788  57.939  1.00  0.00     0.117 A 
HETATM   31  C   UNL     1       8.980  29.500  56.904  1.00  0.00     0.019 A 
HETATM   32  C   UNL     1       8.712  29.097  55.605  1.00  0.00     0.004 A 
HETATM   33  C   UNL     1       7.872  28.006  55.386  1.00  0.00     0.033 A 
ENDBRANCH  21  28
ENDBRANCH  20  21
ENDBRANCH   1  20
TORSDOF 10
ENDMDL
MODEL 8
REMARK VINA RESULT:      -7.8      1.664      1.812
REMARK  10 active torsions:
REMARK  status: ('A' for Active; 'I' for Inactive)
REMARK    1  A    between atoms: C_2  and  O_3 
REMARK    2  A    between atoms: O_3  and  C_4 
REMARK    3  A    between atoms: C_4  and  O_5 
REMARK    4  A    between atoms: C_4  and  C_8 
REMARK    5  A    between atoms: C_4  and  C_14 
REMARK    6  A    between atoms: O_5  and  C_6 
REMARK    7  A    between atoms: C_14  and  N_15 
REMARK       I    between atoms: N_15  and  C_16 
REMARK    8  A    between atoms: C_16  and  C_17 
REMARK    9  A    between atoms: C_19  and  N_20 
REMARK       I    between atoms: N_20  and  C_21 
REMARK   10  A    between atoms: C_21  and  C_22 
ROOT
HETATM    1  N   UNL     1       7.886  28.105  55.350  1.00  0.00    -0.351 N 
HETATM    2  C   UNL     1       8.977  28.944  55.300  1.00  0.00     0.251 C 
HETATM    3  O   UNL     1       9.706  29.051  54.324  1.00  0.00    -0.268 OA
HETATM    4  H   UNL     1       7.204  28.224  56.092  1.00  0.00     0.162 HD
ENDROOT
BRANCH   2   5
HETATM    5  C   UNL     1       9.220  29.753  56.525  1.00  0.00     0.034 A 
HETATM    6  C   UNL     1       8.169  30.042  57.408  1.00  0.00     0.046 A 
HETATM    7  C   UNL     1       8.389  30.817  58.546  1.00  0.00     0.035 A 
HETATM    8  C   UNL     1       9.685  31.281  58.805  1.00  0.00     0.029 A 
HETATM    9  C   UNL     1      10.742  30.968  57.945  1.00  0.00     0.003 A 
HETATM   10  C   UNL     1      10.512  30.200  56.804  1.00  0.00     0.017 A 
BRANCH   7  11
HETATM   11  N   UNL     1       7.373  31.174  59.456  1.00  0.00    -0.322 N 
HETATM   12  C   UNL     1       6.373  32.121  59.292  1.00  0.00     0.263 C 
HETATM   13  O   UNL     1       6.200  32.773  58.265  1.00  0.00    -0.267 OA
HETATM   14  H   UNL     1       7.370  30.690  60.346  1.00  0.00     0.169 HD
BRANCH  12  15
HETATM   15  C   UNL     1       5.503  32.308  60.453  1.00  0.00     0.072 A 
HETATM   16  S   UNL     1       3.813  32.569  60.314  1.00  0.00    -0.097 SA
HETATM   17  C   UNL     1       3.612  32.641  62.009  1.00  0.00     0.050 A 
HETATM   18  C   UNL     1       4.803  32.479  62.678  1.00  0.00     0.009 A 
HETATM   19  C   UNL     1       5.892  32.286  61.781  1.00  0.00     0.025 A 
ENDBRANCH  12  15
ENDBRANCH   7  11
ENDBRANCH   2   5
BRANCH   1  20
HETATM   20  C   UNL     1       7.567  27.197  54.253  1.00  0.00     0.198 C 
BRANCH  20  21
HETATM   21  C   UNL     1       6.673  25.958  54.612  1.00  0.00     0.227 C 
BRANCH  21  22
HETATM   22  O   UNL     1       5.386  25.992  53.962  1.00  0.00    -0.349 OA
BRANCH  22  23
HETATM   23  C   UNL     1       5.183  27.012  52.992  1.00  0.00     0.167 C 
HETATM   24  C   UNL     1       5.106  26.359  51.625  1.00  0.00     0.033 C 
ENDBRANCH  22  23
ENDBRANCH  21  22
BRANCH  21  25
HETATM   25  O   UNL     1       6.458  25.949  56.048  1.00  0.00    -0.349 OA
BRANCH  25  26
HETATM   26  C   UNL     1       5.131  26.268  56.453  1.00  0.00     0.167 C 
HETATM   27  C   UNL     1       4.654  25.175  57.390  1.00  0.00     0.033 C 
ENDBRANCH  25  26
ENDBRANCH  21  25
BRANCH  21  28
HETATM   28  C   UNL     1       7.417  24.621  54.355  1.00  0.00     0.097 A 
HETATM   29  N   UNL     1       8.215  24.109  55.335  1.00  0.00    -0.260 NA
HETATM   30  C   UNL     1       8.879  22.960  55.088  1.00  0.00     0.117 A 
HETATM   31  C   UNL     1       8.778  22.254  53.905  1.00  0.00     0.019 A 
HETATM   32  C   UNL     1       7.958  22.764  52.909  1.00  0.00     0.004 A 
HETATM   33  C   UNL     1       7.280  23.962  53.127  1.00  0.00     0.033 A 
ENDBRANCH  21  28
ENDBRANCH  20  21
ENDBRANCH   1  20
TORSDOF 10
ENDMDL
MODEL 9
REMARK VINA RESULT:      -7.8      3.009      9.162
REMARK  10 active torsions:
REMARK  status: ('A' for Active; 'I' for Inactive)
REMARK    1  A    between atoms: C_2  and  O_3 
REMARK    2  A    between atoms: O_3  and  C_4 
REMARK    3  A    between atoms: C_4  and  O_5 
REMARK    4  A    between atoms: C_4  and  C_8 
REMARK    5  A    between atoms: C_4  and  C_14 
REMARK    6  A    between atoms: O_5  and  C_6 
REMARK    7  A    between atoms: C_14  and  N_15 
REMARK       I    between atoms: N_15  and  C_16 
REMARK    8  A    between atoms: C_16  and  C_17 
REMARK    9  A    between atoms: C_19  and  N_20 
REMARK       I    between atoms: N_20  and  C_21 
REMARK   10  A    between atoms: C_21  and  C_22 
ROOT
HETATM    1  N   UNL     1       7.507  27.265  57.018  1.00  0.00    -0.351 N 
HETATM    2  C   UNL     1       7.871  25.937  57.011  1.00  0.00     0.251 C 
HETATM    3  O   UNL     1       8.406  25.375  57.956  1.00  0.00    -0.268 OA
HETATM    4  H   UNL     1       6.878  27.610  56.301  1.00  0.00     0.162 HD
ENDROOT
BRANCH   2   5
HETATM    5  C   UNL     1       7.552  25.193  55.763  1.00  0.00     0.034 A 
HETATM    6  C   UNL     1       7.166  25.879  54.602  1.00  0.00     0.046 A 
HETATM    7  C   UNL     1       6.847  25.184  53.436  1.00  0.00     0.035 A 
HETATM    8  C   UNL     1       6.944  23.787  53.438  1.00  0.00     0.029 A 
HETATM    9  C   UNL     1       7.360  23.100  54.583  1.00  0.00     0.003 A 
HETATM   10  C   UNL     1       7.668  23.803  55.746  1.00  0.00     0.017 A 
BRANCH   7  11
HETATM   11  N   UNL     1       6.419  25.808  52.247  1.00  0.00    -0.322 N 
HETATM   12  C   UNL     1       5.251  26.527  52.031  1.00  0.00     0.263 C 
HETATM   13  O   UNL     1       4.418  26.769  52.901  1.00  0.00    -0.267 OA
HETATM   14  H   UNL     1       7.027  25.719  51.442  1.00  0.00     0.169 HD
BRANCH  12  15
HETATM   15  C   UNL     1       5.061  26.999  50.660  1.00  0.00     0.072 A 
HETATM   16  S   UNL     1       5.350  28.622  50.188  1.00  0.00    -0.097 SA
HETATM   17  C   UNL     1       4.943  28.298  48.561  1.00  0.00     0.050 A 
HETATM   18  C   UNL     1       4.584  26.983  48.370  1.00  0.00     0.009 A 
HETATM   19  C   UNL     1       4.653  26.235  49.580  1.00  0.00     0.025 A 
ENDBRANCH  12  15
ENDBRANCH   7  11
ENDBRANCH   2   5
BRANCH   1  20
HETATM   20  C   UNL     1       7.823  28.139  58.143  1.00  0.00     0.198 C 
BRANCH  20  21
HETATM   21  C   UNL     1       7.518  29.666  57.947  1.00  0.00     0.227 C 
BRANCH  21  22
HETATM   22  O   UNL     1       6.154  29.917  57.552  1.00  0.00    -0.349 OA
BRANCH  22  23
HETATM   23  C   UNL     1       5.941  30.345  56.213  1.00  0.00     0.167 C 
HETATM   24  C   UNL     1       4.930  29.412  55.573  1.00  0.00     0.033 C 
ENDBRANCH  22  23
ENDBRANCH  21  22
BRANCH  21  25
HETATM   25  O   UNL     1       8.393  30.177  56.907  1.00  0.00    -0.349 OA
BRANCH  25  26
HETATM   26  C   UNL     1       9.588  29.427  56.712  1.00  0.00     0.167 C 
HETATM   27  C   UNL     1      10.759  30.304  57.112  1.00  0.00     0.033 C 
ENDBRANCH  25  26
ENDBRANCH  21  25
BRANCH  21  28
HETATM   28  C   UNL     1       7.922  30.497  59.193  1.00  0.00     0.097 A 
HETATM   29  N   UNL     1       8.763  29.942  60.113  1.00  0.00    -0.260 NA
HETATM   30  C   UNL     1       9.084  30.663  61.208  1.00  0.00     0.117 A 
HETATM   31  C   UNL     1       8.630  31.948  61.440  1.00  0.00     0.019 A 
HETATM   32  C   UNL     1       7.785  32.522  60.502  1.00  0.00     0.004 A 
HETATM   33  C   UNL     1       7.417  31.790  59.374  1.00  0.00     0.033 A 
ENDBRANCH  21  28
ENDBRANCH  20  21
ENDBRANCH   1  20
TORSDOF 10
ENDMDL
MODEL 10
REMARK VINA RESULT:      -7.7      3.190      5.104
REMARK  10 active torsions:
REMARK  status: ('A' for Active; 'I' for Inactive)
REMARK    1  A    between atoms: C_2  and  O_3 
REMARK    2  A    between atoms: O_3  and  C_4 
REMARK    3  A    between atoms: C_4  and  O_5 
REMARK    4  A    between atoms: C_4  and  C_8 
REMARK    5  A    between atoms: C_4  and  C_14 
REMARK    6  A    between atoms: O_5  and  C_6 
REMARK    7  A    between atoms: C_14  and  N_15 
REMARK       I    between atoms: N_15  and  C_16 
REMARK    8  A    between atoms: C_16  and  C_17 
REMARK    9  A    between atoms: C_19  and  N_20 
REMARK       I    between atoms: N_20  and  C_21 
REMARK   10  A    between atoms: C_21  and  C_22 
ROOT
HETATM    1  N   UNL     1       5.663  29.399  54.085  1.00  0.00    -0.351 N 
HETATM    2  C   UNL     1       5.520  28.914  55.365  1.00  0.00     0.251 C 
HETATM    3  O   UNL     1       4.544  28.283  55.747  1.00  0.00    -0.268 OA
HETATM    4  H   UNL     1       6.576  29.716  53.774  1.00  0.00     0.162 HD
ENDROOT
BRANCH   2   5
HETATM    5  C   UNL     1       6.658  29.187  56.284  1.00  0.00     0.034 A 
HETATM    6  C   UNL     1       6.444  29.827  57.514  1.00  0.00     0.046 A 
HETATM    7  C   UNL     1       7.511  30.102  58.369  1.00  0.00     0.035 A 
HETATM    8  C   UNL     1       8.798  29.705  57.988  1.00  0.00     0.029 A 
HETATM    9  C   UNL     1       9.013  29.038  56.778  1.00  0.00     0.003 A 
HETATM   10  C   UNL     1       7.942  28.775  55.925  1.00  0.00     0.017 A 
BRANCH   7  11
HETATM   11  N   UNL     1       7.370  30.772  59.601  1.00  0.00    -0.322 N 
HETATM   12  C   UNL     1       8.033  31.910  60.036  1.00  0.00     0.263 C 
HETATM   13  O   UNL     1       8.833  32.547  59.355  1.00  0.00    -0.267 OA
HETATM   14  H   UNL     1       6.712  30.375  60.262  1.00  0.00     0.169 HD
BRANCH  12  15
HETATM   15  C   UNL     1       7.714  32.327  61.402  1.00  0.00     0.072 A 
HETATM   16  S   UNL     1       6.177  32.946  61.847  1.00  0.00    -0.097 SA
HETATM   17  C   UNL     1       6.644  33.125  63.482  1.00  0.00     0.050 A 
HETATM   18  C   UNL     1       7.945  32.733  63.693  1.00  0.00     0.009 A 
HETATM   19  C   UNL     1       8.561  32.272  62.495  1.00  0.00     0.025 A 
ENDBRANCH  12  15
ENDBRANCH   7  11
ENDBRANCH   2   5
BRANCH   1  20
HETATM   20  C   UNL     1       4.598  29.274  53.095  1.00  0.00     0.198 C 
BRANCH  20  21
HETATM   21  C   UNL     1       4.987  28.591  51.736  1.00  0.00     0.227 C 
BRANCH  21  22
HETATM   22  O   UNL     1       5.636  27.316  51.918  1.00  0.00    -0.349 OA
BRANCH  22  23
HETATM   23  C   UNL     1       4.971  26.368  52.744  1.00  0.00     0.167 C 
HETATM   24  C   UNL     1       4.959  25.035  52.021  1.00  0.00     0.033 C 
ENDBRANCH  22  23
ENDBRANCH  21  22
BRANCH  21  25
HETATM   25  O   UNL     1       5.900  29.469  51.027  1.00  0.00    -0.349 OA
BRANCH  25  26
HETATM   26  C   UNL     1       5.396  30.778  50.780  1.00  0.00     0.167 C 
HETATM   27  C   UNL     1       5.955  31.249  49.451  1.00  0.00     0.033 C 
ENDBRANCH  25  26
ENDBRANCH  21  25
BRANCH  21  28
HETATM   28  C   UNL     1       3.772  28.490  50.777  1.00  0.00     0.097 A 
HETATM   29  N   UNL     1       3.913  27.815  49.600  1.00  0.00    -0.260 NA
HETATM   30  C   UNL     1       2.857  27.760  48.761  1.00  0.00     0.117 A 
HETATM   31  C   UNL     1       1.627  28.326  49.036  1.00  0.00     0.019 A 
HETATM   32  C   UNL     1       1.474  29.003  50.237  1.00  0.00     0.004 A 
HETATM   33  C   UNL     1       2.555  29.098  51.112  1.00  0.00     0.033 A 
ENDBRANCH  21  28
ENDBRANCH  20  21
ENDBRANCH   1  20
TORSDOF 10
ENDMDL
