MODEL 1
REMARK VINA RESULT:     -10.7      0.000      0.000
REMARK  8 active torsions:
REMARK  status: ('A' for Active; 'I' for Inactive)
REMARK    1  A    between atoms: N_2  and  C_4 
REMARK    2  A    between atoms: N_2  and  C_32 
REMARK    3  A    between atoms: C_4  and  C_5 
REMARK    4  A    between atoms: N_8  and  C_9 
REMARK    5  A    between atoms: C_12  and  N_13 
REMARK    6  A    between atoms: N_13  and  C_16 
REMARK    7  A    between atoms: C_16  and  C_17 
REMARK    8  A    between atoms: C_32  and  C_33 
ROOT
HETATM    1  C   UNL     1       7.172  29.644  56.822  1.00  0.00     0.161 C 
HETATM    2  C   UNL     1       6.590  28.336  57.338  1.00  0.00     0.179 C 
HETATM    3  C   UNL     1       6.990  27.325  56.271  1.00  0.00     0.185 C 
HETATM    4  C   UNL     1       5.700  27.103  55.489  1.00  0.00     0.241 C 
HETATM    5  C   UNL     1       4.657  27.285  56.577  1.00  0.00     0.204 C 
HETATM    6  O   UNL     1       5.154  28.359  57.395  1.00  0.00    -0.379 OA
HETATM    7  O   UNL     1       7.994  27.908  55.437  1.00  0.00    -0.379 OA
HETATM    8  C   UNL     1       8.397  29.150  56.060  1.00  0.00     0.198 C 
ENDROOT
BRANCH   1   9
HETATM    9  N   UNL     1       7.418  30.614  57.857  1.00  0.00    -0.274 N 
HETATM   10  N   UNL     1       6.615  31.675  58.032  1.00  0.00     0.005 NA
HETATM   11  N   UNL     1       7.095  32.390  59.039  1.00  0.00    -0.161 NA
HETATM   12  C   UNL     1       8.226  31.769  59.502  1.00  0.00     0.095 A 
HETATM   13  C   UNL     1       8.443  30.627  58.763  1.00  0.00     0.139 A 
BRANCH  12  14
HETATM   14  C   UNL     1       8.983  32.346  60.644  1.00  0.00     0.296 C 
BRANCH  14  15
HETATM   15  N   UNL     1       8.793  31.602  61.949  1.00  0.00    -0.066 N 
HETATM   16  C   UNL     1       9.578  30.322  61.975  1.00  0.00     0.270 C 
HETATM   17  H   UNL     1       9.179  32.216  62.679  1.00  0.00     0.280 HD
BRANCH  15  18
HETATM   18  C   UNL     1       7.331  31.412  62.294  1.00  0.00     0.273 C 
BRANCH  18  19
HETATM   19  C   UNL     1       6.824  32.341  63.362  1.00  0.00    -0.033 A 
HETATM   20  C   UNL     1       7.717  33.015  64.210  1.00  0.00     0.009 A 
HETATM   21  C   UNL     1       7.234  33.857  65.214  1.00  0.00     0.001 A 
HETATM   22  C   UNL     1       5.862  34.040  65.374  1.00  0.00     0.000 A 
HETATM   23  C   UNL     1       4.968  33.386  64.530  1.00  0.00     0.001 A 
HETATM   24  C   UNL     1       5.445  32.540  63.529  1.00  0.00     0.009 A 
ENDBRANCH  18  19
ENDBRANCH  15  18
ENDBRANCH  14  15
ENDBRANCH  12  14
ENDBRANCH   1   9
BRANCH   4  25
HETATM   25  N   UNL     1       5.677  25.773  54.824  1.00  0.00    -0.062 N 
HETATM   26  H   UNL     1       4.711  25.409  54.821  1.00  0.00     0.278 HD
HETATM   27  H   UNL     1       5.939  25.820  53.828  1.00  0.00     0.278 HD
BRANCH  25  28
HETATM   28  C   UNL     1       6.523  24.724  55.471  1.00  0.00     0.273 C 
BRANCH  28  29
HETATM   29  C   UNL     1       7.108  23.848  54.431  1.00  0.00    -0.005 A 
HETATM   30  C   UNL     1       7.609  22.520  54.628  1.00  0.00    -0.000 A 
HETATM   31  C   UNL     1       8.082  22.070  53.396  1.00  0.00     0.043 A 
HETATM   32  C   UNL     1       7.702  21.656  55.741  1.00  0.00     0.014 A 
HETATM   33  C   UNL     1       8.648  20.803  53.219  1.00  0.00     0.030 A 
HETATM   34  N   UNL     1       7.863  23.071  52.479  1.00  0.00    -0.365 N 
HETATM   35  C   UNL     1       8.734  19.969  54.336  1.00  0.00     0.002 A 
HETATM   36  C   UNL     1       8.268  20.387  55.580  1.00  0.00     0.001 A 
HETATM   37  H   UNL     1       8.091  23.002  51.494  1.00  0.00     0.165 HD
HETATM   38  C   UNL     1       7.294  24.156  53.096  1.00  0.00     0.098 A 
ENDBRANCH  28  29
ENDBRANCH  25  28
ENDBRANCH   4  25
TORSDOF 8
ENDMDL
MODEL 2
REMARK VINA RESULT:     -10.4      1.627      2.505
REMARK  8 active torsions:
REMARK  status: ('A' for Active; 'I' for Inactive)
REMARK    1  A    between atoms: N_2  and  C_4 
REMARK    2  A    between atoms: N_2  and  C_32 
REMARK    3  A    between atoms: C_4  and  C_5 
REMARK    4  A    between atoms: N_8  and  C_9 
REMARK    5  A    between atoms: C_12  and  N_13 
REMARK    6  A    between atoms: N_13  and  C_16 
REMARK    7  A    between atoms: C_16  and  C_17 
REMARK    8  A    between atoms: C_32  and  C_33 
ROOT
HETATM    1  C   UNL     1       8.666  30.349  57.920  1.00  0.00     0.161 C 
HETATM    2  C   UNL     1       7.954  29.009  58.022  1.00  0.00     0.179 C 
HETATM    3  C   UNL     1       8.564  28.196  56.887  1.00  0.00     0.185 C 
HETATM    4  C   UNL     1       7.482  28.214  55.813  1.00  0.00     0.241 C 
HETATM    5  C   UNL     1       6.222  28.254  56.660  1.00  0.00     0.204 C 
HETATM    6  O   UNL     1       6.543  29.116  57.767  1.00  0.00    -0.379 OA
HETATM    7  O   UNL     1       9.744  28.859  56.428  1.00  0.00    -0.379 OA
HETATM    8  C   UNL     1      10.021  29.930  57.361  1.00  0.00     0.198 C 
ENDROOT
BRANCH   1   9
HETATM    9  N   UNL     1       8.691  31.085  59.158  1.00  0.00    -0.274 N 
HETATM   10  N   UNL     1       9.105  32.360  59.211  1.00  0.00     0.005 NA
HETATM   11  N   UNL     1       9.031  32.763  60.471  1.00  0.00    -0.161 NA
HETATM   12  C   UNL     1       8.566  31.718  61.226  1.00  0.00     0.095 A 
HETATM   13  C   UNL     1       8.335  30.639  60.401  1.00  0.00     0.139 A 
BRANCH  12  14
HETATM   14  C   UNL     1       8.372  31.881  62.691  1.00  0.00     0.296 C 
BRANCH  14  15
HETATM   15  N   UNL     1       6.964  32.269  63.088  1.00  0.00    -0.066 N 
HETATM   16  C   UNL     1       5.975  31.940  62.007  1.00  0.00     0.270 C 
HETATM   17  H   UNL     1       6.734  31.687  63.905  1.00  0.00     0.280 HD
BRANCH  15  18
HETATM   18  C   UNL     1       6.876  33.705  63.560  1.00  0.00     0.273 C 
BRANCH  18  19
HETATM   19  C   UNL     1       6.220  33.873  64.902  1.00  0.00    -0.033 A 
HETATM   20  C   UNL     1       4.822  33.913  65.018  1.00  0.00     0.009 A 
HETATM   21  C   UNL     1       4.224  34.093  66.267  1.00  0.00     0.001 A 
HETATM   22  C   UNL     1       5.013  34.225  67.408  1.00  0.00     0.000 A 
HETATM   23  C   UNL     1       6.401  34.174  67.306  1.00  0.00     0.001 A 
HETATM   24  C   UNL     1       7.003  34.000  66.060  1.00  0.00     0.009 A 
ENDBRANCH  18  19
ENDBRANCH  15  18
ENDBRANCH  14  15
ENDBRANCH  12  14
ENDBRANCH   1   9
BRANCH   4  25
HETATM   25  N   UNL     1       7.582  27.040  54.905  1.00  0.00    -0.062 N 
HETATM   26  H   UNL     1       7.500  27.358  53.926  1.00  0.00     0.278 HD
HETATM   27  H   UNL     1       8.502  26.578  54.952  1.00  0.00     0.278 HD
BRANCH  25  28
HETATM   28  C   UNL     1       6.532  25.994  55.101  1.00  0.00     0.273 C 
BRANCH  28  29
HETATM   29  C   UNL     1       7.151  24.768  55.653  1.00  0.00    -0.005 A 
HETATM   30  C   UNL     1       7.476  23.581  54.920  1.00  0.00    -0.000 A 
HETATM   31  C   UNL     1       8.023  22.673  55.826  1.00  0.00     0.043 A 
HETATM   32  C   UNL     1       7.358  23.194  53.568  1.00  0.00     0.014 A 
HETATM   33  C   UNL     1       8.454  21.396  55.452  1.00  0.00     0.030 A 
HETATM   34  N   UNL     1       8.050  23.284  57.058  1.00  0.00    -0.365 N 
HETATM   35  C   UNL     1       8.321  21.034  54.109  1.00  0.00     0.002 A 
HETATM   36  C   UNL     1       7.783  21.919  53.178  1.00  0.00     0.001 A 
HETATM   37  H   UNL     1       8.423  22.857  57.898  1.00  0.00     0.165 HD
HETATM   38  C   UNL     1       7.509  24.542  56.969  1.00  0.00     0.098 A 
ENDBRANCH  28  29
ENDBRANCH  25  28
ENDBRANCH   4  25
TORSDOF 8
ENDMDL
MODEL 3
REMARK VINA RESULT:     -10.3      2.104      2.931
REMARK  8 active torsions:
REMARK  status: ('A' for Active; 'I' for Inactive)
REMARK    1  A    between atoms: N_2  and  C_4 
REMARK    2  A    between atoms: N_2  and  C_32 
REMARK    3  A    between atoms: C_4  and  C_5 
REMARK    4  A    between atoms: N_8  and  C_9 
REMARK    5  A    between atoms: C_12  and  N_13 
REMARK    6  A    between atoms: N_13  and  C_16 
REMARK    7  A    between atoms: C_16  and  C_17 
REMARK    8  A    between atoms: C_32  and  C_33 
ROOT
HETATM    1  C   UNL     1       8.714  30.319  57.918  1.00  0.00     0.161 C 
HETATM    2  C   UNL     1       7.951  29.008  58.030  1.00  0.00     0.179 C 
HETATM    3  C   UNL     1       8.545  28.156  56.916  1.00  0.00     0.185 C 
HETATM    4  C   UNL     1       7.480  28.197  55.827  1.00  0.00     0.241 C 
HETATM    5  C   UNL     1       6.211  28.297  56.655  1.00  0.00     0.204 C 
HETATM    6  O   UNL     1       6.549  29.163  57.754  1.00  0.00    -0.379 OA
HETATM    7  O   UNL     1       9.755  28.768  56.464  1.00  0.00    -0.379 OA
HETATM    8  C   UNL     1      10.060  29.842  57.385  1.00  0.00     0.198 C 
ENDROOT
BRANCH   1   9
HETATM    9  N   UNL     1       8.750  31.073  59.145  1.00  0.00    -0.274 N 
HETATM   10  N   UNL     1       9.144  32.355  59.172  1.00  0.00     0.005 NA
HETATM   11  N   UNL     1       9.086  32.775  60.428  1.00  0.00    -0.161 NA
HETATM   12  C   UNL     1       8.653  31.733  61.206  1.00  0.00     0.095 A 
HETATM   13  C   UNL     1       8.424  30.639  60.400  1.00  0.00     0.139 A 
BRANCH  12  14
HETATM   14  C   UNL     1       8.483  31.914  62.672  1.00  0.00     0.296 C 
BRANCH  14  15
HETATM   15  N   UNL     1       7.390  32.889  63.051  1.00  0.00    -0.066 N 
HETATM   16  C   UNL     1       7.474  33.277  64.499  1.00  0.00     0.270 C 
HETATM   17  H   UNL     1       7.566  33.736  62.494  1.00  0.00     0.280 HD
BRANCH  15  18
HETATM   18  C   UNL     1       6.016  32.399  62.644  1.00  0.00     0.273 C 
BRANCH  18  19
HETATM   19  C   UNL     1       5.347  33.243  61.595  1.00  0.00    -0.033 A 
HETATM   20  C   UNL     1       5.177  32.761  60.287  1.00  0.00     0.009 A 
HETATM   21  C   UNL     1       4.576  33.562  59.315  1.00  0.00     0.001 A 
HETATM   22  C   UNL     1       4.133  34.843  59.639  1.00  0.00     0.000 A 
HETATM   23  C   UNL     1       4.286  35.326  60.936  1.00  0.00     0.001 A 
HETATM   24  C   UNL     1       4.891  34.532  61.910  1.00  0.00     0.009 A 
ENDBRANCH  18  19
ENDBRANCH  15  18
ENDBRANCH  14  15
ENDBRANCH  12  14
ENDBRANCH   1   9
BRANCH   4  25
HETATM   25  N   UNL     1       7.548  27.006  54.938  1.00  0.00    -0.062 N 
HETATM   26  H   UNL     1       7.429  27.305  53.957  1.00  0.00     0.278 HD
HETATM   27  H   UNL     1       8.469  26.546  54.960  1.00  0.00     0.278 HD
BRANCH  25  28
HETATM   28  C   UNL     1       6.507  25.963  55.192  1.00  0.00     0.273 C 
BRANCH  28  29
HETATM   29  C   UNL     1       7.154  24.733  55.700  1.00  0.00    -0.005 A 
HETATM   30  C   UNL     1       7.506  23.581  54.925  1.00  0.00    -0.000 A 
HETATM   31  C   UNL     1       8.072  22.652  55.798  1.00  0.00     0.043 A 
HETATM   32  C   UNL     1       7.398  23.241  53.559  1.00  0.00     0.014 A 
HETATM   33  C   UNL     1       8.532  21.400  55.377  1.00  0.00     0.030 A 
HETATM   34  N   UNL     1       8.085  23.218  57.051  1.00  0.00    -0.365 N 
HETATM   35  C   UNL     1       8.409  21.085  54.021  1.00  0.00     0.002 A 
HETATM   36  C   UNL     1       7.851  21.991  53.123  1.00  0.00     0.001 A 
HETATM   37  H   UNL     1       8.466  22.769  57.876  1.00  0.00     0.165 HD
HETATM   38  C   UNL     1       7.515  24.466  57.008  1.00  0.00     0.098 A 
ENDBRANCH  28  29
ENDBRANCH  25  28
ENDBRANCH   4  25
TORSDOF 8
ENDMDL
MODEL 4
REMARK VINA RESULT:     -10.2      1.817      2.593
REMARK  8 active torsions:
REMARK  status: ('A' for Active; 'I' for Inactive)
REMARK    1  A    between atoms: N_2  and  C_4 
REMARK    2  A    between atoms: N_2  and  C_32 
REMARK    3  A    between atoms: C_4  and  C_5 
REMARK    4  A    between atoms: N_8  and  C_9 
REMARK    5  A    between atoms: C_12  and  N_13 
REMARK    6  A    between atoms: N_13  and  C_16 
REMARK    7  A    between atoms: C_16  and  C_17 
REMARK    8  A    between atoms: C_32  and  C_33 
ROOT
HETATM    1  C   UNL     1       6.635  29.646  57.239  1.00  0.00     0.161 C 
HETATM    2  C   UNL     1       5.378  28.791  57.164  1.00  0.00     0.179 C 
HETATM    3  C   UNL     1       5.918  27.387  56.926  1.00  0.00     0.185 C 
HETATM    4  C   UNL     1       5.659  27.151  55.442  1.00  0.00     0.241 C 
HETATM    5  C   UNL     1       4.387  27.953  55.230  1.00  0.00     0.204 C 
HETATM    6  O   UNL     1       4.549  29.131  56.040  1.00  0.00    -0.379 OA
HETATM    7  O   UNL     1       7.320  27.380  57.203  1.00  0.00    -0.379 OA
HETATM    8  C   UNL     1       7.642  28.654  57.809  1.00  0.00     0.198 C 
ENDROOT
BRANCH   1   9
HETATM    9  N   UNL     1       6.458  30.867  57.980  1.00  0.00    -0.274 N 
HETATM   10  N   UNL     1       7.474  31.441  58.644  1.00  0.00     0.005 NA
HETATM   11  N   UNL     1       7.012  32.532  59.237  1.00  0.00    -0.161 NA
HETATM   12  C   UNL     1       5.677  32.643  58.945  1.00  0.00     0.095 A 
HETATM   13  C   UNL     1       5.308  31.591  58.135  1.00  0.00     0.139 A 
BRANCH  12  14
HETATM   14  C   UNL     1       4.887  33.786  59.474  1.00  0.00     0.296 C 
BRANCH  14  15
HETATM   15  N   UNL     1       4.472  33.633  60.921  1.00  0.00    -0.066 N 
HETATM   16  C   UNL     1       2.989  33.439  61.053  1.00  0.00     0.270 C 
HETATM   17  H   UNL     1       4.927  32.771  61.252  1.00  0.00     0.280 HD
BRANCH  15  18
HETATM   18  C   UNL     1       5.007  34.749  61.794  1.00  0.00     0.273 C 
BRANCH  18  19
HETATM   19  C   UNL     1       5.843  34.278  62.952  1.00  0.00    -0.033 A 
HETATM   20  C   UNL     1       6.950  33.440  62.745  1.00  0.00     0.009 A 
HETATM   21  C   UNL     1       7.704  32.991  63.831  1.00  0.00     0.001 A 
HETATM   22  C   UNL     1       7.367  33.378  65.126  1.00  0.00     0.000 A 
HETATM   23  C   UNL     1       6.279  34.219  65.341  1.00  0.00     0.001 A 
HETATM   24  C   UNL     1       5.518  34.667  64.261  1.00  0.00     0.009 A 
ENDBRANCH  18  19
ENDBRANCH  15  18
ENDBRANCH  14  15
ENDBRANCH  12  14
ENDBRANCH   1   9
BRANCH   4  25
HETATM   25  N   UNL     1       5.541  25.704  55.122  1.00  0.00    -0.062 N 
HETATM   26  H   UNL     1       5.489  25.163  56.001  1.00  0.00     0.278 HD
HETATM   27  H   UNL     1       4.668  25.476  54.625  1.00  0.00     0.278 HD
BRANCH  25  28
HETATM   28  C   UNL     1       6.678  25.131  54.339  1.00  0.00     0.273 C 
BRANCH  28  29
HETATM   29  C   UNL     1       7.265  23.992  55.080  1.00  0.00    -0.005 A 
HETATM   30  C   UNL     1       7.683  22.742  54.516  1.00  0.00    -0.000 A 
HETATM   31  C   UNL     1       8.157  21.954  55.565  1.00  0.00     0.043 A 
HETATM   32  C   UNL     1       7.703  22.207  53.210  1.00  0.00     0.014 A 
HETATM   33  C   UNL     1       8.647  20.658  55.376  1.00  0.00     0.030 A 
HETATM   34  N   UNL     1       8.054  22.696  56.718  1.00  0.00    -0.365 N 
HETATM   35  C   UNL     1       8.652  20.149  54.075  1.00  0.00     0.002 A 
HETATM   36  C   UNL     1       8.188  20.911  53.006  1.00  0.00     0.001 A 
HETATM   37  H   UNL     1       8.352  22.374  57.632  1.00  0.00     0.165 HD
HETATM   38  C   UNL     1       7.499  23.920  56.440  1.00  0.00     0.098 A 
ENDBRANCH  28  29
ENDBRANCH  25  28
ENDBRANCH   4  25
TORSDOF 8
ENDMDL
MODEL 5
REMARK VINA RESULT:     -10.0      2.086      2.962
REMARK  8 active torsions:
REMARK  status: ('A' for Active; 'I' for Inactive)
REMARK    1  A    between atoms: N_2  and  C_4 
REMARK    2  A    between atoms: N_2  and  C_32 
REMARK    3  A    between atoms: C_4  and  C_5 
REMARK    4  A    between atoms: N_8  and  C_9 
REMARK    5  A    between atoms: C_12  and  N_13 
REMARK    6  A    between atoms: N_13  and  C_16 
REMARK    7  A    between atoms: C_16  and  C_17 
REMARK    8  A    between atoms: C_32  and  C_33 
ROOT
HETATM    1  C   UNL     1       5.238  29.939  57.467  1.00  0.00     0.161 C 
HETATM    2  C   UNL     1       6.645  29.701  56.941  1.00  0.00     0.179 C 
HETATM    3  C   UNL     1       6.473  28.529  55.983  1.00  0.00     0.185 C 
HETATM    4  C   UNL     1       7.019  27.343  56.769  1.00  0.00     0.241 C 
HETATM    5  C   UNL     1       8.103  28.009  57.599  1.00  0.00     0.204 C 
HETATM    6  O   UNL     1       7.555  29.286  57.973  1.00  0.00    -0.379 OA
HETATM    7  O   UNL     1       5.080  28.358  55.712  1.00  0.00    -0.379 OA
HETATM    8  C   UNL     1       4.392  29.498  56.279  1.00  0.00     0.198 C 
ENDROOT
BRANCH   1   9
HETATM    9  N   UNL     1       5.017  31.281  57.939  1.00  0.00    -0.274 N 
HETATM   10  N   UNL     1       5.812  32.297  57.568  1.00  0.00     0.005 NA
HETATM   11  N   UNL     1       5.377  33.397  58.165  1.00  0.00    -0.161 NA
HETATM   12  C   UNL     1       4.291  33.064  58.933  1.00  0.00     0.095 A 
HETATM   13  C   UNL     1       4.042  31.716  58.794  1.00  0.00     0.139 A 
BRANCH  12  14
HETATM   14  C   UNL     1       3.583  34.107  59.721  1.00  0.00     0.296 C 
BRANCH  14  15
HETATM   15  N   UNL     1       3.759  33.975  61.219  1.00  0.00    -0.066 N 
HETATM   16  C   UNL     1       2.458  34.153  61.946  1.00  0.00     0.270 C 
HETATM   17  H   UNL     1       4.073  33.008  61.379  1.00  0.00     0.280 HD
BRANCH  15  18
HETATM   18  C   UNL     1       4.864  34.865  61.748  1.00  0.00     0.273 C 
BRANCH  18  19
HETATM   19  C   UNL     1       5.945  34.130  62.491  1.00  0.00    -0.033 A 
HETATM   20  C   UNL     1       6.176  34.378  63.853  1.00  0.00     0.009 A 
HETATM   21  C   UNL     1       7.198  33.707  64.527  1.00  0.00     0.001 A 
HETATM   22  C   UNL     1       7.989  32.778  63.853  1.00  0.00     0.000 A 
HETATM   23  C   UNL     1       7.759  32.515  62.505  1.00  0.00     0.001 A 
HETATM   24  C   UNL     1       6.744  33.187  61.826  1.00  0.00     0.009 A 
ENDBRANCH  18  19
ENDBRANCH  15  18
ENDBRANCH  14  15
ENDBRANCH  12  14
ENDBRANCH   1   9
BRANCH   4  25
HETATM   25  N   UNL     1       7.503  26.259  55.873  1.00  0.00    -0.062 N 
HETATM   26  H   UNL     1       7.683  26.648  54.933  1.00  0.00     0.278 HD
HETATM   27  H   UNL     1       8.409  25.870  56.171  1.00  0.00     0.278 HD
BRANCH  25  28
HETATM   28  C   UNL     1       6.554  25.119  55.684  1.00  0.00     0.273 C 
BRANCH  28  29
HETATM   29  C   UNL     1       7.012  24.275  54.559  1.00  0.00    -0.005 A 
HETATM   30  C   UNL     1       7.428  22.906  54.643  1.00  0.00    -0.000 A 
HETATM   31  C   UNL     1       7.792  22.505  53.358  1.00  0.00     0.043 A 
HETATM   32  C   UNL     1       7.527  21.969  55.694  1.00  0.00     0.014 A 
HETATM   33  C   UNL     1       8.255  21.217  53.070  1.00  0.00     0.030 A 
HETATM   34  N   UNL     1       7.589  23.575  52.519  1.00  0.00    -0.365 N 
HETATM   35  C   UNL     1       8.349  20.309  54.128  1.00  0.00     0.002 A 
HETATM   36  C   UNL     1       7.990  20.677  55.421  1.00  0.00     0.001 A 
HETATM   37  H   UNL     1       7.751  23.554  51.518  1.00  0.00     0.165 HD
HETATM   38  C   UNL     1       7.137  24.654  53.235  1.00  0.00     0.098 A 
ENDBRANCH  28  29
ENDBRANCH  25  28
ENDBRANCH   4  25
TORSDOF 8
ENDMDL
MODEL 6
REMARK VINA RESULT:     -10.0      1.675     11.239
REMARK  8 active torsions:
REMARK  status: ('A' for Active; 'I' for Inactive)
REMARK    1  A    between atoms: N_2  and  C_4 
REMARK    2  A    between atoms: N_2  and  C_32 
REMARK    3  A    between atoms: C_4  and  C_5 
REMARK    4  A    between atoms: N_8  and  C_9 
REMARK    5  A    between atoms: C_12  and  N_13 
REMARK    6  A    between atoms: N_13  and  C_16 
REMARK    7  A    between atoms: C_16  and  C_17 
REMARK    8  A    between atoms: C_32  and  C_33 
ROOT
HETATM    1  C   UNL     1       6.435  29.649  56.026  1.00  0.00     0.161 C 
HETATM    2  C   UNL     1       6.647  29.336  57.499  1.00  0.00     0.179 C 
HETATM    3  C   UNL     1       6.416  30.677  58.184  1.00  0.00     0.185 C 
HETATM    4  C   UNL     1       7.825  31.155  58.516  1.00  0.00     0.241 C 
HETATM    5  C   UNL     1       8.536  29.837  58.765  1.00  0.00     0.204 C 
HETATM    6  O   UNL     1       7.995  28.930  57.787  1.00  0.00    -0.379 OA
HETATM    7  O   UNL     1       5.785  31.564  57.257  1.00  0.00    -0.379 OA
HETATM    8  C   UNL     1       5.414  30.778  56.100  1.00  0.00     0.198 C 
ENDROOT
BRANCH   1   9
HETATM    9  N   UNL     1       6.057  28.502  55.241  1.00  0.00    -0.274 N 
HETATM   10  N   UNL     1       5.158  28.594  54.249  1.00  0.00     0.005 NA
HETATM   11  N   UNL     1       5.004  27.388  53.722  1.00  0.00    -0.161 NA
HETATM   12  C   UNL     1       5.818  26.520  54.402  1.00  0.00     0.095 A 
HETATM   13  C   UNL     1       6.505  27.217  55.371  1.00  0.00     0.139 A 
BRANCH  12  14
HETATM   14  C   UNL     1       5.861  25.082  54.023  1.00  0.00     0.296 C 
BRANCH  14  15
HETATM   15  N   UNL     1       7.238  24.587  53.637  1.00  0.00    -0.066 N 
HETATM   16  C   UNL     1       7.872  25.469  52.601  1.00  0.00     0.270 C 
HETATM   17  H   UNL     1       7.808  24.654  54.491  1.00  0.00     0.280 HD
BRANCH  15  18
HETATM   18  C   UNL     1       7.234  23.122  53.251  1.00  0.00     0.273 C 
BRANCH  18  19
HETATM   19  C   UNL     1       7.756  22.203  54.321  1.00  0.00    -0.033 A 
HETATM   20  C   UNL     1       7.998  20.848  54.047  1.00  0.00     0.009 A 
HETATM   21  C   UNL     1       8.460  19.998  55.054  1.00  0.00     0.001 A 
HETATM   22  C   UNL     1       8.693  20.493  56.335  1.00  0.00     0.000 A 
HETATM   23  C   UNL     1       8.468  21.839  56.614  1.00  0.00     0.001 A 
HETATM   24  C   UNL     1       8.001  22.691  55.614  1.00  0.00     0.009 A 
ENDBRANCH  18  19
ENDBRANCH  15  18
ENDBRANCH  14  15
ENDBRANCH  12  14
ENDBRANCH   1   9
BRANCH   4  25
HETATM   25  N   UNL     1       7.834  32.093  59.670  1.00  0.00    -0.062 N 
HETATM   26  H   UNL     1       8.752  32.563  59.721  1.00  0.00     0.278 HD
HETATM   27  H   UNL     1       7.156  32.861  59.565  1.00  0.00     0.278 HD
BRANCH  25  28
HETATM   28  C   UNL     1       7.607  31.459  61.005  1.00  0.00     0.273 C 
BRANCH  28  29
HETATM   29  C   UNL     1       6.503  32.156  61.703  1.00  0.00    -0.005 A 
HETATM   30  C   UNL     1       6.577  32.781  62.990  1.00  0.00    -0.000 A 
HETATM   31  C   UNL     1       5.312  33.297  63.271  1.00  0.00     0.043 A 
HETATM   32  C   UNL     1       7.604  32.960  63.942  1.00  0.00     0.014 A 
HETATM   33  C   UNL     1       5.019  33.978  64.458  1.00  0.00     0.030 A 
HETATM   34  N   UNL     1       4.503  33.017  62.196  1.00  0.00    -0.365 N 
HETATM   35  C   UNL     1       6.051  34.136  65.387  1.00  0.00     0.002 A 
HETATM   36  C   UNL     1       7.325  33.637  65.134  1.00  0.00     0.001 A 
HETATM   37  H   UNL     1       3.533  33.300  62.122  1.00  0.00     0.165 HD
HETATM   38  C   UNL     1       5.206  32.312  61.251  1.00  0.00     0.098 A 
ENDBRANCH  28  29
ENDBRANCH  25  28
ENDBRANCH   4  25
TORSDOF 8
ENDMDL
MODEL 7
REMARK VINA RESULT:      -9.9      1.823      2.934
REMARK  8 active torsions:
REMARK  status: ('A' for Active; 'I' for Inactive)
REMARK    1  A    between atoms: N_2  and  C_4 
REMARK    2  A    between atoms: N_2  and  C_32 
REMARK    3  A    between atoms: C_4  and  C_5 
REMARK    4  A    between atoms: N_8  and  C_9 
REMARK    5  A    between atoms: C_12  and  N_13 
REMARK    6  A    between atoms: N_13  and  C_16 
REMARK    7  A    between atoms: C_16  and  C_17 
REMARK    8  A    between atoms: C_32  and  C_33 
ROOT
HETATM    1  C   UNL     1       6.707  28.013  56.728  1.00  0.00     0.161 C 
HETATM    2  C   UNL     1       6.433  28.064  55.233  1.00  0.00     0.179 C 
HETATM    3  C   UNL     1       5.960  26.652  54.911  1.00  0.00     0.185 C 
HETATM    4  C   UNL     1       7.171  26.014  54.241  1.00  0.00     0.241 C 
HETATM    5  C   UNL     1       7.793  27.212  53.546  1.00  0.00     0.204 C 
HETATM    6  O   UNL     1       7.623  28.307  54.464  1.00  0.00    -0.379 OA
HETATM    7  O   UNL     1       5.646  25.982  56.134  1.00  0.00    -0.379 OA
HETATM    8  C   UNL     1       5.692  26.973  57.187  1.00  0.00     0.198 C 
ENDROOT
BRANCH   1   9
HETATM    9  N   UNL     1       6.633  29.299  57.372  1.00  0.00    -0.274 N 
HETATM   10  N   UNL     1       7.691  29.834  57.999  1.00  0.00     0.005 NA
HETATM   11  N   UNL     1       7.322  31.003  58.502  1.00  0.00    -0.161 NA
HETATM   12  C   UNL     1       6.002  31.203  58.190  1.00  0.00     0.095 A 
HETATM   13  C   UNL     1       5.548  30.127  57.460  1.00  0.00     0.139 A 
BRANCH  12  14
HETATM   14  C   UNL     1       5.311  32.447  58.622  1.00  0.00     0.296 C 
BRANCH  14  15
HETATM   15  N   UNL     1       4.807  32.409  60.049  1.00  0.00    -0.066 N 
HETATM   16  C   UNL     1       3.347  32.066  60.111  1.00  0.00     0.270 C 
HETATM   17  H   UNL     1       5.324  31.646  60.507  1.00  0.00     0.280 HD
BRANCH  15  18
HETATM   18  C   UNL     1       5.157  33.668  60.815  1.00  0.00     0.273 C 
BRANCH  18  19
HETATM   19  C   UNL     1       6.086  33.445  61.976  1.00  0.00    -0.033 A 
HETATM   20  C   UNL     1       5.924  34.159  63.173  1.00  0.00     0.009 A 
HETATM   21  C   UNL     1       6.807  33.961  64.236  1.00  0.00     0.001 A 
HETATM   22  C   UNL     1       7.850  33.044  64.118  1.00  0.00     0.000 A 
HETATM   23  C   UNL     1       8.012  32.321  62.939  1.00  0.00     0.001 A 
HETATM   24  C   UNL     1       7.136  32.519  61.872  1.00  0.00     0.009 A 
ENDBRANCH  18  19
ENDBRANCH  15  18
ENDBRANCH  14  15
ENDBRANCH  12  14
ENDBRANCH   1   9
BRANCH   4  25
HETATM   25  N   UNL     1       6.781  24.903  53.332  1.00  0.00    -0.062 N 
HETATM   26  H   UNL     1       6.186  24.234  53.846  1.00  0.00     0.278 HD
HETATM   27  H   UNL     1       6.196  25.219  52.545  1.00  0.00     0.278 HD
BRANCH  25  28
HETATM   28  C   UNL     1       7.919  24.112  52.770  1.00  0.00     0.273 C 
BRANCH  28  29
HETATM   29  C   UNL     1       7.910  22.751  53.350  1.00  0.00    -0.005 A 
HETATM   30  C   UNL     1       8.072  22.421  54.735  1.00  0.00    -0.000 A 
HETATM   31  C   UNL     1       8.017  21.031  54.838  1.00  0.00     0.043 A 
HETATM   32  C   UNL     1       8.257  23.176  55.913  1.00  0.00     0.014 A 
HETATM   33  C   UNL     1       8.143  20.356  56.057  1.00  0.00     0.030 A 
HETATM   34  N   UNL     1       7.811  20.532  53.573  1.00  0.00    -0.365 N 
HETATM   35  C   UNL     1       8.332  21.125  57.207  1.00  0.00     0.002 A 
HETATM   36  C   UNL     1       8.387  22.515  57.140  1.00  0.00     0.001 A 
HETATM   37  H   UNL     1       7.707  19.546  53.359  1.00  0.00     0.165 HD
HETATM   38  C   UNL     1       7.765  21.559  52.665  1.00  0.00     0.098 A 
ENDBRANCH  28  29
ENDBRANCH  25  28
ENDBRANCH   4  25
TORSDOF 8
ENDMDL
MODEL 8
REMARK VINA RESULT:      -9.6      1.954      2.618
REMARK  8 active torsions:
REMARK  status: ('A' for Active; 'I' for Inactive)
REMARK    1  A    between atoms: N_2  and  C_4 
REMARK    2  A    between atoms: N_2  and  C_32 
REMARK    3  A    between atoms: C_4  and  C_5 
REMARK    4  A    between atoms: N_8  and  C_9 
REMARK    5  A    between atoms: C_12  and  N_13 
REMARK    6  A    between atoms: N_13  and  C_16 
REMARK    7  A    between atoms: C_16  and  C_17 
REMARK    8  A    between atoms: C_32  and  C_33 
ROOT
HETATM    1  C   UNL     1       4.881  29.398  57.022  1.00  0.00     0.161 C 
HETATM    2  C   UNL     1       6.370  29.133  56.860  1.00  0.00     0.179 C 
HETATM    3  C   UNL     1       6.457  28.402  55.526  1.00  0.00     0.185 C 
HETATM    4  C   UNL     1       6.670  26.947  55.929  1.00  0.00     0.241 C 
HETATM    5  C   UNL     1       7.463  27.107  57.214  1.00  0.00     0.204 C 
HETATM    6  O   UNL     1       6.884  28.250  57.871  1.00  0.00    -0.379 OA
HETATM    7  O   UNL     1       5.216  28.559  54.834  1.00  0.00    -0.379 OA
HETATM    8  C   UNL     1       4.437  29.531  55.570  1.00  0.00     0.198 C 
ENDROOT
BRANCH   1   9
HETATM    9  N   UNL     1       4.584  30.516  57.881  1.00  0.00    -0.274 N 
HETATM   10  N   UNL     1       3.331  30.785  58.277  1.00  0.00     0.005 NA
HETATM   11  N   UNL     1       3.367  31.868  59.040  1.00  0.00    -0.161 NA
HETATM   12  C   UNL     1       4.668  32.291  59.119  1.00  0.00     0.095 A 
HETATM   13  C   UNL     1       5.462  31.433  58.390  1.00  0.00     0.139 A 
BRANCH  12  14
HETATM   14  C   UNL     1       5.017  33.493  59.921  1.00  0.00     0.296 C 
BRANCH  14  15
HETATM   15  N   UNL     1       5.994  33.223  61.045  1.00  0.00    -0.066 N 
HETATM   16  C   UNL     1       7.275  32.630  60.533  1.00  0.00     0.270 C 
HETATM   17  H   UNL     1       6.218  34.143  61.447  1.00  0.00     0.280 HD
BRANCH  15  18
HETATM   18  C   UNL     1       5.371  32.418  62.166  1.00  0.00     0.273 C 
BRANCH  18  19
HETATM   19  C   UNL     1       5.619  32.979  63.539  1.00  0.00    -0.033 A 
HETATM   20  C   UNL     1       4.551  33.398  64.348  1.00  0.00     0.009 A 
HETATM   21  C   UNL     1       4.796  33.940  65.611  1.00  0.00     0.001 A 
HETATM   22  C   UNL     1       6.102  34.059  66.081  1.00  0.00     0.000 A 
HETATM   23  C   UNL     1       7.168  33.635  65.292  1.00  0.00     0.001 A 
HETATM   24  C   UNL     1       6.930  33.098  64.026  1.00  0.00     0.009 A 
ENDBRANCH  18  19
ENDBRANCH  15  18
ENDBRANCH  14  15
ENDBRANCH  12  14
ENDBRANCH   1   9
BRANCH   4  25
HETATM   25  N   UNL     1       7.362  26.173  54.865  1.00  0.00    -0.062 N 
HETATM   26  H   UNL     1       7.423  26.747  54.009  1.00  0.00     0.278 HD
HETATM   27  H   UNL     1       8.341  25.957  55.103  1.00  0.00     0.278 HD
BRANCH  25  28
HETATM   28  C   UNL     1       6.694  24.895  54.472  1.00  0.00     0.273 C 
BRANCH  28  29
HETATM   29  C   UNL     1       7.372  23.757  55.133  1.00  0.00    -0.005 A 
HETATM   30  C   UNL     1       7.774  22.533  54.506  1.00  0.00    -0.000 A 
HETATM   31  C   UNL     1       8.357  21.736  55.491  1.00  0.00     0.043 A 
HETATM   32  C   UNL     1       7.699  22.028  53.190  1.00  0.00     0.014 A 
HETATM   33  C   UNL     1       8.864  20.459  55.231  1.00  0.00     0.030 A 
HETATM   34  N   UNL     1       8.331  22.449  56.667  1.00  0.00    -0.365 N 
HETATM   35  C   UNL     1       8.773  19.979  53.922  1.00  0.00     0.002 A 
HETATM   36  C   UNL     1       8.200  20.751  52.914  1.00  0.00     0.001 A 
HETATM   37  H   UNL     1       8.713  22.116  57.545  1.00  0.00     0.165 HD
HETATM   38  C   UNL     1       7.721  23.662  56.467  1.00  0.00     0.098 A 
ENDBRANCH  28  29
ENDBRANCH  25  28
ENDBRANCH   4  25
TORSDOF 8
ENDMDL
MODEL 9
REMARK VINA RESULT:      -9.5      5.726      9.466
REMARK  8 active torsions:
REMARK  status: ('A' for Active; 'I' for Inactive)
REMARK    1  A    between atoms: N_2  and  C_4 
REMARK    2  A    between atoms: N_2  and  C_32 
REMARK    3  A    between atoms: C_4  and  C_5 
REMARK    4  A    between atoms: N_8  and  C_9 
REMARK    5  A    between atoms: C_12  and  N_13 
REMARK    6  A    between atoms: N_13  and  C_16 
REMARK    7  A    between atoms: C_16  and  C_17 
REMARK    8  A    between atoms: C_32  and  C_33 
ROOT
HETATM    1  C   UNL     1       5.515  27.141  54.293  1.00  0.00     0.161 C 
HETATM    2  C   UNL     1       5.511  27.290  55.807  1.00  0.00     0.179 C 
HETATM    3  C   UNL     1       6.856  26.708  56.224  1.00  0.00     0.185 C 
HETATM    4  C   UNL     1       6.493  25.335  56.780  1.00  0.00     0.241 C 
HETATM    5  C   UNL     1       5.118  25.604  57.364  1.00  0.00     0.204 C 
HETATM    6  O   UNL     1       4.486  26.503  56.434  1.00  0.00    -0.379 OA
HETATM    7  O   UNL     1       7.683  26.583  55.065  1.00  0.00    -0.379 OA
HETATM    8  C   UNL     1       7.003  27.258  53.981  1.00  0.00     0.198 C 
ENDROOT
BRANCH   1   9
HETATM    9  N   UNL     1       4.650  28.074  53.619  1.00  0.00    -0.274 N 
HETATM   10  N   UNL     1       4.192  29.177  54.231  1.00  0.00     0.005 NA
HETATM   11  N   UNL     1       3.417  29.828  53.376  1.00  0.00    -0.161 NA
HETATM   12  C   UNL     1       3.383  29.117  52.205  1.00  0.00     0.095 A 
HETATM   13  C   UNL     1       4.174  27.996  52.340  1.00  0.00     0.139 A 
BRANCH  12  14
HETATM   14  C   UNL     1       2.590  29.614  51.050  1.00  0.00     0.296 C 
BRANCH  14  15
HETATM   15  N   UNL     1       3.425  30.230  49.948  1.00  0.00    -0.066 N 
HETATM   16  C   UNL     1       3.567  31.714  50.126  1.00  0.00     0.270 C 
HETATM   17  H   UNL     1       4.362  29.816  50.043  1.00  0.00     0.280 HD
BRANCH  15  18
HETATM   18  C   UNL     1       2.934  29.839  48.569  1.00  0.00     0.273 C 
BRANCH  18  19
HETATM   19  C   UNL     1       3.115  28.383  48.241  1.00  0.00    -0.033 A 
HETATM   20  C   UNL     1       4.393  27.803  48.230  1.00  0.00     0.009 A 
HETATM   21  C   UNL     1       4.551  26.455  47.901  1.00  0.00     0.001 A 
HETATM   22  C   UNL     1       3.439  25.675  47.590  1.00  0.00     0.000 A 
HETATM   23  C   UNL     1       2.165  26.238  47.610  1.00  0.00     0.001 A 
HETATM   24  C   UNL     1       2.002  27.585  47.933  1.00  0.00     0.009 A 
ENDBRANCH  18  19
ENDBRANCH  15  18
ENDBRANCH  14  15
ENDBRANCH  12  14
ENDBRANCH   1   9
BRANCH   4  25
HETATM   25  N   UNL     1       7.500  24.851  57.762  1.00  0.00    -0.062 N 
HETATM   26  H   UNL     1       7.786  25.633  58.372  1.00  0.00     0.278 HD
HETATM   27  H   UNL     1       7.119  24.144  58.407  1.00  0.00     0.278 HD
BRANCH  25  28
HETATM   28  C   UNL     1       8.755  24.299  57.165  1.00  0.00     0.273 C 
BRANCH  28  29
HETATM   29  C   UNL     1       8.501  22.934  56.652  1.00  0.00    -0.005 A 
HETATM   30  C   UNL     1       8.305  22.570  55.280  1.00  0.00    -0.000 A 
HETATM   31  C   UNL     1       8.081  21.194  55.246  1.00  0.00     0.043 A 
HETATM   32  C   UNL     1       8.299  23.283  54.062  1.00  0.00     0.014 A 
HETATM   33  C   UNL     1       7.846  20.494  54.058  1.00  0.00     0.030 A 
HETATM   34  N   UNL     1       8.156  20.731  56.539  1.00  0.00    -0.365 N 
HETATM   35  C   UNL     1       7.840  21.222  52.866  1.00  0.00     0.002 A 
HETATM   36  C   UNL     1       8.064  22.597  52.865  1.00  0.00     0.001 A 
HETATM   37  H   UNL     1       8.055  19.758  56.804  1.00  0.00     0.165 HD
HETATM   38  C   UNL     1       8.390  21.776  57.398  1.00  0.00     0.098 A 
ENDBRANCH  28  29
ENDBRANCH  25  28
ENDBRANCH   4  25
TORSDOF 8
ENDMDL
MODEL 10
REMARK VINA RESULT:      -9.2      6.572     10.304
REMARK  8 active torsions:
REMARK  status: ('A' for Active; 'I' for Inactive)
REMARK    1  A    between atoms: N_2  and  C_4 
REMARK    2  A    between atoms: N_2  and  C_32 
REMARK    3  A    between atoms: C_4  and  C_5 
REMARK    4  A    between atoms: N_8  and  C_9 
REMARK    5  A    between atoms: C_12  and  N_13 
REMARK    6  A    between atoms: N_13  and  C_16 
REMARK    7  A    between atoms: C_16  and  C_17 
REMARK    8  A    between atoms: C_32  and  C_33 
ROOT
HETATM    1  C   UNL     1       5.395  28.907  52.410  1.00  0.00     0.161 C 
HETATM    2  C   UNL     1       4.986  27.446  52.290  1.00  0.00     0.179 C 
HETATM    3  C   UNL     1       5.091  26.929  53.719  1.00  0.00     0.185 C 
HETATM    4  C   UNL     1       6.390  26.130  53.714  1.00  0.00     0.241 C 
HETATM    5  C   UNL     1       6.411  25.605  52.290  1.00  0.00     0.204 C 
HETATM    6  O   UNL     1       5.902  26.684  51.486  1.00  0.00    -0.379 OA
HETATM    7  O   UNL     1       5.187  28.046  54.606  1.00  0.00    -0.379 OA
HETATM    8  C   UNL     1       4.929  29.235  53.824  1.00  0.00     0.198 C 
ENDROOT
BRANCH   1   9
HETATM    9  N   UNL     1       4.870  29.741  51.360  1.00  0.00    -0.274 N 
HETATM   10  N   UNL     1       3.655  30.302  51.448  1.00  0.00     0.005 NA
HETATM   11  N   UNL     1       3.442  30.994  50.338  1.00  0.00    -0.161 NA
HETATM   12  C   UNL     1       4.544  30.860  49.535  1.00  0.00     0.095 A 
HETATM   13  C   UNL     1       5.471  30.069  50.176  1.00  0.00     0.139 A 
BRANCH  12  14
HETATM   14  C   UNL     1       4.594  31.540  48.213  1.00  0.00     0.296 C 
BRANCH  14  15
HETATM   15  N   UNL     1       4.482  30.602  47.031  1.00  0.00    -0.066 N 
HETATM   16  C   UNL     1       4.809  31.296  45.741  1.00  0.00     0.270 C 
HETATM   17  H   UNL     1       5.197  29.877  47.182  1.00  0.00     0.280 HD
BRANCH  15  18
HETATM   18  C   UNL     1       3.153  29.877  46.998  1.00  0.00     0.273 C 
BRANCH  18  19
HETATM   19  C   UNL     1       3.254  28.395  47.232  1.00  0.00    -0.033 A 
HETATM   20  C   UNL     1       2.119  27.574  47.138  1.00  0.00     0.009 A 
HETATM   21  C   UNL     1       2.221  26.203  47.381  1.00  0.00     0.001 A 
HETATM   22  C   UNL     1       3.452  25.639  47.710  1.00  0.00     0.000 A 
HETATM   23  C   UNL     1       4.586  26.443  47.794  1.00  0.00     0.001 A 
HETATM   24  C   UNL     1       4.490  27.814  47.557  1.00  0.00     0.009 A 
ENDBRANCH  18  19
ENDBRANCH  15  18
ENDBRANCH  14  15
ENDBRANCH  12  14
ENDBRANCH   1   9
BRANCH   4  25
HETATM   25  N   UNL     1       6.396  25.076  54.764  1.00  0.00    -0.062 N 
HETATM   26  H   UNL     1       5.628  25.254  55.431  1.00  0.00     0.278 HD
HETATM   27  H   UNL     1       6.200  24.138  54.387  1.00  0.00     0.278 HD
BRANCH  25  28
HETATM   28  C   UNL     1       7.650  24.993  55.573  1.00  0.00     0.273 C 
BRANCH  28  29
HETATM   29  C   UNL     1       7.996  23.572  55.805  1.00  0.00    -0.005 A 
HETATM   30  C   UNL     1       8.113  22.556  54.802  1.00  0.00    -0.000 A 
HETATM   31  C   UNL     1       8.435  21.367  55.455  1.00  0.00     0.043 A 
HETATM   32  C   UNL     1       7.976  22.537  53.398  1.00  0.00     0.014 A 
HETATM   33  C   UNL     1       8.624  20.158  54.777  1.00  0.00     0.030 A 
HETATM   34  N   UNL     1       8.532  21.646  56.798  1.00  0.00    -0.365 N 
HETATM   35  C   UNL     1       8.477  20.163  53.388  1.00  0.00     0.002 A 
HETATM   36  C   UNL     1       8.159  21.334  52.706  1.00  0.00     0.001 A 
HETATM   37  H   UNL     1       8.780  20.964  57.506  1.00  0.00     0.165 HD
HETATM   38  C   UNL     1       8.250  22.970  57.023  1.00  0.00     0.098 A 
ENDBRANCH  28  29
ENDBRANCH  25  28
ENDBRANCH   4  25
TORSDOF 8
ENDMDL
