MODEL 1
REMARK VINA RESULT:     -10.5      0.000      0.000
REMARK  5 active torsions:
REMARK  status: ('A' for Active; 'I' for Inactive)
REMARK    1  A    between atoms: C_5  and  N_6 
REMARK       I    between atoms: N_6  and  C_7 
REMARK       I    between atoms: C_7  and  N_8 
REMARK    2  A    between atoms: N_8  and  C_9 
REMARK    3  A    between atoms: C_11  and  C_12 
REMARK       I    between atoms: C_12  and  N_13 
REMARK    4  A    between atoms: N_13  and  C_14 
REMARK    5  A    between atoms: C_14  and  C_15 
ROOT
HETATM    1  C   UNL     1       7.462  29.641  57.494  1.00  0.00     0.175 A 
HETATM    2  S   UNL     1       7.938  28.034  57.745  1.00  0.00    -0.044 SA
HETATM    3  C   UNL     1       6.402  27.499  57.164  1.00  0.00     0.100 A 
HETATM    4  C   UNL     1       5.617  28.609  56.868  1.00  0.00     0.056 A 
HETATM    5  C   UNL     1       4.237  28.647  56.309  1.00  0.00     0.072 C 
HETATM    6  N   UNL     1       6.239  29.838  57.071  1.00  0.00    -0.228 NA
ENDROOT
BRANCH   1   7
HETATM    7  N   UNL     1       8.424  30.576  57.733  1.00  0.00    -0.287 N 
HETATM    8  C   UNL     1       8.547  31.342  58.859  1.00  0.00     0.326 C 
HETATM    9  N   UNL     1       7.645  31.109  59.863  1.00  0.00    -0.309 N 
HETATM   10  O   UNL     1       9.441  32.188  58.873  1.00  0.00    -0.247 OA
HETATM   11  H   UNL     1       7.035  30.311  59.711  1.00  0.00     0.170 HD
HETATM   12  H   UNL     1       9.060  30.805  56.985  1.00  0.00     0.172 HD
BRANCH   9  13
HETATM   13  C   UNL     1       7.452  31.832  61.055  1.00  0.00     0.036 A 
HETATM   14  C   UNL     1       6.421  32.749  61.257  1.00  0.00     0.030 A 
HETATM   15  C   UNL     1       6.278  33.398  62.489  1.00  0.00     0.009 A 
HETATM   16  C   UNL     1       7.163  33.139  63.540  1.00  0.00    -0.062 A 
HETATM   17  C   UNL     1       7.006  33.853  64.850  1.00  0.00     0.048 C 
HETATM   18  C   UNL     1       8.208  32.233  63.335  1.00  0.00     0.009 A 
HETATM   19  C   UNL     1       8.345  31.582  62.104  1.00  0.00     0.030 A 
ENDBRANCH   9  13
ENDBRANCH   1   7
BRANCH   3  20
HETATM   20  C   UNL     1       6.178  26.070  57.013  1.00  0.00     0.260 C 
HETATM   21  N   UNL     1       7.290  25.318  56.701  1.00  0.00    -0.352 N 
HETATM   22  H   UNL     1       8.129  25.768  56.370  1.00  0.00     0.163 HD
HETATM   23  O   UNL     1       5.079  25.537  57.161  1.00  0.00    -0.267 OA
BRANCH  21  24
HETATM   24  C   UNL     1       7.257  23.874  56.649  1.00  0.00     0.163 C 
BRANCH  24  25
HETATM   25  C   UNL     1       7.565  23.343  55.274  1.00  0.00    -0.019 A 
HETATM   26  C   UNL     1       7.761  21.977  55.016  1.00  0.00     0.042 A 
HETATM   27 CL   UNL     1       7.718  20.800  56.283  1.00  0.00    -0.084 Cl
HETATM   28  C   UNL     1       8.003  21.524  53.716  1.00  0.00     0.024 A 
HETATM   29  C   UNL     1       8.059  22.431  52.657  1.00  0.00     0.002 A 
HETATM   30  C   UNL     1       7.885  23.790  52.900  1.00  0.00     0.001 A 
HETATM   31  C   UNL     1       7.646  24.244  54.198  1.00  0.00     0.010 A 
ENDBRANCH  24  25
ENDBRANCH  21  24
ENDBRANCH   3  20
TORSDOF 5
ENDMDL
MODEL 2
REMARK VINA RESULT:     -10.5      3.158     10.309
REMARK  5 active torsions:
REMARK  status: ('A' for Active; 'I' for Inactive)
REMARK    1  A    between atoms: C_5  and  N_6 
REMARK       I    between atoms: N_6  and  C_7 
REMARK       I    between atoms: C_7  and  N_8 
REMARK    2  A    between atoms: N_8  and  C_9 
REMARK    3  A    between atoms: C_11  and  C_12 
REMARK       I    between atoms: C_12  and  N_13 
REMARK    4  A    between atoms: N_13  and  C_14 
REMARK    5  A    between atoms: C_14  and  C_15 
ROOT
HETATM    1  C   UNL     1       7.216  28.858  56.006  1.00  0.00     0.175 A 
HETATM    2  S   UNL     1       6.645  29.689  57.368  1.00  0.00    -0.044 SA
HETATM    3  C   UNL     1       8.268  30.113  57.778  1.00  0.00     0.100 A 
HETATM    4  C   UNL     1       9.135  29.534  56.856  1.00  0.00     0.056 A 
HETATM    5  C   UNL     1      10.618  29.647  56.779  1.00  0.00     0.072 C 
HETATM    6  N   UNL     1       8.514  28.807  55.845  1.00  0.00    -0.228 NA
ENDROOT
BRANCH   1   7
HETATM    7  N   UNL     1       6.251  28.346  55.191  1.00  0.00    -0.287 N 
HETATM    8  C   UNL     1       6.195  27.069  54.705  1.00  0.00     0.326 C 
HETATM    9  N   UNL     1       7.178  26.210  55.120  1.00  0.00    -0.309 N 
HETATM   10  O   UNL     1       5.284  26.801  53.923  1.00  0.00    -0.247 OA
HETATM   11  H   UNL     1       7.794  26.582  55.837  1.00  0.00     0.170 HD
HETATM   12  H   UNL     1       5.555  28.977  54.826  1.00  0.00     0.172 HD
BRANCH   9  13
HETATM   13  C   UNL     1       7.442  24.900  54.678  1.00  0.00     0.036 A 
HETATM   14  C   UNL     1       7.385  23.772  55.496  1.00  0.00     0.030 A 
HETATM   15  C   UNL     1       7.625  22.498  54.966  1.00  0.00     0.009 A 
HETATM   16  C   UNL     1       7.923  22.331  53.611  1.00  0.00    -0.062 A 
HETATM   17  C   UNL     1       8.192  20.962  53.061  1.00  0.00     0.048 C 
HETATM   18  C   UNL     1       7.997  23.463  52.793  1.00  0.00     0.009 A 
HETATM   19  C   UNL     1       7.752  24.734  53.322  1.00  0.00     0.030 A 
ENDBRANCH   9  13
ENDBRANCH   1   7
BRANCH   3  20
HETATM   20  C   UNL     1       8.488  31.003  58.907  1.00  0.00     0.260 C 
HETATM   21  N   UNL     1       7.782  30.704  60.053  1.00  0.00    -0.352 N 
HETATM   22  H   UNL     1       7.002  30.066  60.015  1.00  0.00     0.163 HD
HETATM   23  O   UNL     1       9.259  31.960  58.875  1.00  0.00    -0.267 OA
BRANCH  21  24
HETATM   24  C   UNL     1       7.991  31.411  61.296  1.00  0.00     0.163 C 
BRANCH  24  25
HETATM   25  C   UNL     1       6.951  32.473  61.532  1.00  0.00    -0.019 A 
HETATM   26  C   UNL     1       6.916  33.252  62.700  1.00  0.00     0.042 A 
HETATM   27 CL   UNL     1       8.044  33.005  63.988  1.00  0.00    -0.084 Cl
HETATM   28  C   UNL     1       5.957  34.257  62.859  1.00  0.00     0.024 A 
HETATM   29  C   UNL     1       5.017  34.493  61.856  1.00  0.00     0.002 A 
HETATM   30  C   UNL     1       5.027  33.717  60.701  1.00  0.00     0.001 A 
HETATM   31  C   UNL     1       5.982  32.712  60.542  1.00  0.00     0.010 A 
ENDBRANCH  24  25
ENDBRANCH  21  24
ENDBRANCH   3  20
TORSDOF 5
ENDMDL
MODEL 3
REMARK VINA RESULT:     -10.1      3.275     10.009
REMARK  5 active torsions:
REMARK  status: ('A' for Active; 'I' for Inactive)
REMARK    1  A    between atoms: C_5  and  N_6 
REMARK       I    between atoms: N_6  and  C_7 
REMARK       I    between atoms: C_7  and  N_8 
REMARK    2  A    between atoms: N_8  and  C_9 
REMARK    3  A    between atoms: C_11  and  C_12 
REMARK       I    between atoms: C_12  and  N_13 
REMARK    4  A    between atoms: N_13  and  C_14 
REMARK    5  A    between atoms: C_14  and  C_15 
ROOT
HETATM    1  C   UNL     1       5.428  27.778  54.825  1.00  0.00     0.175 A 
HETATM    2  S   UNL     1       4.452  28.867  55.682  1.00  0.00    -0.044 SA
HETATM    3  C   UNL     1       5.869  29.664  56.265  1.00  0.00     0.100 A 
HETATM    4  C   UNL     1       6.993  28.993  55.793  1.00  0.00     0.056 A 
HETATM    5  C   UNL     1       8.429  29.328  56.001  1.00  0.00     0.072 C 
HETATM    6  N   UNL     1       6.722  27.902  54.971  1.00  0.00    -0.228 NA
ENDROOT
BRANCH   1   7
HETATM    7  N   UNL     1       4.757  26.889  54.040  1.00  0.00    -0.287 N 
HETATM    8  C   UNL     1       5.103  25.587  53.812  1.00  0.00     0.326 C 
HETATM    9  N   UNL     1       6.203  25.117  54.478  1.00  0.00    -0.309 N 
HETATM   10  O   UNL     1       4.414  24.950  53.015  1.00  0.00    -0.247 OA
HETATM   11  H   UNL     1       6.593  25.759  55.163  1.00  0.00     0.170 HD
HETATM   12  H   UNL     1       3.981  27.232  53.494  1.00  0.00     0.172 HD
BRANCH   9  13
HETATM   13  C   UNL     1       6.858  23.880  54.329  1.00  0.00     0.036 A 
HETATM   14  C   UNL     1       7.268  23.355  53.104  1.00  0.00     0.030 A 
HETATM   15  C   UNL     1       7.949  22.133  53.048  1.00  0.00     0.009 A 
HETATM   16  C   UNL     1       8.233  21.417  54.215  1.00  0.00    -0.062 A 
HETATM   17  C   UNL     1       8.950  20.103  54.137  1.00  0.00     0.048 C 
HETATM   18  C   UNL     1       7.807  21.934  55.442  1.00  0.00     0.009 A 
HETATM   19  C   UNL     1       7.132  23.158  55.497  1.00  0.00     0.030 A 
ENDBRANCH   9  13
ENDBRANCH   1   7
BRANCH   3  20
HETATM   20  C   UNL     1       5.708  30.874  57.055  1.00  0.00     0.260 C 
HETATM   21  N   UNL     1       6.025  30.763  58.392  1.00  0.00    -0.352 N 
HETATM   22  H   UNL     1       6.123  29.853  58.816  1.00  0.00     0.163 HD
HETATM   23  O   UNL     1       5.329  31.945  56.585  1.00  0.00    -0.267 OA
BRANCH  21  24
HETATM   24  C   UNL     1       6.045  31.904  59.279  1.00  0.00     0.163 C 
BRANCH  24  25
HETATM   25  C   UNL     1       7.276  31.936  60.145  1.00  0.00    -0.019 A 
HETATM   26  C   UNL     1       7.216  31.943  61.548  1.00  0.00     0.042 A 
HETATM   27 CL   UNL     1       5.705  31.972  62.389  1.00  0.00    -0.084 Cl
HETATM   28  C   UNL     1       8.386  31.930  62.313  1.00  0.00     0.024 A 
HETATM   29  C   UNL     1       9.632  31.917  61.687  1.00  0.00     0.002 A 
HETATM   30  C   UNL     1       9.709  31.928  60.297  1.00  0.00     0.001 A 
HETATM   31  C   UNL     1       8.541  31.944  59.532  1.00  0.00     0.010 A 
ENDBRANCH  24  25
ENDBRANCH  21  24
ENDBRANCH   3  20
TORSDOF 5
ENDMDL
MODEL 4
REMARK VINA RESULT:      -9.9      1.776      2.051
REMARK  5 active torsions:
REMARK  status: ('A' for Active; 'I' for Inactive)
REMARK    1  A    between atoms: C_5  and  N_6 
REMARK       I    between atoms: N_6  and  C_7 
REMARK       I    between atoms: C_7  and  N_8 
REMARK    2  A    between atoms: N_8  and  C_9 
REMARK    3  A    between atoms: C_11  and  C_12 
REMARK       I    between atoms: C_12  and  N_13 
REMARK    4  A    between atoms: N_13  and  C_14 
REMARK    5  A    between atoms: C_14  and  C_15 
ROOT
HETATM    1  C   UNL     1       8.444  30.038  57.738  1.00  0.00     0.175 A 
HETATM    2  S   UNL     1       8.999  28.909  56.602  1.00  0.00    -0.044 SA
HETATM    3  C   UNL     1       7.368  28.434  56.290  1.00  0.00     0.100 A 
HETATM    4  C   UNL     1       6.519  29.151  57.129  1.00  0.00     0.056 A 
HETATM    5  C   UNL     1       5.033  29.109  57.199  1.00  0.00     0.072 C 
HETATM    6  N   UNL     1       7.156  30.066  57.963  1.00  0.00    -0.228 NA
ENDROOT
BRANCH   1   7
HETATM    7  N   UNL     1       9.407  30.832  58.286  1.00  0.00    -0.287 N 
HETATM    8  C   UNL     1       9.300  31.552  59.443  1.00  0.00     0.326 C 
HETATM    9  N   UNL     1       8.129  31.423  60.142  1.00  0.00    -0.309 N 
HETATM   10  O   UNL     1      10.250  32.271  59.751  1.00  0.00    -0.247 OA
HETATM   11  H   UNL     1       7.494  30.716  59.783  1.00  0.00     0.170 HD
HETATM   12  H   UNL     1      10.251  30.987  57.757  1.00  0.00     0.172 HD
BRANCH   9  13
HETATM   13  C   UNL     1       7.699  32.142  61.273  1.00  0.00     0.036 A 
HETATM   14  C   UNL     1       6.661  33.074  61.259  1.00  0.00     0.030 A 
HETATM   15  C   UNL     1       6.270  33.719  62.438  1.00  0.00     0.009 A 
HETATM   16  C   UNL     1       6.906  33.440  63.651  1.00  0.00    -0.062 A 
HETATM   17  C   UNL     1       6.485  34.149  64.904  1.00  0.00     0.048 C 
HETATM   18  C   UNL     1       7.958  32.518  63.664  1.00  0.00     0.009 A 
HETATM   19  C   UNL     1       8.345  31.872  62.486  1.00  0.00     0.030 A 
ENDBRANCH   9  13
ENDBRANCH   1   7
BRANCH   3  20
HETATM   20  C   UNL     1       7.117  27.472  55.230  1.00  0.00     0.260 C 
HETATM   21  N   UNL     1       6.344  26.384  55.578  1.00  0.00    -0.352 N 
HETATM   22  H   UNL     1       6.182  26.169  56.550  1.00  0.00     0.163 HD
HETATM   23  O   UNL     1       7.542  27.601  54.083  1.00  0.00    -0.267 OA
BRANCH  21  24
HETATM   24  C   UNL     1       5.897  25.412  54.607  1.00  0.00     0.163 C 
BRANCH  24  25
HETATM   25  C   UNL     1       6.840  24.244  54.489  1.00  0.00    -0.019 A 
HETATM   26  C   UNL     1       7.555  23.964  53.314  1.00  0.00     0.042 A 
HETATM   27 CL   UNL     1       7.359  24.919  51.885  1.00  0.00    -0.084 Cl
HETATM   28  C   UNL     1       8.452  22.893  53.262  1.00  0.00     0.024 A 
HETATM   29  C   UNL     1       8.641  22.083  54.383  1.00  0.00     0.002 A 
HETATM   30  C   UNL     1       7.926  22.337  55.550  1.00  0.00     0.001 A 
HETATM   31  C   UNL     1       7.028  23.405  55.601  1.00  0.00     0.010 A 
ENDBRANCH  24  25
ENDBRANCH  21  24
ENDBRANCH   3  20
TORSDOF 5
ENDMDL
MODEL 5
REMARK VINA RESULT:      -9.6      1.692      2.041
REMARK  5 active torsions:
REMARK  status: ('A' for Active; 'I' for Inactive)
REMARK    1  A    between atoms: C_5  and  N_6 
REMARK       I    between atoms: N_6  and  C_7 
REMARK       I    between atoms: C_7  and  N_8 
REMARK    2  A    between atoms: N_8  and  C_9 
REMARK    3  A    between atoms: C_11  and  C_12 
REMARK       I    between atoms: C_12  and  N_13 
REMARK    4  A    between atoms: N_13  and  C_14 
REMARK    5  A    between atoms: C_14  and  C_15 
ROOT
HETATM    1  C   UNL     1       6.610  30.438  57.499  1.00  0.00     0.175 A 
HETATM    2  S   UNL     1       5.760  28.972  57.511  1.00  0.00    -0.044 SA
HETATM    3  C   UNL     1       7.249  28.118  57.320  1.00  0.00     0.100 A 
HETATM    4  C   UNL     1       8.288  29.037  57.208  1.00  0.00     0.056 A 
HETATM    5  C   UNL     1       9.746  28.775  57.064  1.00  0.00     0.072 C 
HETATM    6  N   UNL     1       7.902  30.371  57.305  1.00  0.00    -0.228 NA
ENDROOT
BRANCH   1   7
HETATM    7  N   UNL     1       5.855  31.550  57.723  1.00  0.00    -0.287 N 
HETATM    8  C   UNL     1       5.836  32.300  58.866  1.00  0.00     0.326 C 
HETATM    9  N   UNL     1       6.698  31.924  59.862  1.00  0.00    -0.309 N 
HETATM   10  O   UNL     1       5.037  33.234  58.917  1.00  0.00    -0.247 OA
HETATM   11  H   UNL     1       7.346  31.183  59.608  1.00  0.00     0.170 HD
HETATM   12  H   UNL     1       5.171  31.807  57.028  1.00  0.00     0.172 HD
BRANCH   9  13
HETATM   13  C   UNL     1       6.791  32.420  61.176  1.00  0.00     0.036 A 
HETATM   14  C   UNL     1       5.843  33.255  61.766  1.00  0.00     0.030 A 
HETATM   15  C   UNL     1       5.993  33.674  63.093  1.00  0.00     0.009 A 
HETATM   16  C   UNL     1       7.091  33.262  63.854  1.00  0.00    -0.062 A 
HETATM   17  C   UNL     1       7.246  33.730  65.270  1.00  0.00     0.048 C 
HETATM   18  C   UNL     1       8.052  32.438  63.259  1.00  0.00     0.009 A 
HETATM   19  C   UNL     1       7.898  32.017  61.933  1.00  0.00     0.030 A 
ENDBRANCH   9  13
ENDBRANCH   1   7
BRANCH   3  20
HETATM   20  C   UNL     1       7.224  26.664  57.363  1.00  0.00     0.260 C 
HETATM   21  N   UNL     1       6.236  26.058  56.617  1.00  0.00    -0.352 N 
HETATM   22  H   UNL     1       5.456  26.599  56.276  1.00  0.00     0.163 HD
HETATM   23  O   UNL     1       8.031  25.993  58.003  1.00  0.00    -0.267 OA
BRANCH  21  24
HETATM   24  C   UNL     1       6.161  24.625  56.451  1.00  0.00     0.163 C 
BRANCH  24  25
HETATM   25  C   UNL     1       6.847  24.157  55.195  1.00  0.00    -0.019 A 
HETATM   26  C   UNL     1       7.864  23.190  55.203  1.00  0.00     0.042 A 
HETATM   27 CL   UNL     1       8.447  22.499  56.678  1.00  0.00    -0.084 Cl
HETATM   28  C   UNL     1       8.444  22.754  54.007  1.00  0.00     0.024 A 
HETATM   29  C   UNL     1       8.020  23.285  52.789  1.00  0.00     0.002 A 
HETATM   30  C   UNL     1       7.025  24.259  52.767  1.00  0.00     0.001 A 
HETATM   31  C   UNL     1       6.447  24.696  53.960  1.00  0.00     0.010 A 
ENDBRANCH  24  25
ENDBRANCH  21  24
ENDBRANCH   3  20
TORSDOF 5
ENDMDL
MODEL 6
REMARK VINA RESULT:      -9.5      1.532      2.086
REMARK  5 active torsions:
REMARK  status: ('A' for Active; 'I' for Inactive)
REMARK    1  A    between atoms: C_5  and  N_6 
REMARK       I    between atoms: N_6  and  C_7 
REMARK       I    between atoms: C_7  and  N_8 
REMARK    2  A    between atoms: N_8  and  C_9 
REMARK    3  A    between atoms: C_11  and  C_12 
REMARK       I    between atoms: C_12  and  N_13 
REMARK    4  A    between atoms: N_13  and  C_14 
REMARK    5  A    between atoms: C_14  and  C_15 
ROOT
HETATM    1  C   UNL     1       7.865  29.414  56.469  1.00  0.00     0.175 A 
HETATM    2  S   UNL     1       8.115  27.998  55.571  1.00  0.00    -0.044 SA
HETATM    3  C   UNL     1       6.410  27.867  55.321  1.00  0.00     0.100 A 
HETATM    4  C   UNL     1       5.772  28.903  55.997  1.00  0.00     0.056 A 
HETATM    5  C   UNL     1       4.319  29.222  56.046  1.00  0.00     0.072 C 
HETATM    6  N   UNL     1       6.624  29.781  56.661  1.00  0.00    -0.228 NA
ENDROOT
BRANCH   1   7
HETATM    7  N   UNL     1       8.999  30.048  56.881  1.00  0.00    -0.287 N 
HETATM    8  C   UNL     1       9.211  30.612  58.108  1.00  0.00     0.326 C 
HETATM    9  N   UNL     1       8.205  30.482  59.027  1.00  0.00    -0.309 N 
HETATM   10  O   UNL     1      10.275  31.206  58.280  1.00  0.00    -0.247 OA
HETATM   11  H   UNL     1       7.438  29.881  58.737  1.00  0.00     0.170 HD
HETATM   12  H   UNL     1       9.726  30.208  56.201  1.00  0.00     0.172 HD
BRANCH   9  13
HETATM   13  C   UNL     1       8.097  31.073  60.300  1.00  0.00     0.036 A 
HETATM   14  C   UNL     1       8.816  30.656  61.420  1.00  0.00     0.030 A 
HETATM   15  C   UNL     1       8.678  31.325  62.642  1.00  0.00     0.009 A 
HETATM   16  C   UNL     1       7.820  32.422  62.764  1.00  0.00    -0.062 A 
HETATM   17  C   UNL     1       7.672  33.120  64.083  1.00  0.00     0.048 C 
HETATM   18  C   UNL     1       7.085  32.831  61.647  1.00  0.00     0.009 A 
HETATM   19  C   UNL     1       7.229  32.164  60.425  1.00  0.00     0.030 A 
ENDBRANCH   9  13
ENDBRANCH   1   7
BRANCH   3  20
HETATM   20  C   UNL     1       5.916  26.812  54.452  1.00  0.00     0.260 C 
HETATM   21  N   UNL     1       6.748  25.723  54.297  1.00  0.00    -0.352 N 
HETATM   22  H   UNL     1       7.716  25.782  54.575  1.00  0.00     0.163 HD
HETATM   23  O   UNL     1       4.824  26.854  53.889  1.00  0.00    -0.267 OA
BRANCH  21  24
HETATM   24  C   UNL     1       6.345  24.538  53.575  1.00  0.00     0.163 C 
BRANCH  24  25
HETATM   25  C   UNL     1       7.168  23.334  53.945  1.00  0.00    -0.019 A 
HETATM   26  C   UNL     1       7.422  22.970  55.277  1.00  0.00     0.042 A 
HETATM   27 CL   UNL     1       6.846  23.921  56.602  1.00  0.00    -0.084 Cl
HETATM   28  C   UNL     1       8.157  21.819  55.575  1.00  0.00     0.024 A 
HETATM   29  C   UNL     1       8.655  21.020  54.545  1.00  0.00     0.002 A 
HETATM   30  C   UNL     1       8.428  21.377  53.219  1.00  0.00     0.001 A 
HETATM   31  C   UNL     1       7.696  22.528  52.921  1.00  0.00     0.010 A 
ENDBRANCH  24  25
ENDBRANCH  21  24
ENDBRANCH   3  20
TORSDOF 5
ENDMDL
MODEL 7
REMARK VINA RESULT:      -9.4      3.339     10.345
REMARK  5 active torsions:
REMARK  status: ('A' for Active; 'I' for Inactive)
REMARK    1  A    between atoms: C_5  and  N_6 
REMARK       I    between atoms: N_6  and  C_7 
REMARK       I    between atoms: C_7  and  N_8 
REMARK    2  A    between atoms: N_8  and  C_9 
REMARK    3  A    between atoms: C_11  and  C_12 
REMARK       I    between atoms: C_12  and  N_13 
REMARK    4  A    between atoms: N_13  and  C_14 
REMARK    5  A    between atoms: C_14  and  C_15 
ROOT
HETATM    1  C   UNL     1       7.270  27.263  57.563  1.00  0.00     0.175 A 
HETATM    2  S   UNL     1       7.684  28.802  58.139  1.00  0.00    -0.044 SA
HETATM    3  C   UNL     1       6.221  29.435  57.474  1.00  0.00     0.100 A 
HETATM    4  C   UNL     1       5.547  28.414  56.810  1.00  0.00     0.056 A 
HETATM    5  C   UNL     1       4.231  28.471  56.115  1.00  0.00     0.072 C 
HETATM    6  N   UNL     1       6.169  27.170  56.863  1.00  0.00    -0.228 NA
ENDROOT
BRANCH   1   7
HETATM    7  N   UNL     1       8.124  26.261  57.916  1.00  0.00    -0.287 N 
HETATM    8  C   UNL     1       8.415  25.147  57.179  1.00  0.00     0.326 C 
HETATM    9  N   UNL     1       7.828  25.056  55.945  1.00  0.00    -0.309 N 
HETATM   10  O   UNL     1       9.159  24.311  57.689  1.00  0.00    -0.247 OA
HETATM   11  H   UNL     1       7.315  25.884  55.655  1.00  0.00     0.170 HD
HETATM   12  H   UNL     1       8.518  26.280  58.844  1.00  0.00     0.172 HD
BRANCH   9  13
HETATM   13  C   UNL     1       7.838  23.972  55.046  1.00  0.00     0.036 A 
HETATM   14  C   UNL     1       7.950  24.105  53.662  1.00  0.00     0.030 A 
HETATM   15  C   UNL     1       7.990  22.972  52.842  1.00  0.00     0.009 A 
HETATM   16  C   UNL     1       7.923  21.688  53.391  1.00  0.00    -0.062 A 
HETATM   17  C   UNL     1       7.954  20.484  52.497  1.00  0.00     0.048 C 
HETATM   18  C   UNL     1       7.793  21.553  54.776  1.00  0.00     0.009 A 
HETATM   19  C   UNL     1       7.758  22.687  55.596  1.00  0.00     0.030 A 
ENDBRANCH   9  13
ENDBRANCH   1   7
BRANCH   3  20
HETATM   20  C   UNL     1       5.886  30.826  57.734  1.00  0.00     0.260 C 
HETATM   21  N   UNL     1       5.966  31.226  59.051  1.00  0.00    -0.352 N 
HETATM   22  H   UNL     1       6.017  30.538  59.787  1.00  0.00     0.163 HD
HETATM   23  O   UNL     1       5.562  31.620  56.854  1.00  0.00    -0.267 OA
BRANCH  21  24
HETATM   24  C   UNL     1       5.794  32.604  59.452  1.00  0.00     0.163 C 
BRANCH  24  25
HETATM   25  C   UNL     1       6.325  32.868  60.835  1.00  0.00    -0.019 A 
HETATM   26  C   UNL     1       5.760  33.825  61.693  1.00  0.00     0.042 A 
HETATM   27 CL   UNL     1       4.433  34.817  61.196  1.00  0.00    -0.084 Cl
HETATM   28  C   UNL     1       6.260  34.009  62.986  1.00  0.00     0.024 A 
HETATM   29  C   UNL     1       7.335  33.243  63.436  1.00  0.00     0.002 A 
HETATM   30  C   UNL     1       7.919  32.304  62.591  1.00  0.00     0.001 A 
HETATM   31  C   UNL     1       7.422  32.122  61.299  1.00  0.00     0.010 A 
ENDBRANCH  24  25
ENDBRANCH  21  24
ENDBRANCH   3  20
TORSDOF 5
ENDMDL
MODEL 8
REMARK VINA RESULT:      -9.4      3.358      4.103
REMARK  5 active torsions:
REMARK  status: ('A' for Active; 'I' for Inactive)
REMARK    1  A    between atoms: C_5  and  N_6 
REMARK       I    between atoms: N_6  and  C_7 
REMARK       I    between atoms: C_7  and  N_8 
REMARK    2  A    between atoms: N_8  and  C_9 
REMARK    3  A    between atoms: C_11  and  C_12 
REMARK       I    between atoms: C_12  and  N_13 
REMARK    4  A    between atoms: N_13  and  C_14 
REMARK    5  A    between atoms: C_14  and  C_15 
ROOT
HETATM    1  C   UNL     1       9.012  28.946  56.844  1.00  0.00     0.175 A 
HETATM    2  S   UNL     1       7.771  29.153  55.708  1.00  0.00    -0.044 SA
HETATM    3  C   UNL     1       7.212  27.553  56.039  1.00  0.00     0.100 A 
HETATM    4  C   UNL     1       8.062  26.960  56.968  1.00  0.00     0.056 A 
HETATM    5  C   UNL     1       7.965  25.606  57.582  1.00  0.00     0.072 C 
HETATM    6  N   UNL     1       9.100  27.772  57.416  1.00  0.00    -0.228 NA
ENDROOT
BRANCH   1   7
HETATM    7  N   UNL     1       9.784  30.046  57.068  1.00  0.00    -0.287 N 
HETATM    8  C   UNL     1       9.757  30.841  58.180  1.00  0.00     0.326 C 
HETATM    9  N   UNL     1       8.906  30.465  59.184  1.00  0.00    -0.309 N 
HETATM   10  O   UNL     1      10.480  31.837  58.180  1.00  0.00    -0.247 OA
HETATM   11  H   UNL     1       8.455  29.565  59.046  1.00  0.00     0.170 HD
HETATM   12  H   UNL     1      10.372  30.373  56.317  1.00  0.00     0.172 HD
BRANCH   9  13
HETATM   13  C   UNL     1       8.576  31.162  60.363  1.00  0.00     0.036 A 
HETATM   14  C   UNL     1       7.824  32.336  60.392  1.00  0.00     0.030 A 
HETATM   15  C   UNL     1       7.508  32.946  61.612  1.00  0.00     0.009 A 
HETATM   16  C   UNL     1       7.936  32.390  62.822  1.00  0.00    -0.062 A 
HETATM   17  C   UNL     1       7.602  33.063  64.120  1.00  0.00     0.048 C 
HETATM   18  C   UNL     1       8.705  31.223  62.793  1.00  0.00     0.009 A 
HETATM   19  C   UNL     1       9.015  30.612  61.573  1.00  0.00     0.030 A 
ENDBRANCH   9  13
ENDBRANCH   1   7
BRANCH   3  20
HETATM   20  C   UNL     1       5.987  27.100  55.401  1.00  0.00     0.260 C 
HETATM   21  N   UNL     1       6.113  26.666  54.099  1.00  0.00    -0.352 N 
HETATM   22  H   UNL     1       6.946  26.881  53.573  1.00  0.00     0.163 HD
HETATM   23  O   UNL     1       4.895  27.082  55.968  1.00  0.00    -0.267 OA
BRANCH  21  24
HETATM   24  C   UNL     1       5.017  26.064  53.375  1.00  0.00     0.163 C 
BRANCH  24  25
HETATM   25  C   UNL     1       4.785  26.717  52.039  1.00  0.00    -0.019 A 
HETATM   26  C   UNL     1       4.210  27.992  51.909  1.00  0.00     0.042 A 
HETATM   27 CL   UNL     1       3.671  28.888  53.287  1.00  0.00    -0.084 Cl
HETATM   28  C   UNL     1       4.052  28.579  50.650  1.00  0.00     0.024 A 
HETATM   29  C   UNL     1       4.459  27.897  49.503  1.00  0.00     0.002 A 
HETATM   30  C   UNL     1       5.014  26.625  49.614  1.00  0.00     0.001 A 
HETATM   31  C   UNL     1       5.171  26.037  50.871  1.00  0.00     0.010 A 
ENDBRANCH  24  25
ENDBRANCH  21  24
ENDBRANCH   3  20
TORSDOF 5
ENDMDL
MODEL 9
REMARK VINA RESULT:      -9.2      2.334      2.937
REMARK  5 active torsions:
REMARK  status: ('A' for Active; 'I' for Inactive)
REMARK    1  A    between atoms: C_5  and  N_6 
REMARK       I    between atoms: N_6  and  C_7 
REMARK       I    between atoms: C_7  and  N_8 
REMARK    2  A    between atoms: N_8  and  C_9 
REMARK    3  A    between atoms: C_11  and  C_12 
REMARK       I    between atoms: C_12  and  N_13 
REMARK    4  A    between atoms: N_13  and  C_14 
REMARK    5  A    between atoms: C_14  and  C_15 
ROOT
HETATM    1  C   UNL     1       7.396  30.452  58.451  1.00  0.00     0.175 A 
HETATM    2  S   UNL     1       7.027  28.983  57.689  1.00  0.00    -0.044 SA
HETATM    3  C   UNL     1       5.809  29.783  56.760  1.00  0.00     0.100 A 
HETATM    4  C   UNL     1       5.746  31.118  57.149  1.00  0.00     0.056 A 
HETATM    5  C   UNL     1       4.878  32.200  56.608  1.00  0.00     0.072 C 
HETATM    6  N   UNL     1       6.662  31.486  58.130  1.00  0.00    -0.228 NA
ENDROOT
BRANCH   1   7
HETATM    7  N   UNL     1       8.454  30.411  59.310  1.00  0.00    -0.287 N 
HETATM    8  C   UNL     1       8.464  30.851  60.604  1.00  0.00     0.326 C 
HETATM    9  N   UNL     1       7.281  31.334  61.098  1.00  0.00    -0.309 N 
HETATM   10  O   UNL     1       9.532  30.798  61.211  1.00  0.00    -0.247 OA
HETATM   11  H   UNL     1       6.482  31.217  60.481  1.00  0.00     0.170 HD
HETATM   12  H   UNL     1       9.347  30.116  58.947  1.00  0.00     0.172 HD
BRANCH   9  13
HETATM   13  C   UNL     1       7.040  31.971  62.330  1.00  0.00     0.036 A 
HETATM   14  C   UNL     1       8.039  32.508  63.141  1.00  0.00     0.030 A 
HETATM   15  C   UNL     1       7.709  33.161  64.335  1.00  0.00     0.009 A 
HETATM   16  C   UNL     1       6.375  33.289  64.736  1.00  0.00    -0.062 A 
HETATM   17  C   UNL     1       6.039  33.978  66.025  1.00  0.00     0.048 C 
HETATM   18  C   UNL     1       5.374  32.736  63.932  1.00  0.00     0.009 A 
HETATM   19  C   UNL     1       5.705  32.089  62.736  1.00  0.00     0.030 A 
ENDBRANCH   9  13
ENDBRANCH   1   7
BRANCH   3  20
HETATM   20  C   UNL     1       5.114  29.026  55.731  1.00  0.00     0.260 C 
HETATM   21  N   UNL     1       5.807  27.961  55.198  1.00  0.00    -0.352 N 
HETATM   22  H   UNL     1       6.801  27.879  55.346  1.00  0.00     0.163 HD
HETATM   23  O   UNL     1       3.974  29.288  55.352  1.00  0.00    -0.267 OA
BRANCH  21  24
HETATM   24  C   UNL     1       5.205  27.035  54.266  1.00  0.00     0.163 C 
BRANCH  24  25
HETATM   25  C   UNL     1       5.943  25.724  54.203  1.00  0.00    -0.019 A 
HETATM   26  C   UNL     1       6.251  25.085  52.991  1.00  0.00     0.042 A 
HETATM   27 CL   UNL     1       5.751  25.739  51.470  1.00  0.00    -0.084 Cl
HETATM   28  C   UNL     1       6.974  23.889  52.979  1.00  0.00     0.024 A 
HETATM   29  C   UNL     1       7.393  23.311  54.177  1.00  0.00     0.002 A 
HETATM   30  C   UNL     1       7.080  23.923  55.388  1.00  0.00     0.001 A 
HETATM   31  C   UNL     1       6.355  25.116  55.402  1.00  0.00     0.010 A 
ENDBRANCH  24  25
ENDBRANCH  21  24
ENDBRANCH   3  20
TORSDOF 5
ENDMDL
MODEL 10
REMARK VINA RESULT:      -8.9      4.093     10.635
REMARK  5 active torsions:
REMARK  status: ('A' for Active; 'I' for Inactive)
REMARK    1  A    between atoms: C_5  and  N_6 
REMARK       I    between atoms: N_6  and  C_7 
REMARK       I    between atoms: C_7  and  N_8 
REMARK    2  A    between atoms: N_8  and  C_9 
REMARK    3  A    between atoms: C_11  and  C_12 
REMARK       I    between atoms: C_12  and  N_13 
REMARK    4  A    between atoms: N_13  and  C_14 
REMARK    5  A    between atoms: C_14  and  C_15 
ROOT
HETATM    1  C   UNL     1       8.793  31.205  59.038  1.00  0.00     0.175 A 
HETATM    2  S   UNL     1       9.011  31.119  60.717  1.00  0.00    -0.044 SA
HETATM    3  C   UNL     1       7.457  31.836  60.947  1.00  0.00     0.100 A 
HETATM    4  C   UNL     1       6.908  32.136  59.704  1.00  0.00     0.056 A 
HETATM    5  C   UNL     1       5.577  32.729  59.397  1.00  0.00     0.072 C 
HETATM    6  N   UNL     1       7.694  31.774  58.613  1.00  0.00    -0.228 NA
ENDROOT
BRANCH   1   7
HETATM    7  N   UNL     1       9.784  30.639  58.293  1.00  0.00    -0.287 N 
HETATM    8  C   UNL     1       9.659  29.558  57.467  1.00  0.00     0.326 C 
HETATM    9  N   UNL     1       8.405  29.023  57.339  1.00  0.00    -0.309 N 
HETATM   10  O   UNL     1      10.681  29.141  56.924  1.00  0.00    -0.247 OA
HETATM   11  H   UNL     1       7.667  29.554  57.792  1.00  0.00     0.170 HD
HETATM   12  H   UNL     1      10.725  30.980  58.420  1.00  0.00     0.172 HD
BRANCH   9  13
HETATM   13  C   UNL     1       8.018  27.842  56.676  1.00  0.00     0.036 A 
HETATM   14  C   UNL     1       7.630  27.788  55.338  1.00  0.00     0.030 A 
HETATM   15  C   UNL     1       7.296  26.565  54.745  1.00  0.00     0.009 A 
HETATM   16  C   UNL     1       7.346  25.376  55.479  1.00  0.00    -0.062 A 
HETATM   17  C   UNL     1       6.972  24.075  54.834  1.00  0.00     0.048 C 
HETATM   18  C   UNL     1       7.718  25.431  56.826  1.00  0.00     0.009 A 
HETATM   19  C   UNL     1       8.057  26.654  57.415  1.00  0.00     0.030 A 
ENDBRANCH   9  13
ENDBRANCH   1   7
BRANCH   3  20
HETATM   20  C   UNL     1       6.945  31.961  62.302  1.00  0.00     0.260 C 
HETATM   21  N   UNL     1       7.501  32.966  63.064  1.00  0.00    -0.352 N 
HETATM   22  H   UNL     1       8.359  33.407  62.771  1.00  0.00     0.163 HD
HETATM   23  O   UNL     1       6.062  31.238  62.761  1.00  0.00    -0.267 OA
BRANCH  21  24
HETATM   24  C   UNL     1       7.008  33.302  64.380  1.00  0.00     0.163 C 
BRANCH  24  25
HETATM   25  C   UNL     1       6.109  34.509  64.364  1.00  0.00    -0.019 A 
HETATM   26  C   UNL     1       5.351  34.904  65.479  1.00  0.00     0.042 A 
HETATM   27 CL   UNL     1       5.356  33.990  66.947  1.00  0.00    -0.084 Cl
HETATM   28  C   UNL     1       4.561  36.057  65.432  1.00  0.00     0.024 A 
HETATM   29  C   UNL     1       4.512  36.826  64.270  1.00  0.00     0.002 A 
HETATM   30  C   UNL     1       5.243  36.437  63.150  1.00  0.00     0.001 A 
HETATM   31  C   UNL     1       6.030  35.285  63.195  1.00  0.00     0.010 A 
ENDBRANCH  24  25
ENDBRANCH  21  24
ENDBRANCH   3  20
TORSDOF 5
ENDMDL
