MODEL 1
REMARK VINA RESULT:      -8.8      0.000      0.000
REMARK  4 active torsions:
REMARK  status: ('A' for Active; 'I' for Inactive)
REMARK    1  A    between atoms: S_2  and  N_3 
REMARK    2  A    between atoms: N_3  and  N_4 
REMARK    3  A    between atoms: C_10  and  C_11 
REMARK    4  A    between atoms: C_13  and  O_14 
ROOT
HETATM    1  N   UNL     1       7.355  24.655  54.058  1.00  0.00    -0.241 N 
HETATM    2  C   UNL     1       7.810  23.516  53.397  1.00  0.00     0.272 C 
HETATM    3  O   UNL     1       7.900  23.408  52.175  1.00  0.00    -0.266 OA
HETATM    4  C   UNL     1       8.123  22.360  54.275  1.00  0.00     0.054 A 
HETATM    5  C   UNL     1       7.882  22.479  55.654  1.00  0.00     0.026 A 
HETATM    6  N   UNL     1       7.377  23.673  56.207  1.00  0.00    -0.265 NA
HETATM    7  C   UNL     1       7.779  24.853  55.441  1.00  0.00     0.217 C 
HETATM    8  C   UNL     1       8.596  21.162  53.726  1.00  0.00     0.019 A 
HETATM    9  C   UNL     1       8.785  20.054  54.551  1.00  0.00     0.001 A 
HETATM   10  C   UNL     1       8.477  20.139  55.908  1.00  0.00     0.002 A 
HETATM   11  C   UNL     1       8.017  21.340  56.454  1.00  0.00     0.024 A 
HETATM   12  H   UNL     1       7.609  23.765  57.192  1.00  0.00     0.130 HD
ENDROOT
BRANCH   7  13
HETATM   13  C   UNL     1       7.219  26.103  56.099  1.00  0.00    -0.017 A 
HETATM   14  C   UNL     1       5.834  26.350  56.050  1.00  0.00     0.047 A 
HETATM   15  C   UNL     1       5.303  27.469  56.683  1.00  0.00     0.066 A 
HETATM   16  C   UNL     1       6.125  28.362  57.358  1.00  0.00     0.036 A 
HETATM   17  C   UNL     1       7.498  28.127  57.421  1.00  0.00     0.003 A 
HETATM   18  C   UNL     1       8.042  27.000  56.802  1.00  0.00     0.011 A 
BRANCH  15  19
HETATM   19  O   UNL     1       3.964  27.721  56.669  1.00  0.00    -0.361 OA
HETATM   20  H   UNL     1       3.826  28.671  56.516  1.00  0.00     0.217 HD
ENDBRANCH  15  19
ENDBRANCH   7  13
BRANCH   1  21
HETATM   21  N   UNL     1       7.137  25.889  53.235  1.00  0.00    -0.123 NA
HETATM   22  H   UNL     1       7.868  26.064  52.533  1.00  0.00     0.165 HD
BRANCH  21  23
HETATM   23  S   UNL     1       5.643  26.027  52.427  1.00  0.00     0.222 S 
HETATM   24  C   UNL     1       5.194  27.723  52.737  1.00  0.00     0.181 C 
HETATM   25  O   UNL     1       4.696  25.121  53.046  1.00  0.00    -0.210 OA
HETATM   26  O   UNL     1       5.968  25.886  51.024  1.00  0.00    -0.210 OA
ENDBRANCH  21  23
ENDBRANCH   1  21
TORSDOF 4
ENDMDL
MODEL 2
REMARK VINA RESULT:      -8.7      1.267      1.630
REMARK  4 active torsions:
REMARK  status: ('A' for Active; 'I' for Inactive)
REMARK    1  A    between atoms: S_2  and  N_3 
REMARK    2  A    between atoms: N_3  and  N_4 
REMARK    3  A    between atoms: C_10  and  C_11 
REMARK    4  A    between atoms: C_13  and  O_14 
ROOT
HETATM    1  N   UNL     1       7.203  25.240  53.812  1.00  0.00    -0.241 N 
HETATM    2  C   UNL     1       7.597  24.185  52.992  1.00  0.00     0.272 C 
HETATM    3  O   UNL     1       7.707  24.256  51.769  1.00  0.00    -0.266 OA
HETATM    4  C   UNL     1       7.812  22.891  53.688  1.00  0.00     0.054 A 
HETATM    5  C   UNL     1       7.549  22.817  55.065  1.00  0.00     0.026 A 
HETATM    6  N   UNL     1       7.112  23.947  55.788  1.00  0.00    -0.265 NA
HETATM    7  C   UNL     1       7.609  25.197  55.215  1.00  0.00     0.217 C 
HETATM    8  C   UNL     1       8.216  21.759  52.969  1.00  0.00     0.019 A 
HETATM    9  C   UNL     1       8.312  20.530  53.618  1.00  0.00     0.001 A 
HETATM   10  C   UNL     1       7.980  20.430  54.969  1.00  0.00     0.002 A 
HETATM   11  C   UNL     1       7.589  21.564  55.685  1.00  0.00     0.024 A 
HETATM   12  H   UNL     1       7.328  23.872  56.778  1.00  0.00     0.130 HD
ENDROOT
BRANCH   7  13
HETATM   13  C   UNL     1       7.119  26.370  56.048  1.00  0.00    -0.017 A 
HETATM   14  C   UNL     1       8.051  27.285  56.571  1.00  0.00     0.047 A 
HETATM   15  C   UNL     1       7.613  28.386  57.300  1.00  0.00     0.066 A 
HETATM   16  C   UNL     1       6.260  28.592  57.535  1.00  0.00     0.036 A 
HETATM   17  C   UNL     1       5.324  27.698  57.017  1.00  0.00     0.003 A 
HETATM   18  C   UNL     1       5.749  26.597  56.271  1.00  0.00     0.011 A 
BRANCH  15  19
HETATM   19  O   UNL     1       8.493  29.298  57.800  1.00  0.00    -0.361 OA
HETATM   20  H   UNL     1       8.645  29.103  58.740  1.00  0.00     0.217 HD
ENDBRANCH  15  19
ENDBRANCH   7  13
BRANCH   1  21
HETATM   21  N   UNL     1       7.088  26.596  53.184  1.00  0.00    -0.123 NA
HETATM   22  H   UNL     1       7.792  26.789  52.460  1.00  0.00     0.165 HD
BRANCH  21  23
HETATM   23  S   UNL     1       5.576  27.012  52.517  1.00  0.00     0.222 S 
HETATM   24  C   UNL     1       5.317  28.657  53.151  1.00  0.00     0.181 C 
HETATM   25  O   UNL     1       4.576  26.098  53.029  1.00  0.00    -0.210 OA
HETATM   26  O   UNL     1       5.814  27.101  51.092  1.00  0.00    -0.210 OA
ENDBRANCH  21  23
ENDBRANCH   1  21
TORSDOF 4
ENDMDL
MODEL 3
REMARK VINA RESULT:      -8.7      3.068      4.426
REMARK  4 active torsions:
REMARK  status: ('A' for Active; 'I' for Inactive)
REMARK    1  A    between atoms: S_2  and  N_3 
REMARK    2  A    between atoms: N_3  and  N_4 
REMARK    3  A    between atoms: C_10  and  C_11 
REMARK    4  A    between atoms: C_13  and  O_14 
ROOT
HETATM    1  N   UNL     1       7.257  27.999  55.951  1.00  0.00    -0.241 N 
HETATM    2  C   UNL     1       6.888  26.903  55.175  1.00  0.00     0.272 C 
HETATM    3  O   UNL     1       6.122  26.955  54.214  1.00  0.00    -0.266 OA
HETATM    4  C   UNL     1       7.427  25.597  55.631  1.00  0.00     0.054 A 
HETATM    5  C   UNL     1       8.192  25.559  56.808  1.00  0.00     0.026 A 
HETATM    6  N   UNL     1       8.467  26.734  57.538  1.00  0.00    -0.265 NA
HETATM    7  C   UNL     1       8.519  27.919  56.683  1.00  0.00     0.217 C 
HETATM    8  C   UNL     1       7.131  24.424  54.925  1.00  0.00     0.019 A 
HETATM    9  C   UNL     1       7.558  23.194  55.424  1.00  0.00     0.001 A 
HETATM   10  C   UNL     1       8.252  23.138  56.632  1.00  0.00     0.002 A 
HETATM   11  C   UNL     1       8.557  24.313  57.326  1.00  0.00     0.024 A 
HETATM   12  H   UNL     1       9.305  26.641  58.107  1.00  0.00     0.130 HD
ENDROOT
BRANCH   7  13
HETATM   13  C   UNL     1       8.836  29.143  57.526  1.00  0.00    -0.017 A 
HETATM   14  C   UNL     1       8.057  29.422  58.664  1.00  0.00     0.047 A 
HETATM   15  C   UNL     1       8.362  30.515  59.468  1.00  0.00     0.066 A 
HETATM   16  C   UNL     1       9.425  31.352  59.157  1.00  0.00     0.036 A 
HETATM   17  C   UNL     1      10.211  31.085  58.036  1.00  0.00     0.003 A 
HETATM   18  C   UNL     1       9.925  29.983  57.230  1.00  0.00     0.011 A 
BRANCH  15  19
HETATM   19  O   UNL     1       7.636  30.795  60.586  1.00  0.00    -0.361 OA
HETATM   20  H   UNL     1       7.273  31.693  60.507  1.00  0.00     0.217 HD
ENDBRANCH  15  19
ENDBRANCH   7  13
BRANCH   1  21
HETATM   21  N   UNL     1       6.840  29.356  55.471  1.00  0.00    -0.123 NA
HETATM   22  H   UNL     1       6.773  29.441  54.448  1.00  0.00     0.165 HD
BRANCH  21  23
HETATM   23  S   UNL     1       5.393  29.991  56.108  1.00  0.00     0.222 S 
HETATM   24  C   UNL     1       4.314  29.984  54.690  1.00  0.00     0.181 C 
HETATM   25  O   UNL     1       5.640  31.345  56.561  1.00  0.00    -0.210 OA
HETATM   26  O   UNL     1       4.930  28.987  57.043  1.00  0.00    -0.210 OA
ENDBRANCH  21  23
ENDBRANCH   1  21
TORSDOF 4
ENDMDL
MODEL 4
REMARK VINA RESULT:      -8.2      2.386      4.158
REMARK  4 active torsions:
REMARK  status: ('A' for Active; 'I' for Inactive)
REMARK    1  A    between atoms: S_2  and  N_3 
REMARK    2  A    between atoms: N_3  and  N_4 
REMARK    3  A    between atoms: C_10  and  C_11 
REMARK    4  A    between atoms: C_13  and  O_14 
ROOT
HETATM    1  N   UNL     1       6.738  25.295  54.914  1.00  0.00    -0.241 N 
HETATM    2  C   UNL     1       7.276  24.292  55.718  1.00  0.00     0.272 C 
HETATM    3  O   UNL     1       7.576  24.435  56.902  1.00  0.00    -0.266 OA
HETATM    4  C   UNL     1       7.552  23.008  55.026  1.00  0.00     0.054 A 
HETATM    5  C   UNL     1       7.317  22.925  53.644  1.00  0.00     0.026 A 
HETATM    6  N   UNL     1       6.808  24.025  52.922  1.00  0.00    -0.265 NA
HETATM    7  C   UNL     1       5.961  24.885  53.747  1.00  0.00     0.217 C 
HETATM    8  C   UNL     1       8.086  21.923  55.733  1.00  0.00     0.019 A 
HETATM    9  C   UNL     1       8.437  20.761  55.049  1.00  0.00     0.001 A 
HETATM   10  C   UNL     1       8.278  20.696  53.665  1.00  0.00     0.002 A 
HETATM   11  C   UNL     1       7.733  21.776  52.965  1.00  0.00     0.024 A 
HETATM   12  H   UNL     1       6.337  23.735  52.069  1.00  0.00     0.130 HD
ENDROOT
BRANCH   7  13
HETATM   13  C   UNL     1       5.432  26.036  52.908  1.00  0.00    -0.017 A 
HETATM   14  C   UNL     1       5.870  26.182  51.578  1.00  0.00     0.047 A 
HETATM   15  C   UNL     1       5.362  27.206  50.785  1.00  0.00     0.066 A 
HETATM   16  C   UNL     1       4.432  28.104  51.292  1.00  0.00     0.036 A 
HETATM   17  C   UNL     1       3.984  27.968  52.605  1.00  0.00     0.003 A 
HETATM   18  C   UNL     1       4.473  26.936  53.406  1.00  0.00     0.011 A 
BRANCH  15  19
HETATM   19  O   UNL     1       5.754  27.357  49.489  1.00  0.00    -0.361 OA
HETATM   20  H   UNL     1       4.963  27.454  48.932  1.00  0.00     0.217 HD
ENDBRANCH  15  19
ENDBRANCH   7  13
BRANCH   1  21
HETATM   21  N   UNL     1       6.329  26.571  55.584  1.00  0.00    -0.123 NA
HETATM   22  H   UNL     1       6.057  26.464  56.570  1.00  0.00     0.165 HD
BRANCH  21  23
HETATM   23  S   UNL     1       7.435  27.866  55.522  1.00  0.00     0.222 S 
HETATM   24  C   UNL     1       6.399  29.273  55.867  1.00  0.00     0.181 C 
HETATM   25  O   UNL     1       7.983  27.944  54.183  1.00  0.00    -0.210 OA
HETATM   26  O   UNL     1       8.314  27.654  56.653  1.00  0.00    -0.210 OA
ENDBRANCH  21  23
ENDBRANCH   1  21
TORSDOF 4
ENDMDL
MODEL 5
REMARK VINA RESULT:      -8.2      2.359      3.844
REMARK  4 active torsions:
REMARK  status: ('A' for Active; 'I' for Inactive)
REMARK    1  A    between atoms: S_2  and  N_3 
REMARK    2  A    between atoms: N_3  and  N_4 
REMARK    3  A    between atoms: C_10  and  C_11 
REMARK    4  A    between atoms: C_13  and  O_14 
ROOT
HETATM    1  N   UNL     1       6.807  24.899  54.949  1.00  0.00    -0.241 N 
HETATM    2  C   UNL     1       7.322  23.938  55.816  1.00  0.00     0.272 C 
HETATM    3  O   UNL     1       7.550  24.127  57.010  1.00  0.00    -0.266 OA
HETATM    4  C   UNL     1       7.669  22.640  55.184  1.00  0.00     0.054 A 
HETATM    5  C   UNL     1       7.517  22.506  53.795  1.00  0.00     0.026 A 
HETATM    6  N   UNL     1       7.023  23.568  53.008  1.00  0.00    -0.265 NA
HETATM    7  C   UNL     1       6.109  24.432  53.754  1.00  0.00     0.217 C 
HETATM    8  C   UNL     1       8.188  21.593  55.957  1.00  0.00     0.019 A 
HETATM    9  C   UNL     1       8.606  20.419  55.333  1.00  0.00     0.001 A 
HETATM   10  C   UNL     1       8.530  20.305  53.946  1.00  0.00     0.002 A 
HETATM   11  C   UNL     1       8.000  21.347  53.180  1.00  0.00     0.024 A 
HETATM   12  H   UNL     1       6.609  23.238  52.140  1.00  0.00     0.130 HD
ENDROOT
BRANCH   7  13
HETATM   13  C   UNL     1       5.601  25.540  52.848  1.00  0.00    -0.017 A 
HETATM   14  C   UNL     1       4.533  26.350  53.275  1.00  0.00     0.047 A 
HETATM   15  C   UNL     1       4.085  27.395  52.473  1.00  0.00     0.066 A 
HETATM   16  C   UNL     1       4.671  27.646  51.240  1.00  0.00     0.036 A 
HETATM   17  C   UNL     1       5.735  26.857  50.805  1.00  0.00     0.003 A 
HETATM   18  C   UNL     1       6.203  25.815  51.607  1.00  0.00     0.011 A 
BRANCH  15  19
HETATM   19  O   UNL     1       3.066  28.206  52.873  1.00  0.00    -0.361 OA
HETATM   20  H   UNL     1       2.588  27.774  53.600  1.00  0.00     0.217 HD
ENDBRANCH  15  19
ENDBRANCH   7  13
BRANCH   1  21
HETATM   21  N   UNL     1       6.329  26.186  55.551  1.00  0.00    -0.123 NA
HETATM   22  H   UNL     1       6.027  26.108  56.531  1.00  0.00     0.165 HD
BRANCH  21  23
HETATM   23  S   UNL     1       7.388  27.518  55.471  1.00  0.00     0.222 S 
HETATM   24  C   UNL     1       6.291  28.897  55.736  1.00  0.00     0.181 C 
HETATM   25  O   UNL     1       7.970  27.569  54.146  1.00  0.00    -0.210 OA
HETATM   26  O   UNL     1       8.242  27.380  56.632  1.00  0.00    -0.210 OA
ENDBRANCH  21  23
ENDBRANCH   1  21
TORSDOF 4
ENDMDL
MODEL 6
REMARK VINA RESULT:      -8.1      2.679      4.564
REMARK  4 active torsions:
REMARK  status: ('A' for Active; 'I' for Inactive)
REMARK    1  A    between atoms: S_2  and  N_3 
REMARK    2  A    between atoms: N_3  and  N_4 
REMARK    3  A    between atoms: C_10  and  C_11 
REMARK    4  A    between atoms: C_13  and  O_14 
ROOT
HETATM    1  N   UNL     1       5.959  26.391  55.133  1.00  0.00    -0.241 N 
HETATM    2  C   UNL     1       6.440  25.269  55.804  1.00  0.00     0.272 C 
HETATM    3  O   UNL     1       6.556  25.183  57.025  1.00  0.00    -0.266 OA
HETATM    4  C   UNL     1       6.899  24.160  54.929  1.00  0.00     0.054 A 
HETATM    5  C   UNL     1       6.872  24.347  53.538  1.00  0.00     0.026 A 
HETATM    6  N   UNL     1       6.400  25.548  52.970  1.00  0.00    -0.265 NA
HETATM    7  C   UNL     1       5.387  26.195  53.803  1.00  0.00     0.217 C 
HETATM    8  C   UNL     1       7.396  22.977  55.489  1.00  0.00     0.019 A 
HETATM    9  C   UNL     1       7.920  21.989  54.657  1.00  0.00     0.001 A 
HETATM   10  C   UNL     1       7.968  22.195  53.279  1.00  0.00     0.002 A 
HETATM   11  C   UNL     1       7.458  23.373  52.723  1.00  0.00     0.024 A 
HETATM   12  H   UNL     1       6.078  25.418  52.015  1.00  0.00     0.130 HD
ENDROOT
BRANCH   7  13
HETATM   13  C   UNL     1       4.909  27.469  53.129  1.00  0.00    -0.017 A 
HETATM   14  C   UNL     1       5.813  28.228  52.362  1.00  0.00     0.047 A 
HETATM   15  C   UNL     1       5.379  29.375  51.705  1.00  0.00     0.066 A 
HETATM   16  C   UNL     1       4.059  29.795  51.804  1.00  0.00     0.036 A 
HETATM   17  C   UNL     1       3.150  29.050  52.554  1.00  0.00     0.003 A 
HETATM   18  C   UNL     1       3.569  27.889  53.206  1.00  0.00     0.011 A 
BRANCH  15  19
HETATM   19  O   UNL     1       6.229  30.116  50.940  1.00  0.00    -0.361 OA
HETATM   20  H   UNL     1       5.752  30.425  50.152  1.00  0.00     0.217 HD
ENDBRANCH  15  19
ENDBRANCH   7  13
BRANCH   1  21
HETATM   21  N   UNL     1       5.372  27.492  55.964  1.00  0.00    -0.123 NA
HETATM   22  H   UNL     1       5.004  27.186  56.874  1.00  0.00     0.165 HD
BRANCH  21  23
HETATM   23  S   UNL     1       6.366  28.842  56.270  1.00  0.00     0.222 S 
HETATM   24  C   UNL     1       5.318  30.204  55.798  1.00  0.00     0.181 C 
HETATM   25  O   UNL     1       7.530  28.765  55.412  1.00  0.00    -0.210 OA
HETATM   26  O   UNL     1       6.526  28.863  57.709  1.00  0.00    -0.210 OA
ENDBRANCH  21  23
ENDBRANCH   1  21
TORSDOF 4
ENDMDL
MODEL 7
REMARK VINA RESULT:      -7.9      2.854      4.090
REMARK  4 active torsions:
REMARK  status: ('A' for Active; 'I' for Inactive)
REMARK    1  A    between atoms: S_2  and  N_3 
REMARK    2  A    between atoms: N_3  and  N_4 
REMARK    3  A    between atoms: C_10  and  C_11 
REMARK    4  A    between atoms: C_13  and  O_14 
ROOT
HETATM    1  N   UNL     1       7.230  26.468  56.040  1.00  0.00    -0.241 N 
HETATM    2  C   UNL     1       8.013  25.330  56.220  1.00  0.00     0.272 C 
HETATM    3  O   UNL     1       8.810  25.172  57.143  1.00  0.00    -0.266 OA
HETATM    4  C   UNL     1       7.890  24.304  55.153  1.00  0.00     0.054 A 
HETATM    5  C   UNL     1       7.068  24.579  54.048  1.00  0.00     0.026 A 
HETATM    6  N   UNL     1       6.352  25.790  53.953  1.00  0.00    -0.265 NA
HETATM    7  C   UNL     1       5.999  26.330  55.266  1.00  0.00     0.217 C 
HETATM    8  C   UNL     1       8.622  23.113  55.229  1.00  0.00     0.019 A 
HETATM    9  C   UNL     1       8.576  22.209  54.170  1.00  0.00     0.001 A 
HETATM   10  C   UNL     1       7.823  22.506  53.035  1.00  0.00     0.002 A 
HETATM   11  C   UNL     1       7.083  23.690  52.969  1.00  0.00     0.024 A 
HETATM   12  H   UNL     1       5.540  25.706  53.348  1.00  0.00     0.130 HD
ENDROOT
BRANCH   7  13
HETATM   13  C   UNL     1       5.216  27.621  55.093  1.00  0.00    -0.017 A 
HETATM   14  C   UNL     1       4.438  28.108  56.160  1.00  0.00     0.047 A 
HETATM   15  C   UNL     1       3.749  29.309  56.029  1.00  0.00     0.066 A 
HETATM   16  C   UNL     1       3.805  30.037  54.848  1.00  0.00     0.036 A 
HETATM   17  C   UNL     1       4.577  29.571  53.784  1.00  0.00     0.003 A 
HETATM   18  C   UNL     1       5.285  28.374  53.907  1.00  0.00     0.011 A 
BRANCH  15  19
HETATM   19  O   UNL     1       3.006  29.813  57.054  1.00  0.00    -0.361 OA
HETATM   20  H   UNL     1       3.601  30.249  57.687  1.00  0.00     0.217 HD
ENDBRANCH  15  19
ENDBRANCH   7  13
BRANCH   1  21
HETATM   21  N   UNL     1       7.224  27.483  57.143  1.00  0.00    -0.123 NA
HETATM   22  H   UNL     1       7.482  27.108  58.065  1.00  0.00     0.165 HD
BRANCH  21  23
HETATM   23  S   UNL     1       8.160  28.887  56.908  1.00  0.00     0.222 S 
HETATM   24  C   UNL     1       7.112  30.163  57.576  1.00  0.00     0.181 C 
HETATM   25  O   UNL     1       8.362  29.077  55.486  1.00  0.00    -0.210 OA
HETATM   26  O   UNL     1       9.300  28.721  57.785  1.00  0.00    -0.210 OA
ENDBRANCH  21  23
ENDBRANCH   1  21
TORSDOF 4
ENDMDL
MODEL 8
REMARK VINA RESULT:      -7.8      9.473     12.760
REMARK  4 active torsions:
REMARK  status: ('A' for Active; 'I' for Inactive)
REMARK    1  A    between atoms: S_2  and  N_3 
REMARK    2  A    between atoms: N_3  and  N_4 
REMARK    3  A    between atoms: C_10  and  C_11 
REMARK    4  A    between atoms: C_13  and  O_14 
ROOT
HETATM    1  N   UNL     1       4.872  32.951  62.630  1.00  0.00    -0.241 N 
HETATM    2  C   UNL     1       3.765  33.403  63.345  1.00  0.00     0.272 C 
HETATM    3  O   UNL     1       2.597  33.243  62.996  1.00  0.00    -0.266 OA
HETATM    4  C   UNL     1       4.080  34.190  64.564  1.00  0.00     0.054 A 
HETATM    5  C   UNL     1       5.426  34.463  64.859  1.00  0.00     0.026 A 
HETATM    6  N   UNL     1       6.466  33.986  64.035  1.00  0.00    -0.265 NA
HETATM    7  C   UNL     1       6.114  32.733  63.367  1.00  0.00     0.217 C 
HETATM    8  C   UNL     1       3.050  34.691  65.369  1.00  0.00     0.019 A 
HETATM    9  C   UNL     1       3.359  35.514  66.450  1.00  0.00     0.001 A 
HETATM   10  C   UNL     1       4.687  35.853  66.707  1.00  0.00     0.002 A 
HETATM   11  C   UNL     1       5.713  35.341  65.908  1.00  0.00     0.024 A 
HETATM   12  H   UNL     1       7.347  33.913  64.536  1.00  0.00     0.130 HD
ENDROOT
BRANCH   7  13
HETATM   13  C   UNL     1       7.280  32.266  62.512  1.00  0.00    -0.017 A 
HETATM   14  C   UNL     1       7.921  31.051  62.818  1.00  0.00     0.047 A 
HETATM   15  C   UNL     1       8.963  30.591  62.019  1.00  0.00     0.066 A 
HETATM   16  C   UNL     1       9.394  31.324  60.922  1.00  0.00     0.036 A 
HETATM   17  C   UNL     1       8.764  32.526  60.601  1.00  0.00     0.003 A 
HETATM   18  C   UNL     1       7.708  32.991  61.386  1.00  0.00     0.011 A 
BRANCH  15  19
HETATM   19  O   UNL     1       9.586  29.409  62.282  1.00  0.00    -0.361 OA
HETATM   20  H   UNL     1      10.488  29.443  61.920  1.00  0.00     0.217 HD
ENDBRANCH  15  19
ENDBRANCH   7  13
BRANCH   1  21
HETATM   21  N   UNL     1       4.616  32.053  61.458  1.00  0.00    -0.123 NA
HETATM   22  H   UNL     1       3.893  31.340  61.620  1.00  0.00     0.165 HD
BRANCH  21  23
HETATM   23  S   UNL     1       4.236  32.804  59.976  1.00  0.00     0.222 S 
HETATM   24  C   UNL     1       5.267  31.921  58.823  1.00  0.00     0.181 C 
HETATM   25  O   UNL     1       4.622  34.198  60.051  1.00  0.00    -0.210 OA
HETATM   26  O   UNL     1       2.855  32.447  59.726  1.00  0.00    -0.210 OA
ENDBRANCH  21  23
ENDBRANCH   1  21
TORSDOF 4
ENDMDL
MODEL 9
REMARK VINA RESULT:      -7.8      2.609      4.996
REMARK  4 active torsions:
REMARK  status: ('A' for Active; 'I' for Inactive)
REMARK    1  A    between atoms: S_2  and  N_3 
REMARK    2  A    between atoms: N_3  and  N_4 
REMARK    3  A    between atoms: C_10  and  C_11 
REMARK    4  A    between atoms: C_13  and  O_14 
ROOT
HETATM    1  N   UNL     1       5.429  25.943  53.522  1.00  0.00    -0.241 N 
HETATM    2  C   UNL     1       5.740  25.166  54.636  1.00  0.00     0.272 C 
HETATM    3  O   UNL     1       5.294  25.358  55.766  1.00  0.00    -0.266 OA
HETATM    4  C   UNL     1       6.741  24.095  54.399  1.00  0.00     0.054 A 
HETATM    5  C   UNL     1       7.325  23.991  53.127  1.00  0.00     0.026 A 
HETATM    6  N   UNL     1       6.960  24.864  52.081  1.00  0.00    -0.265 NA
HETATM    7  C   UNL     1       5.580  25.331  52.204  1.00  0.00     0.217 C 
HETATM    8  C   UNL     1       7.128  23.245  55.443  1.00  0.00     0.019 A 
HETATM    9  C   UNL     1       8.143  22.314  55.231  1.00  0.00     0.001 A 
HETATM   10  C   UNL     1       8.782  22.253  53.994  1.00  0.00     0.002 A 
HETATM   11  C   UNL     1       8.384  23.095  52.951  1.00  0.00     0.024 A 
HETATM   12  H   UNL     1       7.143  24.461  51.167  1.00  0.00     0.130 HD
ENDROOT
BRANCH   7  13
HETATM   13  C   UNL     1       5.246  26.250  51.042  1.00  0.00    -0.017 A 
HETATM   14  C   UNL     1       4.341  25.818  50.054  1.00  0.00     0.047 A 
HETATM   15  C   UNL     1       3.995  26.665  49.006  1.00  0.00     0.066 A 
HETATM   16  C   UNL     1       4.543  27.937  48.909  1.00  0.00     0.036 A 
HETATM   17  C   UNL     1       5.436  28.382  49.883  1.00  0.00     0.003 A 
HETATM   18  C   UNL     1       5.780  27.548  50.948  1.00  0.00     0.011 A 
BRANCH  15  19
HETATM   19  O   UNL     1       3.106  26.278  48.049  1.00  0.00    -0.361 OA
HETATM   20  H   UNL     1       2.751  27.071  47.613  1.00  0.00     0.217 HD
ENDBRANCH  15  19
ENDBRANCH   7  13
BRANCH   1  21
HETATM   21  N   UNL     1       4.339  26.960  53.673  1.00  0.00    -0.123 NA
HETATM   22  H   UNL     1       3.557  26.658  54.269  1.00  0.00     0.165 HD
BRANCH  21  23
HETATM   23  S   UNL     1       4.796  28.509  54.218  1.00  0.00     0.222 S 
HETATM   24  C   UNL     1       4.128  28.548  55.869  1.00  0.00     0.181 C 
HETATM   25  O   UNL     1       4.158  29.503  53.379  1.00  0.00    -0.210 OA
HETATM   26  O   UNL     1       6.241  28.456  54.307  1.00  0.00    -0.210 OA
ENDBRANCH  21  23
ENDBRANCH   1  21
TORSDOF 4
ENDMDL
MODEL 10
REMARK VINA RESULT:      -7.7      2.454      6.153
REMARK  4 active torsions:
REMARK  status: ('A' for Active; 'I' for Inactive)
REMARK    1  A    between atoms: S_2  and  N_3 
REMARK    2  A    between atoms: N_3  and  N_4 
REMARK    3  A    between atoms: C_10  and  C_11 
REMARK    4  A    between atoms: C_13  and  O_14 
ROOT
HETATM    1  N   UNL     1       5.874  27.711  55.122  1.00  0.00    -0.241 N 
HETATM    2  C   UNL     1       5.489  28.739  55.980  1.00  0.00     0.272 C 
HETATM    3  O   UNL     1       4.389  29.289  55.959  1.00  0.00    -0.266 OA
HETATM    4  C   UNL     1       6.544  29.214  56.910  1.00  0.00     0.054 A 
HETATM    5  C   UNL     1       7.827  28.651  56.814  1.00  0.00     0.026 A 
HETATM    6  N   UNL     1       8.113  27.639  55.874  1.00  0.00    -0.265 NA
HETATM    7  C   UNL     1       6.942  26.819  55.568  1.00  0.00     0.217 C 
HETATM    8  C   UNL     1       6.273  30.238  57.825  1.00  0.00     0.019 A 
HETATM    9  C   UNL     1       7.301  30.743  58.618  1.00  0.00     0.001 A 
HETATM   10  C   UNL     1       8.595  30.244  58.478  1.00  0.00     0.002 A 
HETATM   11  C   UNL     1       8.859  29.212  57.572  1.00  0.00     0.024 A 
HETATM   12  H   UNL     1       8.909  27.073  56.155  1.00  0.00     0.130 HD
ENDROOT
BRANCH   7  13
HETATM   13  C   UNL     1       7.321  25.741  54.567  1.00  0.00    -0.017 A 
HETATM   14  C   UNL     1       7.215  24.387  54.933  1.00  0.00     0.047 A 
HETATM   15  C   UNL     1       7.520  23.389  54.013  1.00  0.00     0.066 A 
HETATM   16  C   UNL     1       7.943  23.710  52.730  1.00  0.00     0.036 A 
HETATM   17  C   UNL     1       8.046  25.047  52.350  1.00  0.00     0.003 A 
HETATM   18  C   UNL     1       7.729  26.058  53.259  1.00  0.00     0.011 A 
BRANCH  15  19
HETATM   19  O   UNL     1       7.407  22.071  54.336  1.00  0.00    -0.361 OA
HETATM   20  H   UNL     1       7.420  21.983  55.304  1.00  0.00     0.217 HD
ENDBRANCH  15  19
ENDBRANCH   7  13
BRANCH   1  21
HETATM   21  N   UNL     1       4.817  27.112  54.244  1.00  0.00    -0.123 NA
HETATM   22  H   UNL     1       3.900  27.007  54.698  1.00  0.00     0.165 HD
BRANCH  21  23
HETATM   23  S   UNL     1       4.535  27.872  52.746  1.00  0.00     0.222 S 
HETATM   24  C   UNL     1       4.666  26.517  51.597  1.00  0.00     0.181 C 
HETATM   25  O   UNL     1       5.582  28.846  52.516  1.00  0.00    -0.210 OA
HETATM   26  O   UNL     1       3.152  28.296  52.802  1.00  0.00    -0.210 OA
ENDBRANCH  21  23
ENDBRANCH   1  21
TORSDOF 4
ENDMDL
