MODEL 1
REMARK VINA RESULT:      -9.1      0.000      0.000
REMARK  4 active torsions:
REMARK  status: ('A' for Active; 'I' for Inactive)
REMARK    1  A    between atoms: C_2  and  C_3 
REMARK       I    between atoms: C_3  and  N_4 
REMARK    2  A    between atoms: N_4  and  C_5 
REMARK    3  A    between atoms: C_12  and  C_13 
REMARK       I    between atoms: C_13  and  N_14 
REMARK    4  A    between atoms: C_19  and  C_20 
ROOT
HETATM    1  C   UNL     1       6.993  28.145  56.517  1.00  0.00     0.036 A 
HETATM    2  C   UNL     1       7.397  29.034  57.522  1.00  0.00     0.046 A 
HETATM    3  C   UNL     1       6.779  30.299  57.621  1.00  0.00     0.030 A 
HETATM    4  C   UNL     1       5.762  30.620  56.731  1.00  0.00     0.063 A 
HETATM    5  N   UNL     1       5.353  31.876  57.084  1.00  0.00    -0.277 N 
HETATM    6  H   UNL     1       4.617  32.425  56.655  1.00  0.00     0.189 HD
HETATM    7  N   UNL     1       6.035  32.417  58.105  1.00  0.00    -0.168 NA
HETATM    8  C   UNL     1       6.926  31.457  58.445  1.00  0.00     0.156 A 
HETATM    9  C   UNL     1       5.332  29.758  55.720  1.00  0.00     0.034 A 
HETATM   10  C   UNL     1       5.980  28.521  55.624  1.00  0.00     0.032 A 
ENDROOT
BRANCH   1  11
HETATM   11  N   UNL     1       7.567  26.872  56.330  1.00  0.00    -0.323 N 
HETATM   12  C   UNL     1       7.060  25.662  56.749  1.00  0.00     0.251 C 
HETATM   13  O   UNL     1       5.988  25.432  57.289  1.00  0.00    -0.268 OA
HETATM   14  H   UNL     1       8.422  26.837  55.791  1.00  0.00     0.169 HD
BRANCH  12  15
HETATM   15  C   UNL     1       7.966  24.533  56.390  1.00  0.00     0.007 C 
HETATM   16  C   UNL     1       8.854  24.072  57.504  1.00  0.00     0.054 C 
HETATM   17  C   UNL     1       7.981  24.004  55.153  1.00  0.00     0.023 C 
BRANCH  17  18
HETATM   18  C   UNL     1       7.201  24.457  53.994  1.00  0.00    -0.035 A 
HETATM   19  C   UNL     1       5.802  24.527  54.034  1.00  0.00     0.013 A 
HETATM   20  C   UNL     1       5.082  25.009  52.938  1.00  0.00     0.024 A 
HETATM   21  C   UNL     1       5.761  25.436  51.800  1.00  0.00     0.034 A 
HETATM   22 CL   UNL     1       4.880  26.040  50.452  1.00  0.00    -0.084 Cl
HETATM   23  C   UNL     1       7.153  25.388  51.751  1.00  0.00     0.024 A 
HETATM   24  C   UNL     1       7.872  24.903  52.849  1.00  0.00     0.013 A 
ENDBRANCH  17  18
ENDBRANCH  12  15
ENDBRANCH   1  11
BRANCH   8  25
HETATM   25  C   UNL     1       7.898  31.672  59.525  1.00  0.00     0.270 C 
HETATM   26  N   UNL     1       7.715  30.858  60.610  1.00  0.00    -0.365 N 
HETATM   27  H   UNL     1       6.938  30.208  60.602  1.00  0.00     0.159 HD
HETATM   28  H   UNL     1       8.310  30.962  61.417  1.00  0.00     0.159 HD
HETATM   29  O   UNL     1       8.796  32.507  59.503  1.00  0.00    -0.266 OA
ENDBRANCH   8  25
TORSDOF 4
ENDMDL
MODEL 2
REMARK VINA RESULT:      -9.0      2.431      3.584
REMARK  4 active torsions:
REMARK  status: ('A' for Active; 'I' for Inactive)
REMARK    1  A    between atoms: C_2  and  C_3 
REMARK       I    between atoms: C_3  and  N_4 
REMARK    2  A    between atoms: N_4  and  C_5 
REMARK    3  A    between atoms: C_12  and  C_13 
REMARK       I    between atoms: C_13  and  N_14 
REMARK    4  A    between atoms: C_19  and  C_20 
ROOT
HETATM    1  C   UNL     1       6.822  28.564  56.308  1.00  0.00     0.036 A 
HETATM    2  C   UNL     1       6.452  29.687  57.060  1.00  0.00     0.046 A 
HETATM    3  C   UNL     1       7.386  30.273  57.941  1.00  0.00     0.030 A 
HETATM    4  C   UNL     1       8.664  29.733  58.020  1.00  0.00     0.063 A 
HETATM    5  N   UNL     1       9.333  30.513  58.922  1.00  0.00    -0.277 N 
HETATM    6  H   UNL     1      10.297  30.417  59.220  1.00  0.00     0.189 HD
HETATM    7  N   UNL     1       8.595  31.494  59.465  1.00  0.00    -0.168 NA
HETATM    8  C   UNL     1       7.386  31.355  58.873  1.00  0.00     0.156 A 
HETATM    9  C   UNL     1       9.067  28.618  57.283  1.00  0.00     0.034 A 
HETATM   10  C   UNL     1       8.115  28.037  56.438  1.00  0.00     0.032 A 
ENDROOT
BRANCH   1  11
HETATM   11  N   UNL     1       5.951  27.903  55.421  1.00  0.00    -0.323 N 
HETATM   12  C   UNL     1       6.064  27.821  54.051  1.00  0.00     0.251 C 
HETATM   13  O   UNL     1       6.970  28.227  53.336  1.00  0.00    -0.268 OA
HETATM   14  H   UNL     1       5.182  27.395  55.838  1.00  0.00     0.169 HD
BRANCH  12  15
HETATM   15  C   UNL     1       4.933  27.058  53.450  1.00  0.00     0.007 C 
HETATM   16  C   UNL     1       3.725  27.884  53.135  1.00  0.00     0.054 C 
HETATM   17  C   UNL     1       5.008  25.730  53.239  1.00  0.00     0.023 C 
BRANCH  17  18
HETATM   18  C   UNL     1       6.124  24.846  53.597  1.00  0.00    -0.035 A 
HETATM   19  C   UNL     1       6.316  24.402  54.913  1.00  0.00     0.013 A 
HETATM   20  C   UNL     1       7.356  23.522  55.222  1.00  0.00     0.024 A 
HETATM   21  C   UNL     1       8.200  23.069  54.212  1.00  0.00     0.034 A 
HETATM   22 CL   UNL     1       9.475  21.976  54.586  1.00  0.00    -0.084 Cl
HETATM   23  C   UNL     1       8.013  23.488  52.896  1.00  0.00     0.024 A 
HETATM   24  C   UNL     1       6.973  24.371  52.589  1.00  0.00     0.013 A 
ENDBRANCH  17  18
ENDBRANCH  12  15
ENDBRANCH   1  11
BRANCH   8  25
HETATM   25  C   UNL     1       6.265  32.239  59.222  1.00  0.00     0.270 C 
HETATM   26  N   UNL     1       5.737  32.008  60.463  1.00  0.00    -0.365 N 
HETATM   27  H   UNL     1       6.124  31.256  61.021  1.00  0.00     0.159 HD
HETATM   28  H   UNL     1       4.939  32.539  60.772  1.00  0.00     0.159 HD
HETATM   29  O   UNL     1       5.803  33.107  58.488  1.00  0.00    -0.266 OA
ENDBRANCH   8  25
TORSDOF 4
ENDMDL
MODEL 3
REMARK VINA RESULT:      -9.0      2.784      3.961
REMARK  4 active torsions:
REMARK  status: ('A' for Active; 'I' for Inactive)
REMARK    1  A    between atoms: C_2  and  C_3 
REMARK       I    between atoms: C_3  and  N_4 
REMARK    2  A    between atoms: N_4  and  C_5 
REMARK    3  A    between atoms: C_12  and  C_13 
REMARK       I    between atoms: C_13  and  N_14 
REMARK    4  A    between atoms: C_19  and  C_20 
ROOT
HETATM    1  C   UNL     1       7.171  27.675  55.361  1.00  0.00     0.036 A 
HETATM    2  C   UNL     1       8.292  28.381  55.817  1.00  0.00     0.046 A 
HETATM    3  C   UNL     1       8.223  29.078  57.043  1.00  0.00     0.030 A 
HETATM    4  C   UNL     1       7.047  29.023  57.781  1.00  0.00     0.063 A 
HETATM    5  N   UNL     1       7.289  29.762  58.905  1.00  0.00    -0.277 N 
HETATM    6  H   UNL     1       6.654  29.932  59.676  1.00  0.00     0.189 HD
HETATM    7  N   UNL     1       8.508  30.323  58.952  1.00  0.00    -0.168 NA
HETATM    8  C   UNL     1       9.096  29.915  57.803  1.00  0.00     0.156 A 
HETATM    9  C   UNL     1       5.913  28.327  57.358  1.00  0.00     0.034 A 
HETATM   10  C   UNL     1       5.996  27.668  56.127  1.00  0.00     0.032 A 
ENDROOT
BRANCH   1  11
HETATM   11  N   UNL     1       7.141  26.969  54.142  1.00  0.00    -0.323 N 
HETATM   12  C   UNL     1       6.396  25.849  53.849  1.00  0.00     0.251 C 
HETATM   13  O   UNL     1       5.558  25.289  54.541  1.00  0.00    -0.268 OA
HETATM   14  H   UNL     1       7.694  27.350  53.386  1.00  0.00     0.169 HD
BRANCH  12  15
HETATM   15  C   UNL     1       6.651  25.367  52.461  1.00  0.00     0.007 C 
HETATM   16  C   UNL     1       6.060  26.227  51.388  1.00  0.00     0.054 C 
HETATM   17  C   UNL     1       7.338  24.235  52.218  1.00  0.00     0.023 C 
BRANCH  17  18
HETATM   18  C   UNL     1       7.873  23.302  53.219  1.00  0.00    -0.035 A 
HETATM   19  C   UNL     1       8.494  23.759  54.389  1.00  0.00     0.013 A 
HETATM   20  C   UNL     1       8.952  22.854  55.351  1.00  0.00     0.024 A 
HETATM   21  C   UNL     1       8.776  21.487  55.151  1.00  0.00     0.034 A 
HETATM   22 CL   UNL     1       9.328  20.370  56.338  1.00  0.00    -0.084 Cl
HETATM   23  C   UNL     1       8.146  21.019  54.000  1.00  0.00     0.024 A 
HETATM   24  C   UNL     1       7.691  21.926  53.038  1.00  0.00     0.013 A 
ENDBRANCH  17  18
ENDBRANCH  12  15
ENDBRANCH   1  11
BRANCH   8  25
HETATM   25  C   UNL     1      10.457  30.344  57.454  1.00  0.00     0.270 C 
HETATM   26  N   UNL     1      11.194  29.391  56.804  1.00  0.00    -0.365 N 
HETATM   27  H   UNL     1      10.773  28.484  56.639  1.00  0.00     0.159 HD
HETATM   28  H   UNL     1      12.153  29.581  56.561  1.00  0.00     0.159 HD
HETATM   29  O   UNL     1      10.935  31.442  57.720  1.00  0.00    -0.266 OA
ENDBRANCH   8  25
TORSDOF 4
ENDMDL
MODEL 4
REMARK VINA RESULT:      -8.8      4.015      6.216
REMARK  4 active torsions:
REMARK  status: ('A' for Active; 'I' for Inactive)
REMARK    1  A    between atoms: C_2  and  C_3 
REMARK       I    between atoms: C_3  and  N_4 
REMARK    2  A    between atoms: N_4  and  C_5 
REMARK    3  A    between atoms: C_12  and  C_13 
REMARK       I    between atoms: C_13  and  N_14 
REMARK    4  A    between atoms: C_19  and  C_20 
ROOT
HETATM    1  C   UNL     1       6.403  26.285  53.550  1.00  0.00     0.036 A 
HETATM    2  C   UNL     1       6.250  27.484  52.843  1.00  0.00     0.046 A 
HETATM    3  C   UNL     1       5.532  27.488  51.626  1.00  0.00     0.030 A 
HETATM    4  C   UNL     1       4.973  26.300  51.175  1.00  0.00     0.063 A 
HETATM    5  N   UNL     1       4.336  26.619  50.007  1.00  0.00    -0.277 N 
HETATM    6  H   UNL     1       3.808  25.996  49.407  1.00  0.00     0.189 HD
HETATM    7  N   UNL     1       4.457  27.904  49.640  1.00  0.00    -0.168 NA
HETATM    8  C   UNL     1       5.201  28.454  50.628  1.00  0.00     0.156 A 
HETATM    9  C   UNL     1       5.103  25.087  51.855  1.00  0.00     0.034 A 
HETATM   10  C   UNL     1       5.843  25.104  53.043  1.00  0.00     0.032 A 
ENDROOT
BRANCH   1  11
HETATM   11  N   UNL     1       7.118  26.183  54.759  1.00  0.00    -0.323 N 
HETATM   12  C   UNL     1       6.627  25.791  55.985  1.00  0.00     0.251 C 
HETATM   13  O   UNL     1       5.510  25.378  56.261  1.00  0.00    -0.268 OA
HETATM   14  H   UNL     1       8.110  26.376  54.715  1.00  0.00     0.169 HD
BRANCH  12  15
HETATM   15  C   UNL     1       7.682  25.833  57.038  1.00  0.00     0.007 C 
HETATM   16  C   UNL     1       7.744  27.120  57.801  1.00  0.00     0.054 C 
HETATM   17  C   UNL     1       8.512  24.796  57.251  1.00  0.00     0.023 C 
BRANCH  17  18
HETATM   18  C   UNL     1       8.562  23.541  56.490  1.00  0.00    -0.035 A 
HETATM   19  C   UNL     1       8.964  23.512  55.148  1.00  0.00     0.013 A 
HETATM   20  C   UNL     1       9.051  22.301  54.457  1.00  0.00     0.024 A 
HETATM   21  C   UNL     1       8.751  21.109  55.112  1.00  0.00     0.034 A 
HETATM   22 CL   UNL     1       8.869  19.614  54.269  1.00  0.00    -0.084 Cl
HETATM   23  C   UNL     1       8.366  21.120  56.451  1.00  0.00     0.024 A 
HETATM   24  C   UNL     1       8.277  22.334  57.141  1.00  0.00     0.013 A 
ENDBRANCH  17  18
ENDBRANCH  12  15
ENDBRANCH   1  11
BRANCH   8  25
HETATM   25  C   UNL     1       5.588  29.871  50.586  1.00  0.00     0.270 C 
HETATM   26  N   UNL     1       4.978  30.644  51.536  1.00  0.00    -0.365 N 
HETATM   27  H   UNL     1       4.310  30.207  52.159  1.00  0.00     0.159 HD
HETATM   28  H   UNL     1       5.152  31.637  51.558  1.00  0.00     0.159 HD
HETATM   29  O   UNL     1       6.371  30.359  49.777  1.00  0.00    -0.266 OA
ENDBRANCH   8  25
TORSDOF 4
ENDMDL
MODEL 5
REMARK VINA RESULT:      -8.7      4.766      7.749
REMARK  4 active torsions:
REMARK  status: ('A' for Active; 'I' for Inactive)
REMARK    1  A    between atoms: C_2  and  C_3 
REMARK       I    between atoms: C_3  and  N_4 
REMARK    2  A    between atoms: N_4  and  C_5 
REMARK    3  A    between atoms: C_12  and  C_13 
REMARK       I    between atoms: C_13  and  N_14 
REMARK    4  A    between atoms: C_19  and  C_20 
ROOT
HETATM    1  C   UNL     1       5.585  25.958  51.829  1.00  0.00     0.036 A 
HETATM    2  C   UNL     1       4.925  25.669  50.628  1.00  0.00     0.046 A 
HETATM    3  C   UNL     1       4.475  26.727  49.808  1.00  0.00     0.030 A 
HETATM    4  C   UNL     1       4.723  28.035  50.206  1.00  0.00     0.063 A 
HETATM    5  N   UNL     1       4.199  28.821  49.218  1.00  0.00    -0.277 N 
HETATM    6  H   UNL     1       4.207  29.833  49.171  1.00  0.00     0.189 HD
HETATM    7  N   UNL     1       3.601  28.143  48.226  1.00  0.00    -0.168 NA
HETATM    8  C   UNL     1       3.757  26.846  48.580  1.00  0.00     0.156 A 
HETATM    9  C   UNL     1       5.380  28.360  51.395  1.00  0.00     0.034 A 
HETATM   10  C   UNL     1       5.791  27.294  52.204  1.00  0.00     0.032 A 
ENDROOT
BRANCH   1  11
HETATM   11  N   UNL     1       6.050  24.969  52.718  1.00  0.00    -0.323 N 
HETATM   12  C   UNL     1       7.352  24.561  52.900  1.00  0.00     0.251 C 
HETATM   13  O   UNL     1       8.370  25.018  52.400  1.00  0.00    -0.268 OA
HETATM   14  H   UNL     1       5.358  24.541  53.319  1.00  0.00     0.169 HD
BRANCH  12  15
HETATM   15  C   UNL     1       7.450  23.468  53.910  1.00  0.00     0.007 C 
HETATM   16  C   UNL     1       7.732  22.116  53.335  1.00  0.00     0.054 C 
HETATM   17  C   UNL     1       7.272  23.701  55.224  1.00  0.00     0.023 C 
BRANCH  17  18
HETATM   18  C   UNL     1       6.913  24.981  55.848  1.00  0.00    -0.035 A 
HETATM   19  C   UNL     1       7.886  25.933  56.182  1.00  0.00     0.013 A 
HETATM   20  C   UNL     1       7.517  27.164  56.730  1.00  0.00     0.024 A 
HETATM   21  C   UNL     1       6.170  27.455  56.932  1.00  0.00     0.034 A 
HETATM   22 CL   UNL     1       5.711  28.974  57.595  1.00  0.00    -0.084 Cl
HETATM   23  C   UNL     1       5.190  26.525  56.590  1.00  0.00     0.024 A 
HETATM   24  C   UNL     1       5.561  25.292  56.044  1.00  0.00     0.013 A 
ENDBRANCH  17  18
ENDBRANCH  12  15
ENDBRANCH   1  11
BRANCH   8  25
HETATM   25  C   UNL     1       3.207  25.763  47.753  1.00  0.00     0.270 C 
HETATM   26  N   UNL     1       2.789  24.673  48.467  1.00  0.00    -0.365 N 
HETATM   27  H   UNL     1       2.908  24.679  49.473  1.00  0.00     0.159 HD
HETATM   28  H   UNL     1       2.435  23.864  47.982  1.00  0.00     0.159 HD
HETATM   29  O   UNL     1       3.128  25.787  46.529  1.00  0.00    -0.266 OA
ENDBRANCH   8  25
TORSDOF 4
ENDMDL
MODEL 6
REMARK VINA RESULT:      -8.5      6.981     11.226
REMARK  4 active torsions:
REMARK  status: ('A' for Active; 'I' for Inactive)
REMARK    1  A    between atoms: C_2  and  C_3 
REMARK       I    between atoms: C_3  and  N_4 
REMARK    2  A    between atoms: N_4  and  C_5 
REMARK    3  A    between atoms: C_12  and  C_13 
REMARK       I    between atoms: C_13  and  N_14 
REMARK    4  A    between atoms: C_19  and  C_20 
ROOT
HETATM    1  C   UNL     1       6.844  33.243  63.210  1.00  0.00     0.036 A 
HETATM    2  C   UNL     1       6.292  33.051  61.937  1.00  0.00     0.046 A 
HETATM    3  C   UNL     1       6.899  32.140  61.045  1.00  0.00     0.030 A 
HETATM    4  C   UNL     1       8.019  31.435  61.467  1.00  0.00     0.063 A 
HETATM    5  N   UNL     1       8.361  30.632  60.414  1.00  0.00    -0.277 N 
HETATM    6  H   UNL     1       9.127  29.971  60.371  1.00  0.00     0.189 HD
HETATM    7  N   UNL     1       7.582  30.774  59.330  1.00  0.00    -0.168 NA
HETATM    8  C   UNL     1       6.676  31.709  59.702  1.00  0.00     0.156 A 
HETATM    9  C   UNL     1       8.594  31.599  62.728  1.00  0.00     0.034 A 
HETATM   10  C   UNL     1       7.991  32.529  63.584  1.00  0.00     0.032 A 
ENDROOT
BRANCH   1  11
HETATM   11  N   UNL     1       6.318  34.144  64.156  1.00  0.00    -0.323 N 
HETATM   12  C   UNL     1       5.145  34.015  64.864  1.00  0.00     0.251 C 
HETATM   13  O   UNL     1       4.366  33.073  64.883  1.00  0.00    -0.268 OA
HETATM   14  H   UNL     1       6.885  34.954  64.372  1.00  0.00     0.169 HD
BRANCH  12  15
HETATM   15  C   UNL     1       4.908  35.188  65.755  1.00  0.00     0.007 C 
HETATM   16  C   UNL     1       4.870  34.860  67.215  1.00  0.00     0.054 C 
HETATM   17  C   UNL     1       4.723  36.427  65.261  1.00  0.00     0.023 C 
BRANCH  17  18
HETATM   18  C   UNL     1       4.665  36.807  63.844  1.00  0.00    -0.035 A 
HETATM   19  C   UNL     1       3.483  36.690  63.100  1.00  0.00     0.013 A 
HETATM   20  C   UNL     1       3.438  37.104  61.766  1.00  0.00     0.024 A 
HETATM   21  C   UNL     1       4.574  37.651  61.175  1.00  0.00     0.034 A 
HETATM   22 CL   UNL     1       4.520  38.173  59.537  1.00  0.00    -0.084 Cl
HETATM   23  C   UNL     1       5.752  37.789  61.906  1.00  0.00     0.024 A 
HETATM   24  C   UNL     1       5.796  37.372  63.241  1.00  0.00     0.013 A 
ENDBRANCH  17  18
ENDBRANCH  12  15
ENDBRANCH   1  11
BRANCH   8  25
HETATM   25  C   UNL     1       5.642  32.176  58.769  1.00  0.00     0.270 C 
HETATM   26  N   UNL     1       4.448  31.515  58.884  1.00  0.00    -0.365 N 
HETATM   27  H   UNL     1       4.374  30.765  59.560  1.00  0.00     0.159 HD
HETATM   28  H   UNL     1       3.692  31.740  58.257  1.00  0.00     0.159 HD
HETATM   29  O   UNL     1       5.798  33.061  57.935  1.00  0.00    -0.266 OA
ENDBRANCH   8  25
TORSDOF 4
ENDMDL
MODEL 7
REMARK VINA RESULT:      -8.4      3.885      7.054
REMARK  4 active torsions:
REMARK  status: ('A' for Active; 'I' for Inactive)
REMARK    1  A    between atoms: C_2  and  C_3 
REMARK       I    between atoms: C_3  and  N_4 
REMARK    2  A    between atoms: N_4  and  C_5 
REMARK    3  A    between atoms: C_12  and  C_13 
REMARK       I    between atoms: C_13  and  N_14 
REMARK    4  A    between atoms: C_19  and  C_20 
ROOT
HETATM    1  C   UNL     1       6.577  25.238  53.812  1.00  0.00     0.036 A 
HETATM    2  C   UNL     1       7.029  24.508  54.919  1.00  0.00     0.046 A 
HETATM    3  C   UNL     1       7.834  23.366  54.717  1.00  0.00     0.030 A 
HETATM    4  C   UNL     1       8.178  23.009  53.419  1.00  0.00     0.063 A 
HETATM    5  N   UNL     1       8.964  21.897  53.545  1.00  0.00    -0.277 N 
HETATM    6  H   UNL     1       9.404  21.370  52.799  1.00  0.00     0.189 HD
HETATM    7  N   UNL     1       9.136  21.476  54.808  1.00  0.00    -0.168 NA
HETATM    8  C   UNL     1       8.437  22.371  55.545  1.00  0.00     0.156 A 
HETATM    9  C   UNL     1       7.747  23.714  52.294  1.00  0.00     0.034 A 
HETATM   10  C   UNL     1       6.927  24.826  52.518  1.00  0.00     0.032 A 
ENDROOT
BRANCH   1  11
HETATM   11  N   UNL     1       5.755  26.377  53.917  1.00  0.00    -0.323 N 
HETATM   12  C   UNL     1       6.154  27.695  53.893  1.00  0.00     0.251 C 
HETATM   13  O   UNL     1       7.272  28.148  53.698  1.00  0.00    -0.268 OA
HETATM   14  H   UNL     1       4.759  26.212  53.972  1.00  0.00     0.169 HD
BRANCH  12  15
HETATM   15  C   UNL     1       4.998  28.623  54.058  1.00  0.00     0.007 C 
HETATM   16  C   UNL     1       4.593  28.862  55.479  1.00  0.00     0.054 C 
HETATM   17  C   UNL     1       4.371  29.169  53.000  1.00  0.00     0.023 C 
BRANCH  17  18
HETATM   18  C   UNL     1       4.660  28.916  51.582  1.00  0.00    -0.035 A 
HETATM   19  C   UNL     1       5.435  29.802  50.821  1.00  0.00     0.013 A 
HETATM   20  C   UNL     1       5.738  29.517  49.488  1.00  0.00     0.024 A 
HETATM   21  C   UNL     1       5.279  28.334  48.913  1.00  0.00     0.034 A 
HETATM   22 CL   UNL     1       5.660  27.973  47.275  1.00  0.00    -0.084 Cl
HETATM   23  C   UNL     1       4.521  27.435  49.661  1.00  0.00     0.024 A 
HETATM   24  C   UNL     1       4.216  27.724  50.995  1.00  0.00     0.013 A 
ENDBRANCH  17  18
ENDBRANCH  12  15
ENDBRANCH   1  11
BRANCH   8  25
HETATM   25  C   UNL     1       8.350  22.245  57.006  1.00  0.00     0.270 C 
HETATM   26  N   UNL     1       8.402  23.439  57.673  1.00  0.00    -0.365 N 
HETATM   27  H   UNL     1       8.518  24.289  57.135  1.00  0.00     0.159 HD
HETATM   28  H   UNL     1       8.389  23.448  58.681  1.00  0.00     0.159 HD
HETATM   29  O   UNL     1       8.256  21.183  57.613  1.00  0.00    -0.266 OA
ENDBRANCH   8  25
TORSDOF 4
ENDMDL
MODEL 8
REMARK VINA RESULT:      -8.3      4.561      6.669
REMARK  4 active torsions:
REMARK  status: ('A' for Active; 'I' for Inactive)
REMARK    1  A    between atoms: C_2  and  C_3 
REMARK       I    between atoms: C_3  and  N_4 
REMARK    2  A    between atoms: N_4  and  C_5 
REMARK    3  A    between atoms: C_12  and  C_13 
REMARK       I    between atoms: C_13  and  N_14 
REMARK    4  A    between atoms: C_19  and  C_20 
ROOT
HETATM    1  C   UNL     1       5.486  27.068  52.169  1.00  0.00     0.036 A 
HETATM    2  C   UNL     1       5.500  28.327  51.555  1.00  0.00     0.046 A 
HETATM    3  C   UNL     1       5.195  28.435  50.181  1.00  0.00     0.030 A 
HETATM    4  C   UNL     1       4.861  27.286  49.476  1.00  0.00     0.063 A 
HETATM    5  N   UNL     1       4.601  27.704  48.201  1.00  0.00    -0.277 N 
HETATM    6  H   UNL     1       4.315  27.132  47.414  1.00  0.00     0.189 HD
HETATM    7  N   UNL     1       4.767  29.021  48.002  1.00  0.00    -0.168 NA
HETATM    8  C   UNL     1       5.142  29.487  49.216  1.00  0.00     0.156 A 
HETATM    9  C   UNL     1       4.834  26.016  50.056  1.00  0.00     0.034 A 
HETATM   10  C   UNL     1       5.168  25.931  51.413  1.00  0.00     0.032 A 
ENDROOT
BRANCH   1  11
HETATM   11  N   UNL     1       5.797  26.863  53.528  1.00  0.00    -0.323 N 
HETATM   12  C   UNL     1       7.047  26.863  54.103  1.00  0.00     0.251 C 
HETATM   13  O   UNL     1       8.125  27.117  53.584  1.00  0.00    -0.268 OA
HETATM   14  H   UNL     1       5.013  26.746  54.157  1.00  0.00     0.169 HD
BRANCH  12  15
HETATM   15  C   UNL     1       6.979  26.583  55.566  1.00  0.00     0.007 C 
HETATM   16  C   UNL     1       6.678  27.779  56.413  1.00  0.00     0.054 C 
HETATM   17  C   UNL     1       7.199  25.351  56.062  1.00  0.00     0.023 C 
BRANCH  17  18
HETATM   18  C   UNL     1       7.579  24.153  55.302  1.00  0.00    -0.035 A 
HETATM   19  C   UNL     1       6.869  23.751  54.163  1.00  0.00     0.013 A 
HETATM   20  C   UNL     1       7.278  22.637  53.426  1.00  0.00     0.024 A 
HETATM   21  C   UNL     1       8.410  21.928  53.817  1.00  0.00     0.034 A 
HETATM   22 CL   UNL     1       8.924  20.562  52.906  1.00  0.00    -0.084 Cl
HETATM   23  C   UNL     1       9.137  22.325  54.939  1.00  0.00     0.024 A 
HETATM   24  C   UNL     1       8.724  23.439  55.676  1.00  0.00     0.013 A 
ENDBRANCH  17  18
ENDBRANCH  12  15
ENDBRANCH   1  11
BRANCH   8  25
HETATM   25  C   UNL     1       5.454  30.908  49.420  1.00  0.00     0.270 C 
HETATM   26  N   UNL     1       4.515  31.764  48.911  1.00  0.00    -0.365 N 
HETATM   27  H   UNL     1       3.715  31.372  48.427  1.00  0.00     0.159 HD
HETATM   28  H   UNL     1       4.664  32.759  48.967  1.00  0.00     0.159 HD
HETATM   29  O   UNL     1       6.463  31.331  49.974  1.00  0.00    -0.266 OA
ENDBRANCH   8  25
TORSDOF 4
ENDMDL
MODEL 9
REMARK VINA RESULT:      -8.0      2.466      3.677
REMARK  4 active torsions:
REMARK  status: ('A' for Active; 'I' for Inactive)
REMARK    1  A    between atoms: C_2  and  C_3 
REMARK       I    between atoms: C_3  and  N_4 
REMARK    2  A    between atoms: N_4  and  C_5 
REMARK    3  A    between atoms: C_12  and  C_13 
REMARK       I    between atoms: C_13  and  N_14 
REMARK    4  A    between atoms: C_19  and  C_20 
ROOT
HETATM    1  C   UNL     1       5.261  29.046  54.600  1.00  0.00     0.036 A 
HETATM    2  C   UNL     1       6.097  28.961  55.722  1.00  0.00     0.046 A 
HETATM    3  C   UNL     1       6.091  30.003  56.674  1.00  0.00     0.030 A 
HETATM    4  C   UNL     1       5.233  31.080  56.484  1.00  0.00     0.063 A 
HETATM    5  N   UNL     1       5.435  31.899  57.560  1.00  0.00    -0.277 N 
HETATM    6  H   UNL     1       4.968  32.777  57.759  1.00  0.00     0.189 HD
HETATM    7  N   UNL     1       6.373  31.469  58.419  1.00  0.00    -0.168 NA
HETATM    8  C   UNL     1       6.793  30.301  57.881  1.00  0.00     0.156 A 
HETATM    9  C   UNL     1       4.386  31.195  55.381  1.00  0.00     0.034 A 
HETATM   10  C   UNL     1       4.430  30.163  54.437  1.00  0.00     0.032 A 
ENDROOT
BRANCH   1  11
HETATM   11  N   UNL     1       5.216  28.065  53.590  1.00  0.00    -0.323 N 
HETATM   12  C   UNL     1       6.285  27.482  52.949  1.00  0.00     0.251 C 
HETATM   13  O   UNL     1       7.479  27.628  53.171  1.00  0.00    -0.268 OA
HETATM   14  H   UNL     1       4.299  27.718  53.339  1.00  0.00     0.169 HD
BRANCH  12  15
HETATM   15  C   UNL     1       5.840  26.502  51.916  1.00  0.00     0.007 C 
HETATM   16  C   UNL     1       5.134  27.112  50.747  1.00  0.00     0.054 C 
HETATM   17  C   UNL     1       6.048  25.180  52.059  1.00  0.00     0.023 C 
BRANCH  17  18
HETATM   18  C   UNL     1       6.657  24.506  53.213  1.00  0.00    -0.035 A 
HETATM   19  C   UNL     1       6.137  24.651  54.506  1.00  0.00     0.013 A 
HETATM   20  C   UNL     1       6.703  23.962  55.582  1.00  0.00     0.024 A 
HETATM   21  C   UNL     1       7.784  23.112  55.365  1.00  0.00     0.034 A 
HETATM   22 CL   UNL     1       8.477  22.252  56.684  1.00  0.00    -0.084 Cl
HETATM   23  C   UNL     1       8.303  22.945  54.082  1.00  0.00     0.024 A 
HETATM   24  C   UNL     1       7.737  23.637  53.007  1.00  0.00     0.013 A 
ENDBRANCH  17  18
ENDBRANCH  12  15
ENDBRANCH   1  11
BRANCH   8  25
HETATM   25  C   UNL     1       7.858  29.513  58.518  1.00  0.00     0.270 C 
HETATM   26  N   UNL     1       8.602  30.214  59.428  1.00  0.00    -0.365 N 
HETATM   27  H   UNL     1       8.391  31.194  59.573  1.00  0.00     0.159 HD
HETATM   28  H   UNL     1       9.381  29.766  59.885  1.00  0.00     0.159 HD
HETATM   29  O   UNL     1       8.102  28.337  58.270  1.00  0.00    -0.266 OA
ENDBRANCH   8  25
TORSDOF 4
ENDMDL
MODEL 10
REMARK VINA RESULT:      -8.0      7.423     12.479
REMARK  4 active torsions:
REMARK  status: ('A' for Active; 'I' for Inactive)
REMARK    1  A    between atoms: C_2  and  C_3 
REMARK       I    between atoms: C_3  and  N_4 
REMARK    2  A    between atoms: N_4  and  C_5 
REMARK    3  A    between atoms: C_12  and  C_13 
REMARK       I    between atoms: C_13  and  N_14 
REMARK    4  A    between atoms: C_19  and  C_20 
ROOT
HETATM    1  C   UNL     1       6.595  33.477  62.874  1.00  0.00     0.036 A 
HETATM    2  C   UNL     1       6.352  33.081  61.552  1.00  0.00     0.046 A 
HETATM    3  C   UNL     1       7.126  32.046  60.983  1.00  0.00     0.030 A 
HETATM    4  C   UNL     1       8.096  31.428  61.762  1.00  0.00     0.063 A 
HETATM    5  N   UNL     1       8.652  30.472  60.959  1.00  0.00    -0.277 N 
HETATM    6  H   UNL     1       9.388  29.819  61.202  1.00  0.00     0.189 HD
HETATM    7  N   UNL     1       8.154  30.433  59.713  1.00  0.00    -0.168 NA
HETATM    8  C   UNL     1       7.214  31.406  59.710  1.00  0.00     0.156 A 
HETATM    9  C   UNL     1       8.362  31.795  63.083  1.00  0.00     0.034 A 
HETATM   10  C   UNL     1       7.602  32.842  63.615  1.00  0.00     0.032 A 
ENDROOT
BRANCH   1  11
HETATM   11  N   UNL     1       5.887  34.512  63.517  1.00  0.00    -0.323 N 
HETATM   12  C   UNL     1       4.717  34.398  64.233  1.00  0.00     0.251 C 
HETATM   13  O   UNL     1       4.100  33.385  64.527  1.00  0.00    -0.268 OA
HETATM   14  H   UNL     1       6.306  35.432  63.486  1.00  0.00     0.169 HD
BRANCH  12  15
HETATM   15  C   UNL     1       4.253  35.721  64.743  1.00  0.00     0.007 C 
HETATM   16  C   UNL     1       3.696  36.629  63.692  1.00  0.00     0.054 C 
HETATM   17  C   UNL     1       4.360  36.055  66.042  1.00  0.00     0.023 C 
BRANCH  17  18
HETATM   18  C   UNL     1       4.968  35.250  67.109  1.00  0.00    -0.035 A 
HETATM   19  C   UNL     1       6.234  35.555  67.627  1.00  0.00     0.013 A 
HETATM   20  C   UNL     1       6.773  34.805  68.676  1.00  0.00     0.024 A 
HETATM   21  C   UNL     1       6.040  33.755  69.222  1.00  0.00     0.034 A 
HETATM   22 CL   UNL     1       6.694  32.837  70.521  1.00  0.00    -0.084 Cl
HETATM   23  C   UNL     1       4.773  33.450  68.728  1.00  0.00     0.024 A 
HETATM   24  C   UNL     1       4.236  34.200  67.677  1.00  0.00     0.013 A 
ENDBRANCH  17  18
ENDBRANCH  12  15
ENDBRANCH   1  11
BRANCH   8  25
HETATM   25  C   UNL     1       6.441  31.709  58.497  1.00  0.00     0.270 C 
HETATM   26  N   UNL     1       6.134  30.610  57.742  1.00  0.00    -0.365 N 
HETATM   27  H   UNL     1       6.470  29.704  58.047  1.00  0.00     0.159 HD
HETATM   28  H   UNL     1       5.640  30.725  56.871  1.00  0.00     0.159 HD
HETATM   29  O   UNL     1       6.098  32.834  58.148  1.00  0.00    -0.266 OA
ENDBRANCH   8  25
TORSDOF 4
ENDMDL
