MODEL 1
REMARK VINA RESULT:     -10.0      0.000      0.000
REMARK  6 active torsions:
REMARK  status: ('A' for Active; 'I' for Inactive)
REMARK    1  A    between atoms: N_4  and  C_5 
REMARK    2  A    between atoms: C_14  and  C_15 
REMARK       I    between atoms: C_15  and  N_16 
REMARK    3  A    between atoms: N_16  and  C_17 
REMARK    4  A    between atoms: C_17  and  C_18 
REMARK    5  A    between atoms: C_18  and  O_19 
REMARK    6  A    between atoms: C_18  and  C_20 
ROOT
HETATM    1  C   UNL     1       8.117  28.234  56.188  1.00  0.00     0.255 C 
HETATM    2  N   UNL     1       7.773  26.974  56.626  1.00  0.00    -0.354 N 
HETATM    3  O   UNL     1       8.192  28.511  54.996  1.00  0.00    -0.268 OA
HETATM    4  H   UNL     1       7.979  26.767  57.592  1.00  0.00     0.162 HD
ENDROOT
BRANCH   1   5
HETATM    5  C   UNL     1       8.442  29.208  57.228  1.00  0.00     0.082 C 
HETATM    6  C   UNL     1       9.737  29.729  57.490  1.00  0.00     0.069 C 
HETATM    7  C   UNL     1      11.013  29.417  56.795  1.00  0.00     0.073 C 
HETATM    8  N   UNL     1       9.727  30.618  58.482  1.00  0.00    -0.171 NA
HETATM    9  N   UNL     1       8.459  30.615  58.958  1.00  0.00    -0.237 N 
HETATM   10  C   UNL     1       7.612  29.898  58.113  1.00  0.00     0.050 C 
HETATM   11  C   UNL     1       6.128  30.008  58.141  1.00  0.00     0.071 C 
BRANCH   9  12
HETATM   12  C   UNL     1       8.189  31.298  60.184  1.00  0.00     0.058 A 
HETATM   13  C   UNL     1       8.769  30.816  61.371  1.00  0.00     0.033 A 
HETATM   14  C   UNL     1       8.516  31.441  62.596  1.00  0.00     0.021 A 
HETATM   15  C   UNL     1       7.665  32.541  62.644  1.00  0.00     0.011 A 
HETATM   16 BR   UNL     1       7.310  33.383  64.297  1.00  0.00    -0.051 Br
HETATM   17  C   UNL     1       7.063  33.016  61.480  1.00  0.00     0.021 A 
HETATM   18  C   UNL     1       7.321  32.395  60.251  1.00  0.00     0.033 A 
ENDBRANCH   9  12
ENDBRANCH   1   5
BRANCH   2  19
HETATM   19  C   UNL     1       7.671  25.817  55.736  1.00  0.00     0.159 C 
BRANCH  19  20
HETATM   20  C   UNL     1       8.277  24.494  56.266  1.00  0.00     0.169 C 
BRANCH  20  21
HETATM   21  O   UNL     1       7.611  24.073  57.458  1.00  0.00    -0.389 OA
HETATM   22  H   UNL     1       8.040  24.564  58.192  1.00  0.00     0.210 HD
ENDBRANCH  20  21
BRANCH  20  23
HETATM   23  C   UNL     1       8.124  23.374  55.255  1.00  0.00    -0.028 A 
HETATM   24  C   UNL     1       8.060  22.037  55.683  1.00  0.00     0.013 A 
HETATM   25  C   UNL     1       7.926  21.002  54.755  1.00  0.00     0.043 A 
HETATM   26  C   UNL     1       7.855  21.300  53.400  1.00  0.00     0.116 A 
HETATM   27  F   UNL     1       7.726  20.305  52.512  1.00  0.00    -0.206 F 
HETATM   28  C   UNL     1       7.914  22.614  52.952  1.00  0.00     0.043 A 
HETATM   29  C   UNL     1       8.045  23.649  53.877  1.00  0.00     0.013 A 
ENDBRANCH  20  23
ENDBRANCH  19  20
ENDBRANCH   2  19
TORSDOF 6
ENDMDL
MODEL 2
REMARK VINA RESULT:      -9.4      5.456     10.411
REMARK  6 active torsions:
REMARK  status: ('A' for Active; 'I' for Inactive)
REMARK    1  A    between atoms: N_4  and  C_5 
REMARK    2  A    between atoms: C_14  and  C_15 
REMARK       I    between atoms: C_15  and  N_16 
REMARK    3  A    between atoms: N_16  and  C_17 
REMARK    4  A    between atoms: C_17  and  C_18 
REMARK    5  A    between atoms: C_18  and  O_19 
REMARK    6  A    between atoms: C_18  and  C_20 
ROOT
HETATM    1  C   UNL     1       7.798  30.955  58.975  1.00  0.00     0.255 C 
HETATM    2  N   UNL     1       7.500  30.551  60.257  1.00  0.00    -0.354 N 
HETATM    3  O   UNL     1       8.336  32.032  58.740  1.00  0.00    -0.268 OA
HETATM    4  H   UNL     1       6.844  29.789  60.342  1.00  0.00     0.162 HD
ENDROOT
BRANCH   1   5
HETATM    5  C   UNL     1       7.387  30.050  57.905  1.00  0.00     0.082 C 
HETATM    6  C   UNL     1       6.084  29.977  57.345  1.00  0.00     0.069 C 
HETATM    7  C   UNL     1       4.881  30.772  57.705  1.00  0.00     0.073 C 
HETATM    8  N   UNL     1       6.009  29.074  56.368  1.00  0.00    -0.171 NA
HETATM    9  N   UNL     1       7.219  28.467  56.342  1.00  0.00    -0.237 N 
HETATM   10  C   UNL     1       8.134  29.147  57.145  1.00  0.00     0.050 C 
HETATM   11  C   UNL     1       9.609  28.970  57.052  1.00  0.00     0.071 C 
BRANCH   9  12
HETATM   12  C   UNL     1       7.373  27.286  55.552  1.00  0.00     0.058 A 
HETATM   13  C   UNL     1       7.481  26.043  56.202  1.00  0.00     0.033 A 
HETATM   14  C   UNL     1       7.653  24.866  55.469  1.00  0.00     0.021 A 
HETATM   15  C   UNL     1       7.737  24.925  54.082  1.00  0.00     0.011 A 
HETATM   16 BR   UNL     1       7.982  23.338  53.085  1.00  0.00    -0.051 Br
HETATM   17  C   UNL     1       7.657  26.151  53.423  1.00  0.00     0.021 A 
HETATM   18  C   UNL     1       7.478  27.331  54.156  1.00  0.00     0.033 A 
ENDBRANCH   9  12
ENDBRANCH   1   5
BRANCH   2  19
HETATM   19  C   UNL     1       7.600  31.435  61.419  1.00  0.00     0.159 C 
BRANCH  19  20
HETATM   20  C   UNL     1       6.440  32.444  61.610  1.00  0.00     0.169 C 
BRANCH  20  21
HETATM   21  O   UNL     1       5.184  31.838  61.300  1.00  0.00    -0.389 OA
HETATM   22  H   UNL     1       5.347  31.273  60.514  1.00  0.00     0.210 HD
ENDBRANCH  20  21
BRANCH  20  23
HETATM   23  C   UNL     1       6.357  32.922  63.047  1.00  0.00    -0.028 A 
HETATM   24  C   UNL     1       5.107  33.099  63.664  1.00  0.00     0.013 A 
HETATM   25  C   UNL     1       5.026  33.546  64.984  1.00  0.00     0.043 A 
HETATM   26  C   UNL     1       6.192  33.817  65.691  1.00  0.00     0.116 A 
HETATM   27  F   UNL     1       6.111  34.244  66.957  1.00  0.00    -0.206 F 
HETATM   28  C   UNL     1       7.439  33.648  65.104  1.00  0.00     0.043 A 
HETATM   29  C   UNL     1       7.522  33.199  63.786  1.00  0.00     0.013 A 
ENDBRANCH  20  23
ENDBRANCH  19  20
ENDBRANCH   2  19
TORSDOF 6
ENDMDL
MODEL 3
REMARK VINA RESULT:      -9.2      1.499      2.183
REMARK  6 active torsions:
REMARK  status: ('A' for Active; 'I' for Inactive)
REMARK    1  A    between atoms: N_4  and  C_5 
REMARK    2  A    between atoms: C_14  and  C_15 
REMARK       I    between atoms: C_15  and  N_16 
REMARK    3  A    between atoms: N_16  and  C_17 
REMARK    4  A    between atoms: C_17  and  C_18 
REMARK    5  A    between atoms: C_18  and  O_19 
REMARK    6  A    between atoms: C_18  and  C_20 
ROOT
HETATM    1  C   UNL     1       8.126  28.527  56.175  1.00  0.00     0.255 C 
HETATM    2  N   UNL     1       7.452  29.055  55.097  1.00  0.00    -0.354 N 
HETATM    3  O   UNL     1       8.411  27.337  56.245  1.00  0.00    -0.268 OA
HETATM    4  H   UNL     1       7.043  29.968  55.232  1.00  0.00     0.162 HD
ENDROOT
BRANCH   1   5
HETATM    5  C   UNL     1       8.435  29.459  57.258  1.00  0.00     0.082 C 
HETATM    6  C   UNL     1       9.726  29.961  57.567  1.00  0.00     0.069 C 
HETATM    7  C   UNL     1      11.016  29.665  56.890  1.00  0.00     0.073 C 
HETATM    8  N   UNL     1       9.700  30.811  58.592  1.00  0.00    -0.171 NA
HETATM    9  N   UNL     1       8.422  30.800  59.040  1.00  0.00    -0.237 N 
HETATM   10  C   UNL     1       7.589  30.121  58.150  1.00  0.00     0.050 C 
HETATM   11  C   UNL     1       6.106  30.241  58.150  1.00  0.00     0.071 C 
BRANCH   9  12
HETATM   12  C   UNL     1       8.130  31.438  60.285  1.00  0.00     0.058 A 
HETATM   13  C   UNL     1       8.751  30.962  61.454  1.00  0.00     0.033 A 
HETATM   14  C   UNL     1       8.479  31.544  62.695  1.00  0.00     0.021 A 
HETATM   15  C   UNL     1       7.568  32.592  62.779  1.00  0.00     0.011 A 
HETATM   16 BR   UNL     1       7.186  33.374  64.456  1.00  0.00    -0.051 Br
HETATM   17  C   UNL     1       6.924  33.058  61.634  1.00  0.00     0.021 A 
HETATM   18  C   UNL     1       7.201  32.481  60.388  1.00  0.00     0.033 A 
ENDBRANCH   9  12
ENDBRANCH   1   5
BRANCH   2  19
HETATM   19  C   UNL     1       6.839  28.232  54.054  1.00  0.00     0.159 C 
BRANCH  19  20
HETATM   20  C   UNL     1       6.021  27.011  54.543  1.00  0.00     0.169 C 
BRANCH  20  21
HETATM   21  O   UNL     1       4.670  27.090  54.087  1.00  0.00    -0.389 OA
HETATM   22  H   UNL     1       4.717  27.086  53.107  1.00  0.00     0.210 HD
ENDBRANCH  20  21
BRANCH  20  23
HETATM   23  C   UNL     1       6.593  25.713  54.005  1.00  0.00    -0.028 A 
HETATM   24  C   UNL     1       7.214  25.681  52.745  1.00  0.00     0.013 A 
HETATM   25  C   UNL     1       7.736  24.487  52.243  1.00  0.00     0.043 A 
HETATM   26  C   UNL     1       7.638  23.324  52.998  1.00  0.00     0.116 A 
HETATM   27  F   UNL     1       8.141  22.180  52.514  1.00  0.00    -0.206 F 
HETATM   28  C   UNL     1       7.031  23.331  54.247  1.00  0.00     0.043 A 
HETATM   29  C   UNL     1       6.511  24.523  54.751  1.00  0.00     0.013 A 
ENDBRANCH  20  23
ENDBRANCH  19  20
ENDBRANCH   2  19
TORSDOF 6
ENDMDL
MODEL 4
REMARK VINA RESULT:      -8.9      5.441     10.091
REMARK  6 active torsions:
REMARK  status: ('A' for Active; 'I' for Inactive)
REMARK    1  A    between atoms: N_4  and  C_5 
REMARK    2  A    between atoms: C_14  and  C_15 
REMARK       I    between atoms: C_15  and  N_16 
REMARK    3  A    between atoms: N_16  and  C_17 
REMARK    4  A    between atoms: C_17  and  C_18 
REMARK    5  A    between atoms: C_18  and  O_19 
REMARK    6  A    between atoms: C_18  and  C_20 
ROOT
HETATM    1  C   UNL     1       5.966  31.641  58.623  1.00  0.00     0.255 C 
HETATM    2  N   UNL     1       5.208  31.552  59.770  1.00  0.00    -0.354 N 
HETATM    3  O   UNL     1       6.093  32.693  58.006  1.00  0.00    -0.268 OA
HETATM    4  H   UNL     1       4.955  30.621  60.064  1.00  0.00     0.162 HD
ENDROOT
BRANCH   1   5
HETATM    5  C   UNL     1       6.567  30.395  58.153  1.00  0.00     0.082 C 
HETATM    6  C   UNL     1       7.806  29.862  58.593  1.00  0.00     0.069 C 
HETATM    7  C   UNL     1       8.747  30.427  59.596  1.00  0.00     0.073 C 
HETATM    8  N   UNL     1       8.089  28.700  58.007  1.00  0.00    -0.171 NA
HETATM    9  N   UNL     1       7.103  28.504  57.099  1.00  0.00    -0.237 N 
HETATM   10  C   UNL     1       6.072  29.427  57.277  1.00  0.00     0.050 C 
HETATM   11  C   UNL     1       4.707  29.262  56.707  1.00  0.00     0.071 C 
BRANCH   9  12
HETATM   12  C   UNL     1       7.254  27.451  56.143  1.00  0.00     0.058 A 
HETATM   13  C   UNL     1       7.417  27.785  54.786  1.00  0.00     0.033 A 
HETATM   14  C   UNL     1       7.549  26.787  53.816  1.00  0.00     0.021 A 
HETATM   15  C   UNL     1       7.499  25.449  54.194  1.00  0.00     0.011 A 
HETATM   16 BR   UNL     1       7.664  24.096  52.886  1.00  0.00    -0.051 Br
HETATM   17  C   UNL     1       7.312  25.102  55.531  1.00  0.00     0.021 A 
HETATM   18  C   UNL     1       7.187  26.101  56.505  1.00  0.00     0.033 A 
ENDBRANCH   9  12
ENDBRANCH   1   5
BRANCH   2  19
HETATM   19  C   UNL     1       4.331  32.627  60.235  1.00  0.00     0.159 C 
BRANCH  19  20
HETATM   20  C   UNL     1       3.872  32.541  61.712  1.00  0.00     0.169 C 
BRANCH  20  21
HETATM   21  O   UNL     1       3.524  31.200  62.057  1.00  0.00    -0.389 OA
HETATM   22  H   UNL     1       3.076  30.827  61.267  1.00  0.00     0.210 HD
ENDBRANCH  20  21
BRANCH  20  23
HETATM   23  C   UNL     1       4.977  32.968  62.659  1.00  0.00    -0.028 A 
HETATM   24  C   UNL     1       4.822  34.111  63.460  1.00  0.00     0.013 A 
HETATM   25  C   UNL     1       5.840  34.511  64.328  1.00  0.00     0.043 A 
HETATM   26  C   UNL     1       7.014  33.771  64.397  1.00  0.00     0.116 A 
HETATM   27  F   UNL     1       7.989  34.157  65.231  1.00  0.00    -0.206 F 
HETATM   28  C   UNL     1       7.191  32.636  63.617  1.00  0.00     0.043 A 
HETATM   29  C   UNL     1       6.175  32.233  62.751  1.00  0.00     0.013 A 
ENDBRANCH  20  23
ENDBRANCH  19  20
ENDBRANCH   2  19
TORSDOF 6
ENDMDL
MODEL 5
REMARK VINA RESULT:      -8.9      5.718      7.994
REMARK  6 active torsions:
REMARK  status: ('A' for Active; 'I' for Inactive)
REMARK    1  A    between atoms: N_4  and  C_5 
REMARK    2  A    between atoms: C_14  and  C_15 
REMARK       I    between atoms: C_15  and  N_16 
REMARK    3  A    between atoms: N_16  and  C_17 
REMARK    4  A    between atoms: C_17  and  C_18 
REMARK    5  A    between atoms: C_18  and  O_19 
REMARK    6  A    between atoms: C_18  and  C_20 
ROOT
HETATM    1  C   UNL     1       6.095  26.018  55.692  1.00  0.00     0.255 C 
HETATM    2  N   UNL     1       7.209  25.236  55.902  1.00  0.00    -0.354 N 
HETATM    3  O   UNL     1       5.229  26.161  56.548  1.00  0.00    -0.268 OA
HETATM    4  H   UNL     1       7.729  24.972  55.079  1.00  0.00     0.162 HD
ENDROOT
BRANCH   1   5
HETATM    5  C   UNL     1       5.976  26.622  54.367  1.00  0.00     0.082 C 
HETATM    6  C   UNL     1       6.687  27.765  53.917  1.00  0.00     0.069 C 
HETATM    7  C   UNL     1       7.680  28.583  54.662  1.00  0.00     0.073 C 
HETATM    8  N   UNL     1       6.393  28.074  52.656  1.00  0.00    -0.171 NA
HETATM    9  N   UNL     1       5.412  27.215  52.292  1.00  0.00    -0.237 N 
HETATM   10  C   UNL     1       5.251  26.210  53.247  1.00  0.00     0.050 C 
HETATM   11  C   UNL     1       4.537  24.930  52.989  1.00  0.00     0.071 C 
BRANCH   9  12
HETATM   12  C   UNL     1       4.719  27.449  51.064  1.00  0.00     0.058 A 
HETATM   13  C   UNL     1       3.802  28.514  50.994  1.00  0.00     0.033 A 
HETATM   14  C   UNL     1       3.089  28.767  49.820  1.00  0.00     0.021 A 
HETATM   15  C   UNL     1       3.273  27.945  48.712  1.00  0.00     0.011 A 
HETATM   16 BR   UNL     1       2.303  28.275  47.125  1.00  0.00    -0.051 Br
HETATM   17  C   UNL     1       4.159  26.871  48.772  1.00  0.00     0.021 A 
HETATM   18  C   UNL     1       4.880  26.620  49.947  1.00  0.00     0.033 A 
ENDBRANCH   9  12
ENDBRANCH   1   5
BRANCH   2  19
HETATM   19  C   UNL     1       7.363  24.355  57.060  1.00  0.00     0.159 C 
BRANCH  19  20
HETATM   20  C   UNL     1       8.511  23.318  56.981  1.00  0.00     0.169 C 
BRANCH  20  21
HETATM   21  O   UNL     1       8.464  22.423  58.092  1.00  0.00    -0.389 OA
HETATM   22  H   UNL     1       7.537  22.102  58.139  1.00  0.00     0.210 HD
ENDBRANCH  20  21
BRANCH  20  23
HETATM   23  C   UNL     1       8.403  22.472  55.727  1.00  0.00    -0.028 A 
HETATM   24  C   UNL     1       8.505  23.068  54.459  1.00  0.00     0.013 A 
HETATM   25  C   UNL     1       8.399  22.293  53.302  1.00  0.00     0.043 A 
HETATM   26  C   UNL     1       8.193  20.923  53.409  1.00  0.00     0.116 A 
HETATM   27  F   UNL     1       8.093  20.182  52.298  1.00  0.00    -0.206 F 
HETATM   28  C   UNL     1       8.091  20.310  54.651  1.00  0.00     0.043 A 
HETATM   29  C   UNL     1       8.198  21.082  55.808  1.00  0.00     0.013 A 
ENDBRANCH  20  23
ENDBRANCH  19  20
ENDBRANCH   2  19
TORSDOF 6
ENDMDL
MODEL 6
REMARK VINA RESULT:      -8.8      7.778     10.307
REMARK  6 active torsions:
REMARK  status: ('A' for Active; 'I' for Inactive)
REMARK    1  A    between atoms: N_4  and  C_5 
REMARK    2  A    between atoms: C_14  and  C_15 
REMARK       I    between atoms: C_15  and  N_16 
REMARK    3  A    between atoms: N_16  and  C_17 
REMARK    4  A    between atoms: C_17  and  C_18 
REMARK    5  A    between atoms: C_18  and  O_19 
REMARK    6  A    between atoms: C_18  and  C_20 
ROOT
HETATM    1  C   UNL     1       5.328  26.864  51.757  1.00  0.00     0.255 C 
HETATM    2  N   UNL     1       5.032  25.558  52.077  1.00  0.00    -0.354 N 
HETATM    3  O   UNL     1       6.347  27.417  52.156  1.00  0.00    -0.268 OA
HETATM    4  H   UNL     1       4.077  25.269  51.926  1.00  0.00     0.162 HD
ENDROOT
BRANCH   1   5
HETATM    5  C   UNL     1       4.330  27.572  50.959  1.00  0.00     0.082 C 
HETATM    6  C   UNL     1       3.530  28.653  51.414  1.00  0.00     0.069 C 
HETATM    7  C   UNL     1       3.521  29.291  52.756  1.00  0.00     0.073 C 
HETATM    8  N   UNL     1       2.724  29.116  50.459  1.00  0.00    -0.171 NA
HETATM    9  N   UNL     1       2.899  28.285  49.404  1.00  0.00    -0.237 N 
HETATM   10  C   UNL     1       3.989  27.439  49.612  1.00  0.00     0.050 C 
HETATM   11  C   UNL     1       4.667  26.681  48.525  1.00  0.00     0.071 C 
BRANCH   9  12
HETATM   12  C   UNL     1       1.994  28.382  48.302  1.00  0.00     0.058 A 
HETATM   13  C   UNL     1       1.926  29.590  47.584  1.00  0.00     0.033 A 
HETATM   14  C   UNL     1       1.041  29.735  46.512  1.00  0.00     0.021 A 
HETATM   15  C   UNL     1       0.204  28.680  46.163  1.00  0.00     0.011 A 
HETATM   16 BR   UNL     1      -1.003  28.874  44.722  1.00  0.00    -0.051 Br
HETATM   17  C   UNL     1       0.240  27.486  46.880  1.00  0.00     0.021 A 
HETATM   18  C   UNL     1       1.132  27.336  47.951  1.00  0.00     0.033 A 
ENDBRANCH   9  12
ENDBRANCH   1   5
BRANCH   2  19
HETATM   19  C   UNL     1       5.779  24.787  53.072  1.00  0.00     0.159 C 
BRANCH  19  20
HETATM   20  C   UNL     1       7.074  24.102  52.571  1.00  0.00     0.169 C 
BRANCH  20  21
HETATM   21  O   UNL     1       8.178  25.008  52.615  1.00  0.00    -0.389 OA
HETATM   22  H   UNL     1       8.984  24.448  52.626  1.00  0.00     0.210 HD
ENDBRANCH  20  21
BRANCH  20  23
HETATM   23  C   UNL     1       7.442  22.916  53.441  1.00  0.00    -0.028 A 
HETATM   24  C   UNL     1       7.348  23.006  54.840  1.00  0.00     0.013 A 
HETATM   25  C   UNL     1       7.692  21.918  55.644  1.00  0.00     0.043 A 
HETATM   26  C   UNL     1       8.131  20.739  55.054  1.00  0.00     0.116 A 
HETATM   27  F   UNL     1       8.460  19.697  55.829  1.00  0.00    -0.206 F 
HETATM   28  C   UNL     1       8.231  20.624  53.674  1.00  0.00     0.043 A 
HETATM   29  C   UNL     1       7.886  21.709  52.868  1.00  0.00     0.013 A 
ENDBRANCH  20  23
ENDBRANCH  19  20
ENDBRANCH   2  19
TORSDOF 6
ENDMDL
MODEL 7
REMARK VINA RESULT:      -8.7      1.623      2.168
REMARK  6 active torsions:
REMARK  status: ('A' for Active; 'I' for Inactive)
REMARK    1  A    between atoms: N_4  and  C_5 
REMARK    2  A    between atoms: C_14  and  C_15 
REMARK       I    between atoms: C_15  and  N_16 
REMARK    3  A    between atoms: N_16  and  C_17 
REMARK    4  A    between atoms: C_17  and  C_18 
REMARK    5  A    between atoms: C_18  and  O_19 
REMARK    6  A    between atoms: C_18  and  C_20 
ROOT
HETATM    1  C   UNL     1       7.405  29.651  56.825  1.00  0.00     0.255 C 
HETATM    2  N   UNL     1       7.972  28.398  56.742  1.00  0.00    -0.354 N 
HETATM    3  O   UNL     1       6.668  30.091  55.950  1.00  0.00    -0.268 OA
HETATM    4  H   UNL     1       8.747  28.219  57.362  1.00  0.00     0.162 HD
ENDROOT
BRANCH   1   5
HETATM    5  C   UNL     1       7.778  30.447  57.992  1.00  0.00     0.082 C 
HETATM    6  C   UNL     1       9.105  30.780  58.371  1.00  0.00     0.069 C 
HETATM    7  C   UNL     1      10.376  30.408  57.695  1.00  0.00     0.073 C 
HETATM    8  N   UNL     1       9.138  31.537  59.466  1.00  0.00    -0.171 NA
HETATM    9  N   UNL     1       7.853  31.623  59.885  1.00  0.00    -0.237 N 
HETATM   10  C   UNL     1       6.980  31.116  58.922  1.00  0.00     0.050 C 
HETATM   11  C   UNL     1       5.518  31.393  58.903  1.00  0.00     0.071 C 
BRANCH   9  12
HETATM   12  C   UNL     1       7.592  32.179  61.176  1.00  0.00     0.058 A 
HETATM   13  C   UNL     1       6.588  33.155  61.305  1.00  0.00     0.033 A 
HETATM   14  C   UNL     1       6.313  33.740  62.544  1.00  0.00     0.021 A 
HETATM   15  C   UNL     1       7.055  33.366  63.660  1.00  0.00     0.011 A 
HETATM   16 BR   UNL     1       6.697  34.161  65.337  1.00  0.00    -0.051 Br
HETATM   17  C   UNL     1       8.071  32.419  63.545  1.00  0.00     0.021 A 
HETATM   18  C   UNL     1       8.343  31.827  62.305  1.00  0.00     0.033 A 
ENDBRANCH   9  12
ENDBRANCH   1   5
BRANCH   2  19
HETATM   19  C   UNL     1       7.921  27.575  55.533  1.00  0.00     0.159 C 
BRANCH  19  20
HETATM   20  C   UNL     1       6.715  26.610  55.416  1.00  0.00     0.169 C 
BRANCH  20  21
HETATM   21  O   UNL     1       5.620  27.245  54.753  1.00  0.00    -0.389 OA
HETATM   22  H   UNL     1       4.989  27.499  55.461  1.00  0.00     0.210 HD
ENDBRANCH  20  21
BRANCH  20  23
HETATM   23  C   UNL     1       7.070  25.380  54.603  1.00  0.00    -0.028 A 
HETATM   24  C   UNL     1       6.984  24.101  55.179  1.00  0.00     0.013 A 
HETATM   25  C   UNL     1       7.317  22.967  54.436  1.00  0.00     0.043 A 
HETATM   26  C   UNL     1       7.735  23.106  53.118  1.00  0.00     0.116 A 
HETATM   27  F   UNL     1       8.053  22.016  52.408  1.00  0.00    -0.206 F 
HETATM   28  C   UNL     1       7.826  24.359  52.526  1.00  0.00     0.043 A 
HETATM   29  C   UNL     1       7.492  25.494  53.265  1.00  0.00     0.013 A 
ENDBRANCH  20  23
ENDBRANCH  19  20
ENDBRANCH   2  19
TORSDOF 6
ENDMDL
MODEL 8
REMARK VINA RESULT:      -8.5      3.147      3.744
REMARK  6 active torsions:
REMARK  status: ('A' for Active; 'I' for Inactive)
REMARK    1  A    between atoms: N_4  and  C_5 
REMARK    2  A    between atoms: C_14  and  C_15 
REMARK       I    between atoms: C_15  and  N_16 
REMARK    3  A    between atoms: N_16  and  C_17 
REMARK    4  A    between atoms: C_17  and  C_18 
REMARK    5  A    between atoms: C_18  and  O_19 
REMARK    6  A    between atoms: C_18  and  C_20 
ROOT
HETATM    1  C   UNL     1       8.427  28.560  56.451  1.00  0.00     0.255 C 
HETATM    2  N   UNL     1       8.127  29.065  55.205  1.00  0.00    -0.354 N 
HETATM    3  O   UNL     1       8.460  27.355  56.674  1.00  0.00    -0.268 OA
HETATM    4  H   UNL     1       7.877  30.042  55.170  1.00  0.00     0.162 HD
ENDROOT
BRANCH   1   5
HETATM    5  C   UNL     1       8.649  29.545  57.507  1.00  0.00     0.082 C 
HETATM    6  C   UNL     1       9.905  30.108  57.855  1.00  0.00     0.069 C 
HETATM    7  C   UNL     1      11.235  29.835  57.252  1.00  0.00     0.073 C 
HETATM    8  N   UNL     1       9.798  30.998  58.841  1.00  0.00    -0.171 NA
HETATM    9  N   UNL     1       8.501  30.956  59.228  1.00  0.00    -0.237 N 
HETATM   10  C   UNL     1       7.737  30.211  58.329  1.00  0.00     0.050 C 
HETATM   11  C   UNL     1       6.252  30.274  58.254  1.00  0.00     0.071 C 
BRANCH   9  12
HETATM   12  C   UNL     1       8.126  31.633  60.430  1.00  0.00     0.058 A 
HETATM   13  C   UNL     1       8.792  31.310  61.626  1.00  0.00     0.033 A 
HETATM   14  C   UNL     1       8.443  31.933  62.828  1.00  0.00     0.021 A 
HETATM   15  C   UNL     1       7.413  32.867  62.845  1.00  0.00     0.011 A 
HETATM   16 BR   UNL     1       6.928  33.703  64.469  1.00  0.00    -0.051 Br
HETATM   17  C   UNL     1       6.726  33.179  61.673  1.00  0.00     0.021 A 
HETATM   18  C   UNL     1       7.079  32.561  60.467  1.00  0.00     0.033 A 
ENDBRANCH   9  12
ENDBRANCH   1   5
BRANCH   2  19
HETATM   19  C   UNL     1       7.626  28.240  54.106  1.00  0.00     0.159 C 
BRANCH  19  20
HETATM   20  C   UNL     1       6.085  28.141  53.976  1.00  0.00     0.169 C 
BRANCH  20  21
HETATM   21  O   UNL     1       5.482  29.430  54.093  1.00  0.00    -0.389 OA
HETATM   22  H   UNL     1       6.136  29.989  54.567  1.00  0.00     0.210 HD
ENDBRANCH  20  21
BRANCH  20  23
HETATM   23  C   UNL     1       5.681  27.586  52.624  1.00  0.00    -0.028 A 
HETATM   24  C   UNL     1       5.483  26.205  52.454  1.00  0.00     0.013 A 
HETATM   25  C   UNL     1       5.117  25.690  51.210  1.00  0.00     0.043 A 
HETATM   26  C   UNL     1       4.948  26.551  50.132  1.00  0.00     0.116 A 
HETATM   27  F   UNL     1       4.596  26.053  48.939  1.00  0.00    -0.206 F 
HETATM   28  C   UNL     1       5.135  27.920  50.274  1.00  0.00     0.043 A 
HETATM   29  C   UNL     1       5.499  28.437  51.518  1.00  0.00     0.013 A 
ENDBRANCH  20  23
ENDBRANCH  19  20
ENDBRANCH   2  19
TORSDOF 6
ENDMDL
MODEL 9
REMARK VINA RESULT:      -8.5      3.488      5.680
REMARK  6 active torsions:
REMARK  status: ('A' for Active; 'I' for Inactive)
REMARK    1  A    between atoms: N_4  and  C_5 
REMARK    2  A    between atoms: C_14  and  C_15 
REMARK       I    between atoms: C_15  and  N_16 
REMARK    3  A    between atoms: N_16  and  C_17 
REMARK    4  A    between atoms: C_17  and  C_18 
REMARK    5  A    between atoms: C_18  and  O_19 
REMARK    6  A    between atoms: C_18  and  C_20 
ROOT
HETATM    1  C   UNL     1       5.692  32.295  59.135  1.00  0.00     0.255 C 
HETATM    2  N   UNL     1       5.903  30.954  58.900  1.00  0.00    -0.354 N 
HETATM    3  O   UNL     1       5.842  33.140  58.259  1.00  0.00    -0.268 OA
HETATM    4  H   UNL     1       6.004  30.370  59.717  1.00  0.00     0.162 HD
ENDROOT
BRANCH   1   5
HETATM    5  C   UNL     1       5.332  32.658  60.503  1.00  0.00     0.082 C 
HETATM    6  C   UNL     1       4.099  33.237  60.903  1.00  0.00     0.069 C 
HETATM    7  C   UNL     1       2.933  33.596  60.055  1.00  0.00     0.073 C 
HETATM    8  N   UNL     1       4.044  33.438  62.219  1.00  0.00    -0.171 NA
HETATM    9  N   UNL     1       5.268  33.100  62.688  1.00  0.00    -0.237 N 
HETATM   10  C   UNL     1       6.021  32.462  61.702  1.00  0.00     0.050 C 
HETATM   11  C   UNL     1       7.237  31.651  61.983  1.00  0.00     0.071 C 
BRANCH   9  12
HETATM   12  C   UNL     1       5.596  33.431  64.040  1.00  0.00     0.058 A 
HETATM   13  C   UNL     1       4.554  33.603  64.968  1.00  0.00     0.033 A 
HETATM   14  C   UNL     1       4.827  33.947  66.295  1.00  0.00     0.021 A 
HETATM   15  C   UNL     1       6.145  34.139  66.697  1.00  0.00     0.011 A 
HETATM   16 BR   UNL     1       6.522  34.616  68.487  1.00  0.00    -0.051 Br
HETATM   17  C   UNL     1       7.188  33.997  65.784  1.00  0.00     0.021 A 
HETATM   18  C   UNL     1       6.916  33.646  64.456  1.00  0.00     0.033 A 
ENDBRANCH   9  12
ENDBRANCH   1   5
BRANCH   2  19
HETATM   19  C   UNL     1       6.515  30.442  57.673  1.00  0.00     0.159 C 
BRANCH  19  20
HETATM   20  C   UNL     1       7.663  29.419  57.860  1.00  0.00     0.169 C 
BRANCH  20  21
HETATM   21  O   UNL     1       8.033  29.318  59.235  1.00  0.00    -0.389 OA
HETATM   22  H   UNL     1       7.207  29.462  59.746  1.00  0.00     0.210 HD
ENDBRANCH  20  21
BRANCH  20  23
HETATM   23  C   UNL     1       7.244  28.033  57.411  1.00  0.00    -0.028 A 
HETATM   24  C   UNL     1       8.201  27.014  57.269  1.00  0.00     0.013 A 
HETATM   25  C   UNL     1       7.821  25.738  56.851  1.00  0.00     0.043 A 
HETATM   26  C   UNL     1       6.484  25.476  56.573  1.00  0.00     0.116 A 
HETATM   27  F   UNL     1       6.122  24.250  56.172  1.00  0.00    -0.206 F 
HETATM   28  C   UNL     1       5.519  26.465  56.708  1.00  0.00     0.043 A 
HETATM   29  C   UNL     1       5.897  27.740  57.128  1.00  0.00     0.013 A 
ENDBRANCH  20  23
ENDBRANCH  19  20
ENDBRANCH   2  19
TORSDOF 6
ENDMDL
MODEL 10
REMARK VINA RESULT:      -8.5      5.937      8.111
REMARK  6 active torsions:
REMARK  status: ('A' for Active; 'I' for Inactive)
REMARK    1  A    between atoms: N_4  and  C_5 
REMARK    2  A    between atoms: C_14  and  C_15 
REMARK       I    between atoms: C_15  and  N_16 
REMARK    3  A    between atoms: N_16  and  C_17 
REMARK    4  A    between atoms: C_17  and  C_18 
REMARK    5  A    between atoms: C_18  and  O_19 
REMARK    6  A    between atoms: C_18  and  C_20 
ROOT
HETATM    1  C   UNL     1       5.774  25.703  55.127  1.00  0.00     0.255 C 
HETATM    2  N   UNL     1       7.025  25.835  55.688  1.00  0.00    -0.354 N 
HETATM    3  O   UNL     1       4.803  25.337  55.780  1.00  0.00    -0.268 OA
HETATM    4  H   UNL     1       7.798  25.891  55.043  1.00  0.00     0.162 HD
ENDROOT
BRANCH   1   5
HETATM    5  C   UNL     1       5.683  25.970  53.693  1.00  0.00     0.082 C 
HETATM    6  C   UNL     1       6.240  25.161  52.668  1.00  0.00     0.069 C 
HETATM    7  C   UNL     1       7.019  23.903  52.810  1.00  0.00     0.073 C 
HETATM    8  N   UNL     1       5.978  25.640  51.454  1.00  0.00    -0.171 NA
HETATM    9  N   UNL     1       5.343  26.819  51.659  1.00  0.00    -0.237 N 
HETATM   10  C   UNL     1       4.996  26.970  53.002  1.00  0.00     0.050 C 
HETATM   11  C   UNL     1       3.988  27.950  53.491  1.00  0.00     0.071 C 
BRANCH   9  12
HETATM   12  C   UNL     1       5.139  27.688  50.542  1.00  0.00     0.058 A 
HETATM   13  C   UNL     1       5.686  28.983  50.581  1.00  0.00     0.033 A 
HETATM   14  C   UNL     1       5.495  29.872  49.520  1.00  0.00     0.021 A 
HETATM   15  C   UNL     1       4.738  29.478  48.421  1.00  0.00     0.011 A 
HETATM   16 BR   UNL     1       4.465  30.680  46.988  1.00  0.00    -0.051 Br
HETATM   17  C   UNL     1       4.167  28.207  48.378  1.00  0.00     0.021 A 
HETATM   18  C   UNL     1       4.364  27.313  49.438  1.00  0.00     0.033 A 
ENDBRANCH   9  12
ENDBRANCH   1   5
BRANCH   2  19
HETATM   19  C   UNL     1       7.353  25.362  57.034  1.00  0.00     0.159 C 
BRANCH  19  20
HETATM   20  C   UNL     1       8.726  24.663  57.195  1.00  0.00     0.169 C 
BRANCH  20  21
HETATM   21  O   UNL     1       9.031  24.456  58.574  1.00  0.00    -0.389 OA
HETATM   22  H   UNL     1       9.817  23.868  58.589  1.00  0.00     0.210 HD
ENDBRANCH  20  21
BRANCH  20  23
HETATM   23  C   UNL     1       8.731  23.300  56.531  1.00  0.00    -0.028 A 
HETATM   24  C   UNL     1       8.171  22.190  57.187  1.00  0.00     0.013 A 
HETATM   25  C   UNL     1       8.180  20.932  56.582  1.00  0.00     0.043 A 
HETATM   26  C   UNL     1       8.749  20.778  55.324  1.00  0.00     0.116 A 
HETATM   27  F   UNL     1       8.756  19.570  54.746  1.00  0.00    -0.206 F 
HETATM   28  C   UNL     1       9.307  21.860  54.654  1.00  0.00     0.043 A 
HETATM   29  C   UNL     1       9.297  23.118  55.255  1.00  0.00     0.013 A 
ENDBRANCH  20  23
ENDBRANCH  19  20
ENDBRANCH   2  19
TORSDOF 6
ENDMDL
