MODEL 1
REMARK VINA RESULT:      -9.4      0.000      0.000
REMARK  5 active torsions:
REMARK  status: ('A' for Active; 'I' for Inactive)
REMARK    1  A    between atoms: C_8  and  C_9 
REMARK    2  A    between atoms: C_9  and  N_10 
REMARK    3  A    between atoms: N_10  and  C_13 
REMARK    4  A    between atoms: C_16  and  O_17 
REMARK    5  A    between atoms: O_17  and  C_18 
ROOT
HETATM    1  C   UNL     1       8.088  28.657  56.891  1.00  0.00     0.164 A 
HETATM    2  N   UNL     1       7.220  29.186  57.778  1.00  0.00    -0.236 NA
HETATM    3  C   UNL     1       7.711  30.120  58.632  1.00  0.00     0.142 A 
HETATM    4  C   UNL     1       9.032  30.541  58.641  1.00  0.00     0.062 A 
HETATM    5  C   UNL     1       9.471  31.530  59.572  1.00  0.00     0.101 C 
HETATM    6  N   UNL     1       9.825  32.330  60.334  1.00  0.00    -0.191 NA
HETATM    7  C   UNL     1       9.906  29.966  57.720  1.00  0.00     0.028 A 
HETATM    8  C   UNL     1       9.429  29.000  56.834  1.00  0.00     0.059 A 
ENDROOT
BRANCH   1   9
HETATM    9  O   UNL     1       7.654  27.678  56.017  1.00  0.00    -0.329 OA
BRANCH   9  10
HETATM   10  C   UNL     1       6.825  28.179  54.958  1.00  0.00     0.130 C 
HETATM   11  C   UNL     1       7.521  27.821  53.635  1.00  0.00     0.034 C 
HETATM   12  C   UNL     1       7.546  26.314  53.367  1.00  0.00     0.035 C 
HETATM   13  C   UNL     1       6.136  25.722  53.426  1.00  0.00     0.186 C 
HETATM   14  C   UNL     1       5.470  26.025  54.766  1.00  0.00     0.035 C 
HETATM   15  C   UNL     1       5.431  27.535  55.018  1.00  0.00     0.034 C 
BRANCH  13  16
HETATM   16  N   UNL     1       6.234  24.246  53.199  1.00  0.00    -0.067 N 
HETATM   17  H   UNL     1       5.547  23.928  52.504  1.00  0.00     0.277 HD
HETATM   18  H   UNL     1       5.981  23.769  54.078  1.00  0.00     0.277 HD
BRANCH  16  19
HETATM   19  C   UNL     1       7.585  23.725  52.822  1.00  0.00     0.274 C 
BRANCH  19  20
HETATM   20  C   UNL     1       7.953  22.492  53.586  1.00  0.00     0.004 A 
HETATM   21  C   UNL     1       8.111  22.526  54.963  1.00  0.00     0.113 A 
HETATM   22  C   UNL     1       8.499  21.424  55.688  1.00  0.00     0.105 A 
HETATM   23  O   UNL     1       7.894  23.616  55.756  1.00  0.00    -0.322 OA
HETATM   24  C   UNL     1       8.746  20.213  55.083  1.00  0.00     0.040 A 
HETATM   25  O   UNL     1       8.596  21.684  57.017  1.00  0.00    -0.323 OA
HETATM   26  C   UNL     1       8.594  20.136  53.697  1.00  0.00     0.003 A 
HETATM   27  C   UNL     1       8.205  21.265  52.952  1.00  0.00     0.012 A 
HETATM   28  C   UNL     1       8.290  23.089  57.052  1.00  0.00     0.352 A 
ENDBRANCH  19  20
ENDBRANCH  16  19
ENDBRANCH  13  16
ENDBRANCH   9  10
ENDBRANCH   1   9
TORSDOF 5
ENDMDL
MODEL 2
REMARK VINA RESULT:      -8.9      2.783      9.104
REMARK  5 active torsions:
REMARK  status: ('A' for Active; 'I' for Inactive)
REMARK    1  A    between atoms: C_8  and  C_9 
REMARK    2  A    between atoms: C_9  and  N_10 
REMARK    3  A    between atoms: N_10  and  C_13 
REMARK    4  A    between atoms: C_16  and  O_17 
REMARK    5  A    between atoms: O_17  and  C_18 
ROOT
HETATM    1  C   UNL     1       7.332  24.746  54.811  1.00  0.00     0.164 A 
HETATM    2  N   UNL     1       7.225  23.651  55.593  1.00  0.00    -0.236 NA
HETATM    3  C   UNL     1       7.533  22.459  55.021  1.00  0.00     0.142 A 
HETATM    4  C   UNL     1       7.933  22.315  53.701  1.00  0.00     0.062 A 
HETATM    5  C   UNL     1       8.239  21.024  53.173  1.00  0.00     0.101 C 
HETATM    6  N   UNL     1       8.482  19.973  52.747  1.00  0.00    -0.191 NA
HETATM    7  C   UNL     1       8.020  23.464  52.917  1.00  0.00     0.028 A 
HETATM    8  C   UNL     1       7.706  24.702  53.478  1.00  0.00     0.059 A 
ENDROOT
BRANCH   1   9
HETATM    9  O   UNL     1       7.001  25.984  55.329  1.00  0.00    -0.329 OA
BRANCH   9  10
HETATM   10  C   UNL     1       6.576  25.939  56.700  1.00  0.00     0.130 C 
HETATM   11  C   UNL     1       7.806  26.268  57.561  1.00  0.00     0.034 C 
HETATM   12  C   UNL     1       8.277  27.715  57.395  1.00  0.00     0.035 C 
HETATM   13  C   UNL     1       7.136  28.699  57.665  1.00  0.00     0.186 C 
HETATM   14  C   UNL     1       5.939  28.409  56.763  1.00  0.00     0.035 C 
HETATM   15  C   UNL     1       5.461  26.967  56.949  1.00  0.00     0.034 C 
BRANCH  13  16
HETATM   16  N   UNL     1       7.648  30.088  57.445  1.00  0.00    -0.067 N 
HETATM   17  H   UNL     1       6.895  30.782  57.531  1.00  0.00     0.277 HD
HETATM   18  H   UNL     1       7.980  30.157  56.471  1.00  0.00     0.277 HD
BRANCH  16  19
HETATM   19  C   UNL     1       8.800  30.509  58.303  1.00  0.00     0.274 C 
BRANCH  19  20
HETATM   20  C   UNL     1       8.364  30.945  59.667  1.00  0.00     0.004 A 
HETATM   21  C   UNL     1       7.261  31.768  59.835  1.00  0.00     0.113 A 
HETATM   22  C   UNL     1       6.866  32.227  61.069  1.00  0.00     0.105 A 
HETATM   23  O   UNL     1       6.441  32.203  58.835  1.00  0.00    -0.322 OA
HETATM   24  C   UNL     1       7.543  31.885  62.217  1.00  0.00     0.040 A 
HETATM   25  O   UNL     1       5.768  33.022  61.000  1.00  0.00    -0.323 OA
HETATM   26  C   UNL     1       8.658  31.054  62.090  1.00  0.00     0.003 A 
HETATM   27  C   UNL     1       9.070  30.589  60.827  1.00  0.00     0.012 A 
HETATM   28  C   UNL     1       5.544  33.071  59.580  1.00  0.00     0.352 A 
ENDBRANCH  19  20
ENDBRANCH  16  19
ENDBRANCH  13  16
ENDBRANCH   9  10
ENDBRANCH   1   9
TORSDOF 5
ENDMDL
MODEL 3
REMARK VINA RESULT:      -8.8      2.283      8.111
REMARK  5 active torsions:
REMARK  status: ('A' for Active; 'I' for Inactive)
REMARK    1  A    between atoms: C_8  and  C_9 
REMARK    2  A    between atoms: C_9  and  N_10 
REMARK    3  A    between atoms: N_10  and  C_13 
REMARK    4  A    between atoms: C_16  and  O_17 
REMARK    5  A    between atoms: O_17  and  C_18 
ROOT
HETATM    1  C   UNL     1       7.491  24.633  53.951  1.00  0.00     0.164 A 
HETATM    2  N   UNL     1       8.031  24.169  55.097  1.00  0.00    -0.236 NA
HETATM    3  C   UNL     1       8.392  22.861  55.117  1.00  0.00     0.142 A 
HETATM    4  C   UNL     1       8.228  21.997  54.045  1.00  0.00     0.062 A 
HETATM    5  C   UNL     1       8.634  20.632  54.145  1.00  0.00     0.101 C 
HETATM    6  N   UNL     1       8.961  19.522  54.232  1.00  0.00    -0.191 NA
HETATM    7  C   UNL     1       7.655  22.505  52.880  1.00  0.00     0.028 A 
HETATM    8  C   UNL     1       7.271  23.845  52.833  1.00  0.00     0.059 A 
ENDROOT
BRANCH   1   9
HETATM    9  O   UNL     1       7.074  25.949  53.881  1.00  0.00    -0.329 OA
BRANCH   9  10
HETATM   10  C   UNL     1       5.651  26.107  53.982  1.00  0.00     0.130 C 
HETATM   11  C   UNL     1       5.296  26.034  55.476  1.00  0.00     0.034 C 
HETATM   12  C   UNL     1       5.831  27.228  56.271  1.00  0.00     0.035 C 
HETATM   13  C   UNL     1       5.365  28.550  55.658  1.00  0.00     0.186 C 
HETATM   14  C   UNL     1       5.774  28.647  54.191  1.00  0.00     0.035 C 
HETATM   15  C   UNL     1       5.219  27.461  53.398  1.00  0.00     0.034 C 
BRANCH  13  16
HETATM   16  N   UNL     1       5.954  29.673  56.453  1.00  0.00    -0.067 N 
HETATM   17  H   UNL     1       5.240  30.370  56.702  1.00  0.00     0.277 HD
HETATM   18  H   UNL     1       6.630  30.170  55.854  1.00  0.00     0.277 HD
BRANCH  16  19
HETATM   19  C   UNL     1       6.705  29.284  57.687  1.00  0.00     0.274 C 
BRANCH  19  20
HETATM   20  C   UNL     1       8.121  29.768  57.668  1.00  0.00     0.004 A 
HETATM   21  C   UNL     1       8.546  30.766  58.531  1.00  0.00     0.113 A 
HETATM   22  C   UNL     1       9.825  31.269  58.503  1.00  0.00     0.105 A 
HETATM   23  O   UNL     1       7.783  31.349  59.500  1.00  0.00    -0.322 OA
HETATM   24  C   UNL     1      10.766  30.799  57.615  1.00  0.00     0.040 A 
HETATM   25  O   UNL     1      10.022  32.241  59.429  1.00  0.00    -0.323 OA
HETATM   26  C   UNL     1      10.378  29.790  56.731  1.00  0.00     0.003 A 
HETATM   27  C   UNL     1       9.066  29.279  56.752  1.00  0.00     0.012 A 
HETATM   28  C   UNL     1       8.709  32.348  60.008  1.00  0.00     0.352 A 
ENDBRANCH  19  20
ENDBRANCH  16  19
ENDBRANCH  13  16
ENDBRANCH   9  10
ENDBRANCH   1   9
TORSDOF 5
ENDMDL
MODEL 4
REMARK VINA RESULT:      -8.7      2.834      9.053
REMARK  5 active torsions:
REMARK  status: ('A' for Active; 'I' for Inactive)
REMARK    1  A    between atoms: C_8  and  C_9 
REMARK    2  A    between atoms: C_9  and  N_10 
REMARK    3  A    between atoms: N_10  and  C_13 
REMARK    4  A    between atoms: C_16  and  O_17 
REMARK    5  A    between atoms: O_17  and  C_18 
ROOT
HETATM    1  C   UNL     1       7.460  24.635  54.891  1.00  0.00     0.164 A 
HETATM    2  N   UNL     1       7.873  24.584  53.608  1.00  0.00    -0.236 NA
HETATM    3  C   UNL     1       8.141  23.355  53.100  1.00  0.00     0.142 A 
HETATM    4  C   UNL     1       8.022  22.177  53.822  1.00  0.00     0.062 A 
HETATM    5  C   UNL     1       8.324  20.920  53.215  1.00  0.00     0.101 C 
HETATM    6  N   UNL     1       8.575  19.902  52.720  1.00  0.00    -0.191 NA
HETATM    7  C   UNL     1       7.606  22.265  55.150  1.00  0.00     0.028 A 
HETATM    8  C   UNL     1       7.327  23.517  55.698  1.00  0.00     0.059 A 
ENDROOT
BRANCH   1   9
HETATM    9  O   UNL     1       7.203  25.862  55.474  1.00  0.00    -0.329 OA
BRANCH   9  10
HETATM   10  C   UNL     1       6.580  25.766  56.764  1.00  0.00     0.130 C 
HETATM   11  C   UNL     1       7.534  26.427  57.773  1.00  0.00     0.034 C 
HETATM   12  C   UNL     1       7.662  27.939  57.564  1.00  0.00     0.035 C 
HETATM   13  C   UNL     1       6.289  28.614  57.580  1.00  0.00     0.186 C 
HETATM   14  C   UNL     1       5.363  27.997  56.534  1.00  0.00     0.035 C 
HETATM   15  C   UNL     1       5.225  26.489  56.760  1.00  0.00     0.034 C 
BRANCH  13  16
HETATM   16  N   UNL     1       6.479  30.077  57.330  1.00  0.00    -0.067 N 
HETATM   17  H   UNL     1       5.633  30.610  57.567  1.00  0.00     0.277 HD
HETATM   18  H   UNL     1       6.619  30.214  56.318  1.00  0.00     0.277 HD
BRANCH  16  19
HETATM   19  C   UNL     1       7.658  30.712  57.998  1.00  0.00     0.274 C 
BRANCH  19  20
HETATM   20  C   UNL     1       7.291  31.378  59.287  1.00  0.00     0.004 A 
HETATM   21  C   UNL     1       7.967  31.081  60.461  1.00  0.00     0.113 A 
HETATM   22  C   UNL     1       7.621  31.637  61.671  1.00  0.00     0.105 A 
HETATM   23  O   UNL     1       9.037  30.242  60.566  1.00  0.00    -0.322 OA
HETATM   24  C   UNL     1       6.581  32.532  61.783  1.00  0.00     0.040 A 
HETATM   25  O   UNL     1       8.410  31.203  62.686  1.00  0.00    -0.323 OA
HETATM   26  C   UNL     1       5.877  32.859  60.622  1.00  0.00     0.003 A 
HETATM   27  C   UNL     1       6.225  32.286  59.384  1.00  0.00     0.012 A 
HETATM   28  C   UNL     1       9.256  30.262  62.002  1.00  0.00     0.352 A 
ENDBRANCH  19  20
ENDBRANCH  16  19
ENDBRANCH  13  16
ENDBRANCH   9  10
ENDBRANCH   1   9
TORSDOF 5
ENDMDL
MODEL 5
REMARK VINA RESULT:      -8.5      3.395      9.385
REMARK  5 active torsions:
REMARK  status: ('A' for Active; 'I' for Inactive)
REMARK    1  A    between atoms: C_8  and  C_9 
REMARK    2  A    between atoms: C_9  and  N_10 
REMARK    3  A    between atoms: N_10  and  C_13 
REMARK    4  A    between atoms: C_16  and  O_17 
REMARK    5  A    between atoms: O_17  and  C_18 
ROOT
HETATM    1  C   UNL     1       7.334  25.017  56.146  1.00  0.00     0.164 A 
HETATM    2  N   UNL     1       8.006  24.160  56.942  1.00  0.00    -0.236 NA
HETATM    3  C   UNL     1       8.241  22.920  56.445  1.00  0.00     0.142 A 
HETATM    4  C   UNL     1       7.825  22.497  55.191  1.00  0.00     0.062 A 
HETATM    5  C   UNL     1       8.111  21.173  54.741  1.00  0.00     0.101 C 
HETATM    6  N   UNL     1       8.342  20.095  54.380  1.00  0.00    -0.191 NA
HETATM    7  C   UNL     1       7.122  23.402  54.398  1.00  0.00     0.028 A 
HETATM    8  C   UNL     1       6.863  24.683  54.886  1.00  0.00     0.059 A 
ENDROOT
BRANCH   1   9
HETATM    9  O   UNL     1       7.038  26.285  56.610  1.00  0.00    -0.329 OA
BRANCH   9  10
HETATM   10  C   UNL     1       7.790  27.324  55.964  1.00  0.00     0.130 C 
HETATM   11  C   UNL     1       6.773  28.330  55.401  1.00  0.00     0.034 C 
HETATM   12  C   UNL     1       6.017  29.085  56.497  1.00  0.00     0.035 C 
HETATM   13  C   UNL     1       6.987  29.764  57.467  1.00  0.00     0.186 C 
HETATM   14  C   UNL     1       7.955  28.752  58.072  1.00  0.00     0.035 C 
HETATM   15  C   UNL     1       8.722  28.015  56.971  1.00  0.00     0.034 C 
BRANCH  13  16
HETATM   16  N   UNL     1       6.188  30.446  58.533  1.00  0.00    -0.067 N 
HETATM   17  H   UNL     1       6.146  29.879  59.389  1.00  0.00     0.277 HD
HETATM   18  H   UNL     1       5.214  30.525  58.204  1.00  0.00     0.277 HD
BRANCH  16  19
HETATM   19  C   UNL     1       6.616  31.835  58.890  1.00  0.00     0.274 C 
BRANCH  19  20
HETATM   20  C   UNL     1       7.210  31.913  60.261  1.00  0.00     0.004 A 
HETATM   21  C   UNL     1       6.414  32.143  61.373  1.00  0.00     0.113 A 
HETATM   22  C   UNL     1       6.935  32.271  62.638  1.00  0.00     0.105 A 
HETATM   23  O   UNL     1       5.054  32.252  61.360  1.00  0.00    -0.322 OA
HETATM   24  C   UNL     1       8.287  32.170  62.876  1.00  0.00     0.040 A 
HETATM   25  O   UNL     1       5.978  32.498  63.573  1.00  0.00    -0.323 OA
HETATM   26  C   UNL     1       9.123  31.934  61.783  1.00  0.00     0.003 A 
HETATM   27  C   UNL     1       8.593  31.810  60.484  1.00  0.00     0.012 A 
HETATM   28  C   UNL     1       4.796  32.563  62.756  1.00  0.00     0.352 A 
ENDBRANCH  19  20
ENDBRANCH  16  19
ENDBRANCH  13  16
ENDBRANCH   9  10
ENDBRANCH   1   9
TORSDOF 5
ENDMDL
MODEL 6
REMARK VINA RESULT:      -8.4      2.268      4.091
REMARK  5 active torsions:
REMARK  status: ('A' for Active; 'I' for Inactive)
REMARK    1  A    between atoms: C_8  and  C_9 
REMARK    2  A    between atoms: C_9  and  N_10 
REMARK    3  A    between atoms: N_10  and  C_13 
REMARK    4  A    between atoms: C_16  and  O_17 
REMARK    5  A    between atoms: O_17  and  C_18 
ROOT
HETATM    1  C   UNL     1       7.993  31.155  59.579  1.00  0.00     0.164 A 
HETATM    2  N   UNL     1       8.849  30.734  60.533  1.00  0.00    -0.236 NA
HETATM    3  C   UNL     1       8.722  31.298  61.760  1.00  0.00     0.142 A 
HETATM    4  C   UNL     1       7.783  32.271  62.071  1.00  0.00     0.062 A 
HETATM    5  C   UNL     1       7.713  32.817  63.388  1.00  0.00     0.101 C 
HETATM    6  N   UNL     1       7.662  33.261  64.459  1.00  0.00    -0.191 NA
HETATM    7  C   UNL     1       6.922  32.694  61.059  1.00  0.00     0.028 A 
HETATM    8  C   UNL     1       7.034  32.133  59.787  1.00  0.00     0.059 A 
ENDROOT
BRANCH   1   9
HETATM    9  O   UNL     1       8.095  30.640  58.300  1.00  0.00    -0.329 OA
BRANCH   9  10
HETATM   10  C   UNL     1       8.687  29.332  58.253  1.00  0.00     0.130 C 
HETATM   11  C   UNL     1       7.547  28.334  57.991  1.00  0.00     0.034 C 
HETATM   12  C   UNL     1       6.936  28.485  56.596  1.00  0.00     0.035 C 
HETATM   13  C   UNL     1       8.011  28.390  55.511  1.00  0.00     0.186 C 
HETATM   14  C   UNL     1       9.110  29.425  55.738  1.00  0.00     0.035 C 
HETATM   15  C   UNL     1       9.730  29.256  57.128  1.00  0.00     0.034 C 
BRANCH  13  16
HETATM   16  N   UNL     1       7.358  28.587  54.179  1.00  0.00    -0.067 N 
HETATM   17  H   UNL     1       8.050  28.590  53.419  1.00  0.00     0.277 HD
HETATM   18  H   UNL     1       6.929  29.525  54.168  1.00  0.00     0.277 HD
BRANCH  16  19
HETATM   19  C   UNL     1       6.261  27.629  53.835  1.00  0.00     0.274 C 
BRANCH  19  20
HETATM   20  C   UNL     1       6.779  26.265  53.505  1.00  0.00     0.004 A 
HETATM   21  C   UNL     1       6.820  25.265  54.464  1.00  0.00     0.113 A 
HETATM   22  C   UNL     1       7.338  24.017  54.207  1.00  0.00     0.105 A 
HETATM   23  O   UNL     1       6.353  25.376  55.741  1.00  0.00    -0.322 OA
HETATM   24  C   UNL     1       7.842  23.686  52.969  1.00  0.00     0.040 A 
HETATM   25  O   UNL     1       7.283  23.199  55.288  1.00  0.00    -0.323 OA
HETATM   26  C   UNL     1       7.815  24.666  51.974  1.00  0.00     0.003 A 
HETATM   27  C   UNL     1       7.292  25.946  52.237  1.00  0.00     0.012 A 
HETATM   28  C   UNL     1       6.731  24.081  56.281  1.00  0.00     0.352 A 
ENDBRANCH  19  20
ENDBRANCH  16  19
ENDBRANCH  13  16
ENDBRANCH   9  10
ENDBRANCH   1   9
TORSDOF 5
ENDMDL
MODEL 7
REMARK VINA RESULT:      -8.3      5.446      9.098
REMARK  5 active torsions:
REMARK  status: ('A' for Active; 'I' for Inactive)
REMARK    1  A    between atoms: C_8  and  C_9 
REMARK    2  A    between atoms: C_9  and  N_10 
REMARK    3  A    between atoms: N_10  and  C_13 
REMARK    4  A    between atoms: C_16  and  O_17 
REMARK    5  A    between atoms: O_17  and  C_18 
ROOT
HETATM    1  C   UNL     1       7.352  24.622  53.746  1.00  0.00     0.164 A 
HETATM    2  N   UNL     1       7.962  23.949  52.749  1.00  0.00    -0.236 NA
HETATM    3  C   UNL     1       8.333  22.670  53.011  1.00  0.00     0.142 A 
HETATM    4  C   UNL     1       8.127  22.040  54.229  1.00  0.00     0.062 A 
HETATM    5  C   UNL     1       8.547  20.690  54.427  1.00  0.00     0.101 C 
HETATM    6  N   UNL     1       8.894  19.594  54.585  1.00  0.00    -0.191 NA
HETATM    7  C   UNL     1       7.506  22.767  55.243  1.00  0.00     0.028 A 
HETATM    8  C   UNL     1       7.118  24.086  55.002  1.00  0.00     0.059 A 
ENDROOT
BRANCH   1   9
HETATM    9  O   UNL     1       6.981  25.939  53.549  1.00  0.00    -0.329 OA
BRANCH   9  10
HETATM   10  C   UNL     1       5.563  26.154  53.630  1.00  0.00     0.130 C 
HETATM   11  C   UNL     1       5.319  27.645  53.344  1.00  0.00     0.034 C 
HETATM   12  C   UNL     1       5.643  28.033  51.899  1.00  0.00     0.035 C 
HETATM   13  C   UNL     1       4.882  27.150  50.908  1.00  0.00     0.186 C 
HETATM   14  C   UNL     1       5.175  25.672  51.154  1.00  0.00     0.035 C 
HETATM   15  C   UNL     1       4.830  25.287  52.595  1.00  0.00     0.034 C 
BRANCH  13  16
HETATM   16  N   UNL     1       5.273  27.550  49.521  1.00  0.00    -0.067 N 
HETATM   17  H   UNL     1       6.295  27.598  49.419  1.00  0.00     0.277 HD
HETATM   18  H   UNL     1       4.933  28.509  49.355  1.00  0.00     0.277 HD
BRANCH  16  19
HETATM   19  C   UNL     1       4.712  26.717  48.411  1.00  0.00     0.274 C 
BRANCH  19  20
HETATM   20  C   UNL     1       3.434  27.278  47.869  1.00  0.00     0.004 A 
HETATM   21  C   UNL     1       3.386  28.555  47.333  1.00  0.00     0.113 A 
HETATM   22  C   UNL     1       2.219  29.118  46.874  1.00  0.00     0.105 A 
HETATM   23  O   UNL     1       4.456  29.387  47.179  1.00  0.00    -0.322 OA
HETATM   24  C   UNL     1       1.024  28.436  46.915  1.00  0.00     0.040 A 
HETATM   25  O   UNL     1       2.401  30.376  46.398  1.00  0.00    -0.323 OA
HETATM   26  C   UNL     1       1.031  27.144  47.445  1.00  0.00     0.003 A 
HETATM   27  C   UNL     1       2.224  26.568  47.922  1.00  0.00     0.012 A 
HETATM   28  C   UNL     1       3.801  30.577  46.661  1.00  0.00     0.352 A 
ENDBRANCH  19  20
ENDBRANCH  16  19
ENDBRANCH  13  16
ENDBRANCH   9  10
ENDBRANCH   1   9
TORSDOF 5
ENDMDL
MODEL 8
REMARK VINA RESULT:      -8.1      2.945      9.214
REMARK  5 active torsions:
REMARK  status: ('A' for Active; 'I' for Inactive)
REMARK    1  A    between atoms: C_8  and  C_9 
REMARK    2  A    between atoms: C_9  and  N_10 
REMARK    3  A    between atoms: N_10  and  C_13 
REMARK    4  A    between atoms: C_16  and  O_17 
REMARK    5  A    between atoms: O_17  and  C_18 
ROOT
HETATM    1  C   UNL     1       6.902  24.646  54.845  1.00  0.00     0.164 A 
HETATM    2  N   UNL     1       7.276  23.683  55.711  1.00  0.00    -0.236 NA
HETATM    3  C   UNL     1       7.699  22.510  55.177  1.00  0.00     0.142 A 
HETATM    4  C   UNL     1       7.755  22.256  53.814  1.00  0.00     0.062 A 
HETATM    5  C   UNL     1       8.212  20.993  53.330  1.00  0.00     0.101 C 
HETATM    6  N   UNL     1       8.579  19.964  52.940  1.00  0.00    -0.191 NA
HETATM    7  C   UNL     1       7.348  23.268  52.946  1.00  0.00     0.028 A 
HETATM    8  C   UNL     1       6.905  24.483  53.469  1.00  0.00     0.059 A 
ENDROOT
BRANCH   1   9
HETATM    9  O   UNL     1       6.432  25.852  55.331  1.00  0.00    -0.329 OA
BRANCH   9  10
HETATM   10  C   UNL     1       6.301  26.866  54.323  1.00  0.00     0.130 C 
HETATM   11  C   UNL     1       5.013  27.646  54.635  1.00  0.00     0.034 C 
HETATM   12  C   UNL     1       5.111  28.458  55.929  1.00  0.00     0.035 C 
HETATM   13  C   UNL     1       6.326  29.388  55.904  1.00  0.00     0.186 C 
HETATM   14  C   UNL     1       7.612  28.603  55.656  1.00  0.00     0.035 C 
HETATM   15  C   UNL     1       7.514  27.809  54.351  1.00  0.00     0.034 C 
BRANCH  13  16
HETATM   16  N   UNL     1       6.389  30.119  57.208  1.00  0.00    -0.067 N 
HETATM   17  H   UNL     1       7.360  30.316  57.481  1.00  0.00     0.277 HD
HETATM   18  H   UNL     1       6.014  29.499  57.942  1.00  0.00     0.277 HD
BRANCH  16  19
HETATM   19  C   UNL     1       5.594  31.384  57.293  1.00  0.00     0.274 C 
BRANCH  19  20
HETATM   20  C   UNL     1       5.528  31.922  58.688  1.00  0.00     0.004 A 
HETATM   21  C   UNL     1       6.682  32.151  59.420  1.00  0.00     0.113 A 
HETATM   22  C   UNL     1       6.654  32.596  60.721  1.00  0.00     0.105 A 
HETATM   23  O   UNL     1       7.955  31.988  58.958  1.00  0.00    -0.322 OA
HETATM   24  C   UNL     1       5.467  32.848  61.372  1.00  0.00     0.040 A 
HETATM   25  O   UNL     1       7.896  32.746  61.246  1.00  0.00    -0.323 OA
HETATM   26  C   UNL     1       4.281  32.633  60.666  1.00  0.00     0.003 A 
HETATM   27  C   UNL     1       4.308  32.171  59.337  1.00  0.00     0.012 A 
HETATM   28  C   UNL     1       8.719  32.288  60.158  1.00  0.00     0.352 A 
ENDBRANCH  19  20
ENDBRANCH  16  19
ENDBRANCH  13  16
ENDBRANCH   9  10
ENDBRANCH   1   9
TORSDOF 5
ENDMDL
MODEL 9
REMARK VINA RESULT:      -8.1      4.959      8.573
REMARK  5 active torsions:
REMARK  status: ('A' for Active; 'I' for Inactive)
REMARK    1  A    between atoms: C_8  and  C_9 
REMARK    2  A    between atoms: C_9  and  N_10 
REMARK    3  A    between atoms: N_10  and  C_13 
REMARK    4  A    between atoms: C_16  and  O_17 
REMARK    5  A    between atoms: O_17  and  C_18 
ROOT
HETATM    1  C   UNL     1       7.310  24.631  54.205  1.00  0.00     0.164 A 
HETATM    2  N   UNL     1       7.173  23.880  55.317  1.00  0.00    -0.236 NA
HETATM    3  C   UNL     1       7.618  22.600  55.249  1.00  0.00     0.142 A 
HETATM    4  C   UNL     1       8.184  22.037  54.115  1.00  0.00     0.062 A 
HETATM    5  C   UNL     1       8.627  20.680  54.124  1.00  0.00     0.101 C 
HETATM    6  N   UNL     1       8.982  19.575  54.133  1.00  0.00    -0.191 NA
HETATM    7  C   UNL     1       8.299  22.836  52.979  1.00  0.00     0.028 A 
HETATM    8  C   UNL     1       7.846  24.154  53.020  1.00  0.00     0.059 A 
ENDROOT
BRANCH   1   9
HETATM    9  O   UNL     1       6.847  25.934  54.204  1.00  0.00    -0.329 OA
BRANCH   9  10
HETATM   10  C   UNL     1       5.418  26.035  54.301  1.00  0.00     0.130 C 
HETATM   11  C   UNL     1       5.091  27.508  54.594  1.00  0.00     0.034 C 
HETATM   12  C   UNL     1       5.422  28.434  53.421  1.00  0.00     0.035 C 
HETATM   13  C   UNL     1       4.735  27.962  52.137  1.00  0.00     0.186 C 
HETATM   14  C   UNL     1       5.110  26.518  51.814  1.00  0.00     0.035 C 
HETATM   15  C   UNL     1       4.759  25.595  52.984  1.00  0.00     0.034 C 
BRANCH  13  16
HETATM   16  N   UNL     1       5.131  28.880  51.024  1.00  0.00    -0.067 N 
HETATM   17  H   UNL     1       5.938  29.461  51.287  1.00  0.00     0.277 HD
HETATM   18  H   UNL     1       4.355  29.540  50.862  1.00  0.00     0.277 HD
BRANCH  16  19
HETATM   19  C   UNL     1       5.405  28.234  49.702  1.00  0.00     0.274 C 
BRANCH  19  20
HETATM   20  C   UNL     1       4.245  28.344  48.764  1.00  0.00     0.004 A 
HETATM   21  C   UNL     1       3.644  27.212  48.236  1.00  0.00     0.113 A 
HETATM   22  C   UNL     1       2.611  27.279  47.332  1.00  0.00     0.105 A 
HETATM   23  O   UNL     1       3.976  25.925  48.545  1.00  0.00    -0.322 OA
HETATM   24  C   UNL     1       2.105  28.486  46.903  1.00  0.00     0.040 A 
HETATM   25  O   UNL     1       2.179  26.053  46.943  1.00  0.00    -0.323 OA
HETATM   26  C   UNL     1       2.681  29.650  47.415  1.00  0.00     0.003 A 
HETATM   27  C   UNL     1       3.745  29.584  48.335  1.00  0.00     0.012 A 
HETATM   28  C   UNL     1       3.093  25.196  47.651  1.00  0.00     0.352 A 
ENDBRANCH  19  20
ENDBRANCH  16  19
ENDBRANCH  13  16
ENDBRANCH   9  10
ENDBRANCH   1   9
TORSDOF 5
ENDMDL
MODEL 10
REMARK VINA RESULT:      -8.0      2.544      8.695
REMARK  5 active torsions:
REMARK  status: ('A' for Active; 'I' for Inactive)
REMARK    1  A    between atoms: C_8  and  C_9 
REMARK    2  A    between atoms: C_9  and  N_10 
REMARK    3  A    between atoms: N_10  and  C_13 
REMARK    4  A    between atoms: C_16  and  O_17 
REMARK    5  A    between atoms: O_17  and  C_18 
ROOT
HETATM    1  C   UNL     1       6.775  24.342  54.641  1.00  0.00     0.164 A 
HETATM    2  N   UNL     1       7.141  23.576  55.689  1.00  0.00    -0.236 NA
HETATM    3  C   UNL     1       7.714  22.380  55.402  1.00  0.00     0.142 A 
HETATM    4  C   UNL     1       7.927  21.914  54.113  1.00  0.00     0.062 A 
HETATM    5  C   UNL     1       8.536  20.642  53.893  1.00  0.00     0.101 C 
HETATM    6  N   UNL     1       9.027  19.606  53.718  1.00  0.00    -0.191 NA
HETATM    7  C   UNL     1       7.525  22.725  53.052  1.00  0.00     0.028 A 
HETATM    8  C   UNL     1       6.930  23.958  53.320  1.00  0.00     0.059 A 
ENDROOT
BRANCH   1   9
HETATM    9  O   UNL     1       6.157  25.557  54.872  1.00  0.00    -0.329 OA
BRANCH   9  10
HETATM   10  C   UNL     1       6.131  26.416  53.721  1.00  0.00     0.130 C 
HETATM   11  C   UNL     1       4.887  27.308  53.855  1.00  0.00     0.034 C 
HETATM   12  C   UNL     1       4.989  28.298  55.020  1.00  0.00     0.035 C 
HETATM   13  C   UNL     1       6.263  29.139  54.916  1.00  0.00     0.186 C 
HETATM   14  C   UNL     1       7.502  28.251  54.845  1.00  0.00     0.035 C 
HETATM   15  C   UNL     1       7.402  27.279  53.668  1.00  0.00     0.034 C 
BRANCH  13  16
HETATM   16  N   UNL     1       6.324  30.052  56.100  1.00  0.00    -0.067 N 
HETATM   17  H   UNL     1       5.453  30.587  56.206  1.00  0.00     0.277 HD
HETATM   18  H   UNL     1       7.061  30.753  55.927  1.00  0.00     0.277 HD
BRANCH  16  19
HETATM   19  C   UNL     1       6.665  29.411  57.409  1.00  0.00     0.274 C 
BRANCH  19  20
HETATM   20  C   UNL     1       7.336  30.362  58.350  1.00  0.00     0.004 A 
HETATM   21  C   UNL     1       6.616  31.356  58.994  1.00  0.00     0.113 A 
HETATM   22  C   UNL     1       7.211  32.277  59.824  1.00  0.00     0.105 A 
HETATM   23  O   UNL     1       5.267  31.537  58.905  1.00  0.00    -0.322 OA
HETATM   24  C   UNL     1       8.565  32.257  60.070  1.00  0.00     0.040 A 
HETATM   25  O   UNL     1       6.322  33.161  60.341  1.00  0.00    -0.323 OA
HETATM   26  C   UNL     1       9.325  31.267  59.443  1.00  0.00     0.003 A 
HETATM   27  C   UNL     1       8.719  30.328  58.587  1.00  0.00     0.012 A 
HETATM   28  C   UNL     1       5.103  32.743  59.701  1.00  0.00     0.352 A 
ENDBRANCH  19  20
ENDBRANCH  16  19
ENDBRANCH  13  16
ENDBRANCH   9  10
ENDBRANCH   1   9
TORSDOF 5
ENDMDL
