MODEL 1
REMARK VINA RESULT:      -8.8      0.000      0.000
REMARK  7 active torsions:
REMARK  status: ('A' for Active; 'I' for Inactive)
REMARK    1  A    between atoms: C_3  and  C_4 
REMARK    2  A    between atoms: C_4  and  N_5 
REMARK       I    between atoms: N_5  and  C_6 
REMARK    3  A    between atoms: C_6  and  C_7 
REMARK    4  A    between atoms: C_7  and  N_8 
REMARK    5  A    between atoms: C_10  and  C_11 
REMARK    6  A    between atoms: C_11  and  N_12 
REMARK       I    between atoms: N_12  and  C_13 
REMARK       I    between atoms: C_13  and  N_14 
REMARK    7  A    between atoms: N_14  and  C_15 
ROOT
HETATM    1  N   UNL     1       4.855  28.434  53.303  1.00  0.00    -0.057 N 
HETATM    2  H   UNL     1       5.129  29.378  53.640  1.00  0.00     0.281 HD
HETATM    3  C   UNL     1       5.792  28.196  52.111  1.00  0.00     0.206 C 
HETATM    4  C   UNL     1       5.525  29.318  51.093  1.00  0.00     0.035 C 
HETATM    5  C   UNL     1       4.057  29.402  50.686  1.00  0.00     0.004 C 
HETATM    6  C   UNL     1       3.159  29.574  51.905  1.00  0.00     0.028 C 
HETATM    7  C   UNL     1       3.396  28.503  52.961  1.00  0.00     0.236 C 
ENDROOT
BRANCH   1   8
HETATM    8  C   UNL     1       5.164  27.572  54.531  1.00  0.00     0.337 C 
BRANCH   8   9
HETATM    9  C   UNL     1       6.649  27.651  54.885  1.00  0.00     0.243 C 
HETATM   10  N   UNL     1       7.106  28.886  55.249  1.00  0.00    -0.355 N 
HETATM   11  H   UNL     1       6.480  29.672  55.378  1.00  0.00     0.162 HD
HETATM   12  O   UNL     1       7.344  26.640  54.794  1.00  0.00    -0.272 OA
BRANCH  10  13
HETATM   13  C   UNL     1       8.509  29.131  55.526  1.00  0.00     0.169 C 
BRANCH  13  14
HETATM   14  C   UNL     1       8.606  29.651  56.928  1.00  0.00     0.006 A 
HETATM   15  C   UNL     1       9.731  29.975  57.675  1.00  0.00    -0.047 A 
HETATM   16  C   UNL     1      11.151  29.903  57.214  1.00  0.00     0.049 C 
HETATM   17  C   UNL     1       9.362  30.426  58.988  1.00  0.00     0.015 A 
HETATM   18  C   UNL     1       8.003  30.424  59.192  1.00  0.00     0.051 A 
HETATM   19  S   UNL     1       7.154  29.889  57.818  1.00  0.00    -0.104 SA
ENDBRANCH  13  14
ENDBRANCH  10  13
ENDBRANCH   8   9
ENDBRANCH   1   8
BRANCH   3  20
HETATM   20  C   UNL     1       5.627  26.767  51.505  1.00  0.00     0.157 C 
BRANCH  20  21
HETATM   21  N   UNL     1       6.701  25.842  51.823  1.00  0.00    -0.341 N 
HETATM   22  C   UNL     1       6.435  24.719  52.588  1.00  0.00     0.320 C 
HETATM   23  N   UNL     1       7.570  23.970  52.776  1.00  0.00    -0.309 N 
HETATM   24  O   UNL     1       5.316  24.523  53.040  1.00  0.00    -0.247 OA
HETATM   25  H   UNL     1       8.426  24.346  52.396  1.00  0.00     0.170 HD
HETATM   26  H   UNL     1       7.419  25.710  51.122  1.00  0.00     0.164 HD
BRANCH  23  27
HETATM   27  C   UNL     1       7.711  22.791  53.535  1.00  0.00     0.036 A 
HETATM   28  C   UNL     1       7.637  22.745  54.929  1.00  0.00     0.029 A 
HETATM   29  C   UNL     1       7.804  21.532  55.606  1.00  0.00     0.002 A 
HETATM   30  C   UNL     1       8.044  20.358  54.896  1.00  0.00     0.000 A 
HETATM   31  C   UNL     1       8.114  20.392  53.506  1.00  0.00     0.002 A 
HETATM   32  C   UNL     1       7.949  21.603  52.830  1.00  0.00     0.029 A 
ENDBRANCH  23  27
ENDBRANCH  20  21
ENDBRANCH   3  20
TORSDOF 7
ENDMDL
MODEL 2
REMARK VINA RESULT:      -8.8      3.438      5.045
REMARK  7 active torsions:
REMARK  status: ('A' for Active; 'I' for Inactive)
REMARK    1  A    between atoms: C_3  and  C_4 
REMARK    2  A    between atoms: C_4  and  N_5 
REMARK       I    between atoms: N_5  and  C_6 
REMARK    3  A    between atoms: C_6  and  C_7 
REMARK    4  A    between atoms: C_7  and  N_8 
REMARK    5  A    between atoms: C_10  and  C_11 
REMARK    6  A    between atoms: C_11  and  N_12 
REMARK       I    between atoms: N_12  and  C_13 
REMARK       I    between atoms: C_13  and  N_14 
REMARK    7  A    between atoms: N_14  and  C_15 
ROOT
HETATM    1  N   UNL     1       7.514  29.646  57.515  1.00  0.00    -0.057 N 
HETATM    2  H   UNL     1       7.978  30.433  57.023  1.00  0.00     0.281 HD
HETATM    3  C   UNL     1       8.127  28.402  56.856  1.00  0.00     0.206 C 
HETATM    4  C   UNL     1       7.796  28.475  55.356  1.00  0.00     0.035 C 
HETATM    5  C   UNL     1       6.299  28.610  55.091  1.00  0.00     0.004 C 
HETATM    6  C   UNL     1       5.721  29.819  55.817  1.00  0.00     0.028 C 
HETATM    7  C   UNL     1       6.038  29.814  57.306  1.00  0.00     0.236 C 
ENDROOT
BRANCH   1   8
HETATM    8  C   UNL     1       7.965  29.882  58.960  1.00  0.00     0.337 C 
BRANCH   8   9
HETATM    9  C   UNL     1       7.698  31.329  59.377  1.00  0.00     0.243 C 
HETATM   10  N   UNL     1       6.674  31.510  60.263  1.00  0.00    -0.355 N 
HETATM   11  H   UNL     1       6.194  30.729  60.695  1.00  0.00     0.162 HD
HETATM   12  O   UNL     1       8.374  32.232  58.884  1.00  0.00    -0.272 OA
BRANCH  10  13
HETATM   13  C   UNL     1       6.248  32.833  60.680  1.00  0.00     0.169 C 
BRANCH  13  14
HETATM   14  C   UNL     1       6.478  32.934  62.158  1.00  0.00     0.006 A 
HETATM   15  C   UNL     1       7.632  32.693  62.892  1.00  0.00    -0.047 A 
HETATM   16  C   UNL     1       8.963  32.293  62.342  1.00  0.00     0.049 C 
HETATM   17  C   UNL     1       7.401  32.900  64.293  1.00  0.00     0.015 A 
HETATM   18  C   UNL     1       6.109  33.276  64.573  1.00  0.00     0.051 A 
HETATM   19  S   UNL     1       5.161  33.391  63.164  1.00  0.00    -0.104 SA
ENDBRANCH  13  14
ENDBRANCH  10  13
ENDBRANCH   8   9
ENDBRANCH   1   8
BRANCH   3  20
HETATM   20  C   UNL     1       7.643  27.079  57.527  1.00  0.00     0.157 C 
BRANCH  20  21
HETATM   21  N   UNL     1       8.371  25.888  57.123  1.00  0.00    -0.341 N 
HETATM   22  C   UNL     1       7.775  24.977  56.268  1.00  0.00     0.320 C 
HETATM   23  N   UNL     1       8.618  23.928  56.001  1.00  0.00    -0.309 N 
HETATM   24  O   UNL     1       6.625  25.140  55.886  1.00  0.00    -0.247 OA
HETATM   25  H   UNL     1       9.504  23.926  56.485  1.00  0.00     0.170 HD
HETATM   26  H   UNL     1       9.373  25.977  57.008  1.00  0.00     0.164 HD
BRANCH  23  27
HETATM   27  C   UNL     1       8.354  22.785  55.218  1.00  0.00     0.036 A 
HETATM   28  C   UNL     1       8.184  21.502  55.740  1.00  0.00     0.029 A 
HETATM   29  C   UNL     1       7.941  20.419  54.888  1.00  0.00     0.002 A 
HETATM   30  C   UNL     1       7.863  20.611  53.511  1.00  0.00     0.000 A 
HETATM   31  C   UNL     1       8.026  21.888  52.981  1.00  0.00     0.002 A 
HETATM   32  C   UNL     1       8.271  22.969  53.831  1.00  0.00     0.029 A 
ENDBRANCH  23  27
ENDBRANCH  20  21
ENDBRANCH   3  20
TORSDOF 7
ENDMDL
MODEL 3
REMARK VINA RESULT:      -8.6      2.844      8.612
REMARK  7 active torsions:
REMARK  status: ('A' for Active; 'I' for Inactive)
REMARK    1  A    between atoms: C_3  and  C_4 
REMARK    2  A    between atoms: C_4  and  N_5 
REMARK       I    between atoms: N_5  and  C_6 
REMARK    3  A    between atoms: C_6  and  C_7 
REMARK    4  A    between atoms: C_7  and  N_8 
REMARK    5  A    between atoms: C_10  and  C_11 
REMARK    6  A    between atoms: C_11  and  N_12 
REMARK       I    between atoms: N_12  and  C_13 
REMARK       I    between atoms: C_13  and  N_14 
REMARK    7  A    between atoms: N_14  and  C_15 
ROOT
HETATM    1  N   UNL     1       6.394  27.586  54.668  1.00  0.00    -0.057 N 
HETATM    2  H   UNL     1       5.892  26.677  54.645  1.00  0.00     0.281 HD
HETATM    3  C   UNL     1       6.695  27.789  56.159  1.00  0.00     0.206 C 
HETATM    4  C   UNL     1       5.346  27.810  56.895  1.00  0.00     0.035 C 
HETATM    5  C   UNL     1       4.388  28.858  56.335  1.00  0.00     0.004 C 
HETATM    6  C   UNL     1       4.169  28.657  54.841  1.00  0.00     0.028 C 
HETATM    7  C   UNL     1       5.474  28.604  54.060  1.00  0.00     0.236 C 
ENDROOT
BRANCH   1   8
HETATM    8  C   UNL     1       7.625  27.274  53.810  1.00  0.00     0.337 C 
BRANCH   8   9
HETATM    9  C   UNL     1       7.443  25.950  53.068  1.00  0.00     0.243 C 
HETATM   10  N   UNL     1       7.967  24.849  53.684  1.00  0.00    -0.355 N 
HETATM   11  H   UNL     1       8.356  24.892  54.619  1.00  0.00     0.162 HD
HETATM   12  O   UNL     1       6.882  25.946  51.973  1.00  0.00    -0.272 OA
BRANCH  10  13
HETATM   13  C   UNL     1       7.948  23.540  53.057  1.00  0.00     0.169 C 
BRANCH  13  14
HETATM   14  C   UNL     1       8.098  22.519  54.144  1.00  0.00     0.006 A 
HETATM   15  C   UNL     1       8.246  21.142  54.049  1.00  0.00    -0.047 A 
HETATM   16  C   UNL     1       8.323  20.344  52.787  1.00  0.00     0.049 C 
HETATM   17  C   UNL     1       8.344  20.545  55.352  1.00  0.00     0.015 A 
HETATM   18  C   UNL     1       8.262  21.465  56.369  1.00  0.00     0.051 A 
HETATM   19  S   UNL     1       8.073  23.051  55.779  1.00  0.00    -0.104 SA
ENDBRANCH  13  14
ENDBRANCH  10  13
ENDBRANCH   8   9
ENDBRANCH   1   8
BRANCH   3  20
HETATM   20  C   UNL     1       7.556  29.065  56.419  1.00  0.00     0.157 C 
BRANCH  20  21
HETATM   21  N   UNL     1       7.960  29.257  57.801  1.00  0.00    -0.341 N 
HETATM   22  C   UNL     1       7.454  30.324  58.522  1.00  0.00     0.320 C 
HETATM   23  N   UNL     1       7.948  30.332  59.803  1.00  0.00    -0.309 N 
HETATM   24  O   UNL     1       6.706  31.135  57.995  1.00  0.00    -0.247 OA
HETATM   25  H   UNL     1       8.630  29.623  60.028  1.00  0.00     0.170 HD
HETATM   26  H   UNL     1       8.133  28.424  58.351  1.00  0.00     0.164 HD
BRANCH  23  27
HETATM   27  C   UNL     1       7.706  31.283  60.816  1.00  0.00     0.036 A 
HETATM   28  C   UNL     1       6.851  32.377  60.673  1.00  0.00     0.029 A 
HETATM   29  C   UNL     1       6.680  33.282  61.726  1.00  0.00     0.002 A 
HETATM   30  C   UNL     1       7.359  33.100  62.928  1.00  0.00     0.000 A 
HETATM   31  C   UNL     1       8.209  32.008  63.082  1.00  0.00     0.002 A 
HETATM   32  C   UNL     1       8.382  31.105  62.031  1.00  0.00     0.029 A 
ENDBRANCH  23  27
ENDBRANCH  20  21
ENDBRANCH   3  20
TORSDOF 7
ENDMDL
MODEL 4
REMARK VINA RESULT:      -8.6      2.965      8.301
REMARK  7 active torsions:
REMARK  status: ('A' for Active; 'I' for Inactive)
REMARK    1  A    between atoms: C_3  and  C_4 
REMARK    2  A    between atoms: C_4  and  N_5 
REMARK       I    between atoms: N_5  and  C_6 
REMARK    3  A    between atoms: C_6  and  C_7 
REMARK    4  A    between atoms: C_7  and  N_8 
REMARK    5  A    between atoms: C_10  and  C_11 
REMARK    6  A    between atoms: C_11  and  N_12 
REMARK       I    between atoms: N_12  and  C_13 
REMARK       I    between atoms: C_13  and  N_14 
REMARK    7  A    between atoms: N_14  and  C_15 
ROOT
HETATM    1  N   UNL     1       5.150  26.416  55.774  1.00  0.00    -0.057 N 
HETATM    2  H   UNL     1       4.161  26.103  55.831  1.00  0.00     0.281 HD
HETATM    3  C   UNL     1       5.060  27.928  56.024  1.00  0.00     0.206 C 
HETATM    4  C   UNL     1       4.162  28.516  54.923  1.00  0.00     0.035 C 
HETATM    5  C   UNL     1       4.654  28.174  53.519  1.00  0.00     0.004 C 
HETATM    6  C   UNL     1       4.790  26.667  53.338  1.00  0.00     0.028 C 
HETATM    7  C   UNL     1       5.652  26.024  54.416  1.00  0.00     0.236 C 
ENDROOT
BRANCH   1   8
HETATM    8  C   UNL     1       5.785  25.623  56.922  1.00  0.00     0.337 C 
BRANCH   8   9
HETATM    9  C   UNL     1       7.228  25.250  56.584  1.00  0.00     0.243 C 
HETATM   10  N   UNL     1       7.430  23.957  56.192  1.00  0.00    -0.355 N 
HETATM   11  H   UNL     1       6.658  23.319  56.034  1.00  0.00     0.162 HD
HETATM   12  O   UNL     1       8.114  26.095  56.711  1.00  0.00    -0.272 OA
BRANCH  10  13
HETATM   13  C   UNL     1       8.757  23.436  55.925  1.00  0.00     0.169 C 
BRANCH  13  14
HETATM   14  C   UNL     1       8.611  22.313  54.943  1.00  0.00     0.006 A 
HETATM   15  C   UNL     1       8.243  22.352  53.604  1.00  0.00    -0.047 A 
HETATM   16  C   UNL     1       7.929  23.577  52.807  1.00  0.00     0.049 C 
HETATM   17  C   UNL     1       8.217  21.031  53.041  1.00  0.00     0.015 A 
HETATM   18  C   UNL     1       8.552  20.055  53.950  1.00  0.00     0.051 A 
HETATM   19  S   UNL     1       8.905  20.707  55.482  1.00  0.00    -0.104 SA
ENDBRANCH  13  14
ENDBRANCH  10  13
ENDBRANCH   8   9
ENDBRANCH   1   8
BRANCH   3  20
HETATM   20  C   UNL     1       6.467  28.601  56.091  1.00  0.00     0.157 C 
BRANCH  20  21
HETATM   21  N   UNL     1       6.526  29.813  56.888  1.00  0.00    -0.341 N 
HETATM   22  C   UNL     1       7.249  29.824  58.068  1.00  0.00     0.320 C 
HETATM   23  N   UNL     1       7.189  31.055  58.673  1.00  0.00    -0.309 N 
HETATM   24  O   UNL     1       7.801  28.810  58.471  1.00  0.00    -0.247 OA
HETATM   25  H   UNL     1       6.605  31.748  58.228  1.00  0.00     0.170 HD
HETATM   26  H   UNL     1       6.526  30.694  56.389  1.00  0.00     0.164 HD
BRANCH  23  27
HETATM   27  C   UNL     1       7.753  31.441  59.906  1.00  0.00     0.036 A 
HETATM   28  C   UNL     1       9.124  31.451  60.169  1.00  0.00     0.029 A 
HETATM   29  C   UNL     1       9.599  31.833  61.428  1.00  0.00     0.002 A 
HETATM   30  C   UNL     1       8.709  32.210  62.431  1.00  0.00     0.000 A 
HETATM   31  C   UNL     1       7.341  32.209  62.177  1.00  0.00     0.002 A 
HETATM   32  C   UNL     1       6.866  31.825  60.920  1.00  0.00     0.029 A 
ENDBRANCH  23  27
ENDBRANCH  20  21
ENDBRANCH   3  20
TORSDOF 7
ENDMDL
MODEL 5
REMARK VINA RESULT:      -8.5      2.522      7.065
REMARK  7 active torsions:
REMARK  status: ('A' for Active; 'I' for Inactive)
REMARK    1  A    between atoms: C_3  and  C_4 
REMARK    2  A    between atoms: C_4  and  N_5 
REMARK       I    between atoms: N_5  and  C_6 
REMARK    3  A    between atoms: C_6  and  C_7 
REMARK    4  A    between atoms: C_7  and  N_8 
REMARK    5  A    between atoms: C_10  and  C_11 
REMARK    6  A    between atoms: C_11  and  N_12 
REMARK       I    between atoms: N_12  and  C_13 
REMARK       I    between atoms: C_13  and  N_14 
REMARK    7  A    between atoms: N_14  and  C_15 
ROOT
HETATM    1  N   UNL     1       6.508  27.057  55.912  1.00  0.00    -0.057 N 
HETATM    2  H   UNL     1       7.307  26.450  56.181  1.00  0.00     0.281 HD
HETATM    3  C   UNL     1       7.076  27.907  54.767  1.00  0.00     0.206 C 
HETATM    4  C   UNL     1       8.277  28.684  55.334  1.00  0.00     0.035 C 
HETATM    5  C   UNL     1       7.913  29.510  56.564  1.00  0.00     0.004 C 
HETATM    6  C   UNL     1       7.294  28.636  57.647  1.00  0.00     0.028 C 
HETATM    7  C   UNL     1       6.112  27.824  57.139  1.00  0.00     0.236 C 
ENDROOT
BRANCH   1   8
HETATM    8  C   UNL     1       5.473  26.015  55.471  1.00  0.00     0.337 C 
BRANCH   8   9
HETATM    9  C   UNL     1       6.094  25.021  54.491  1.00  0.00     0.243 C 
HETATM   10  N   UNL     1       7.267  24.446  54.893  1.00  0.00    -0.355 N 
HETATM   11  H   UNL     1       7.642  24.590  55.823  1.00  0.00     0.162 HD
HETATM   12  O   UNL     1       5.544  24.819  53.408  1.00  0.00    -0.272 OA
BRANCH  10  13
HETATM   13  C   UNL     1       8.016  23.551  54.031  1.00  0.00     0.169 C 
BRANCH  13  14
HETATM   14  C   UNL     1       8.230  22.275  54.786  1.00  0.00     0.006 A 
HETATM   15  C   UNL     1       8.295  20.969  54.317  1.00  0.00    -0.047 A 
HETATM   16  C   UNL     1       8.191  20.536  52.890  1.00  0.00     0.049 C 
HETATM   17  C   UNL     1       8.504  20.046  55.396  1.00  0.00     0.015 A 
HETATM   18  C   UNL     1       8.582  20.663  56.621  1.00  0.00     0.051 A 
HETATM   19  S   UNL     1       8.413  22.352  56.494  1.00  0.00    -0.104 SA
ENDBRANCH  13  14
ENDBRANCH  10  13
ENDBRANCH   8   9
ENDBRANCH   1   8
BRANCH   3  20
HETATM   20  C   UNL     1       5.995  28.833  54.126  1.00  0.00     0.157 C 
BRANCH  20  21
HETATM   21  N   UNL     1       5.914  28.763  52.677  1.00  0.00    -0.341 N 
HETATM   22  C   UNL     1       4.835  28.133  52.080  1.00  0.00     0.320 C 
HETATM   23  N   UNL     1       4.936  28.175  50.712  1.00  0.00    -0.309 N 
HETATM   24  O   UNL     1       3.974  27.593  52.759  1.00  0.00    -0.247 OA
HETATM   25  H   UNL     1       5.774  28.592  50.333  1.00  0.00     0.170 HD
HETATM   26  H   UNL     1       6.280  29.550  52.156  1.00  0.00     0.164 HD
BRANCH  23  27
HETATM   27  C   UNL     1       4.063  27.603  49.764  1.00  0.00     0.036 A 
HETATM   28  C   UNL     1       4.289  26.379  49.132  1.00  0.00     0.029 A 
HETATM   29  C   UNL     1       3.377  25.891  48.190  1.00  0.00     0.002 A 
HETATM   30  C   UNL     1       2.234  26.621  47.874  1.00  0.00     0.000 A 
HETATM   31  C   UNL     1       1.997  27.840  48.503  1.00  0.00     0.002 A 
HETATM   32  C   UNL     1       2.908  28.328  49.443  1.00  0.00     0.029 A 
ENDBRANCH  23  27
ENDBRANCH  20  21
ENDBRANCH   3  20
TORSDOF 7
ENDMDL
MODEL 6
REMARK VINA RESULT:      -8.5      2.216      5.803
REMARK  7 active torsions:
REMARK  status: ('A' for Active; 'I' for Inactive)
REMARK    1  A    between atoms: C_3  and  C_4 
REMARK    2  A    between atoms: C_4  and  N_5 
REMARK       I    between atoms: N_5  and  C_6 
REMARK    3  A    between atoms: C_6  and  C_7 
REMARK    4  A    between atoms: C_7  and  N_8 
REMARK    5  A    between atoms: C_10  and  C_11 
REMARK    6  A    between atoms: C_11  and  N_12 
REMARK       I    between atoms: N_12  and  C_13 
REMARK       I    between atoms: C_13  and  N_14 
REMARK    7  A    between atoms: N_14  and  C_15 
ROOT
HETATM    1  N   UNL     1       7.917  28.752  55.767  1.00  0.00    -0.057 N 
HETATM    2  H   UNL     1       7.512  29.625  55.377  1.00  0.00     0.281 HD
HETATM    3  C   UNL     1       6.824  28.246  56.719  1.00  0.00     0.206 C 
HETATM    4  C   UNL     1       6.595  29.345  57.770  1.00  0.00     0.035 C 
HETATM    5  C   UNL     1       7.879  29.738  58.496  1.00  0.00     0.004 C 
HETATM    6  C   UNL     1       8.955  30.172  57.508  1.00  0.00     0.028 C 
HETATM    7  C   UNL     1       9.210  29.131  56.427  1.00  0.00     0.236 C 
ENDROOT
BRANCH   1   8
HETATM    8  C   UNL     1       8.093  27.907  54.501  1.00  0.00     0.337 C 
BRANCH   8   9
HETATM    9  C   UNL     1       6.750  27.701  53.800  1.00  0.00     0.243 C 
HETATM   10  N   UNL     1       6.186  28.822  53.260  1.00  0.00    -0.355 N 
HETATM   11  H   UNL     1       6.676  29.709  53.233  1.00  0.00     0.162 HD
HETATM   12  O   UNL     1       6.242  26.580  53.788  1.00  0.00    -0.272 OA
BRANCH  10  13
HETATM   13  C   UNL     1       4.873  28.797  52.642  1.00  0.00     0.169 C 
BRANCH  13  14
HETATM   14  C   UNL     1       5.073  28.856  51.159  1.00  0.00     0.006 A 
HETATM   15  C   UNL     1       5.167  27.821  50.237  1.00  0.00    -0.047 A 
HETATM   16  C   UNL     1       5.053  26.360  50.532  1.00  0.00     0.049 C 
HETATM   17  C   UNL     1       5.372  28.333  48.911  1.00  0.00     0.015 A 
HETATM   18  C   UNL     1       5.432  29.705  48.870  1.00  0.00     0.051 A 
HETATM   19  S   UNL     1       5.239  30.397  50.413  1.00  0.00    -0.104 SA
ENDBRANCH  13  14
ENDBRANCH  10  13
ENDBRANCH   8   9
ENDBRANCH   1   8
BRANCH   3  20
HETATM   20  C   UNL     1       7.181  26.862  57.346  1.00  0.00     0.157 C 
BRANCH  20  21
HETATM   21  N   UNL     1       6.678  25.713  56.614  1.00  0.00    -0.341 N 
HETATM   22  C   UNL     1       7.547  24.698  56.249  1.00  0.00     0.320 C 
HETATM   23  N   UNL     1       6.887  23.703  55.572  1.00  0.00    -0.309 N 
HETATM   24  O   UNL     1       8.742  24.782  56.495  1.00  0.00    -0.247 OA
HETATM   25  H   UNL     1       5.907  23.857  55.387  1.00  0.00     0.170 HD
HETATM   26  H   UNL     1       5.740  25.401  56.831  1.00  0.00     0.164 HD
BRANCH  23  27
HETATM   27  C   UNL     1       7.435  22.537  55.001  1.00  0.00     0.036 A 
HETATM   28  C   UNL     1       7.776  21.395  55.729  1.00  0.00     0.029 A 
HETATM   29  C   UNL     1       8.331  20.285  55.083  1.00  0.00     0.002 A 
HETATM   30  C   UNL     1       8.547  20.306  53.708  1.00  0.00     0.000 A 
HETATM   31  C   UNL     1       8.205  21.438  52.972  1.00  0.00     0.002 A 
HETATM   32  C   UNL     1       7.653  22.548  53.616  1.00  0.00     0.029 A 
ENDBRANCH  23  27
ENDBRANCH  20  21
ENDBRANCH   3  20
TORSDOF 7
ENDMDL
MODEL 7
REMARK VINA RESULT:      -8.5      2.759      3.874
REMARK  7 active torsions:
REMARK  status: ('A' for Active; 'I' for Inactive)
REMARK    1  A    between atoms: C_3  and  C_4 
REMARK    2  A    between atoms: C_4  and  N_5 
REMARK       I    between atoms: N_5  and  C_6 
REMARK    3  A    between atoms: C_6  and  C_7 
REMARK    4  A    between atoms: C_7  and  N_8 
REMARK    5  A    between atoms: C_10  and  C_11 
REMARK    6  A    between atoms: C_11  and  N_12 
REMARK       I    between atoms: N_12  and  C_13 
REMARK       I    between atoms: C_13  and  N_14 
REMARK    7  A    between atoms: N_14  and  C_15 
ROOT
HETATM    1  N   UNL     1       5.303  29.514  56.337  1.00  0.00    -0.057 N 
HETATM    2  H   UNL     1       5.502  30.403  55.838  1.00  0.00     0.281 HD
HETATM    3  C   UNL     1       6.572  28.682  56.105  1.00  0.00     0.206 C 
HETATM    4  C   UNL     1       6.732  28.515  54.585  1.00  0.00     0.035 C 
HETATM    5  C   UNL     1       5.496  27.907  53.928  1.00  0.00     0.004 C 
HETATM    6  C   UNL     1       4.251  28.729  54.238  1.00  0.00     0.028 C 
HETATM    7  C   UNL     1       4.052  28.949  55.731  1.00  0.00     0.236 C 
ENDROOT
BRANCH   1   8
HETATM    8  C   UNL     1       5.125  30.008  57.776  1.00  0.00     0.337 C 
BRANCH   8   9
HETATM    9  C   UNL     1       6.129  31.116  58.093  1.00  0.00     0.243 C 
HETATM   10  N   UNL     1       7.107  30.791  58.990  1.00  0.00    -0.355 N 
HETATM   11  H   UNL     1       7.221  29.846  59.339  1.00  0.00     0.162 HD
HETATM   12  O   UNL     1       5.991  32.221  57.569  1.00  0.00    -0.272 OA
BRANCH  10  13
HETATM   13  C   UNL     1       8.076  31.766  59.453  1.00  0.00     0.169 C 
BRANCH  13  14
HETATM   14  C   UNL     1       7.827  31.990  60.914  1.00  0.00     0.006 A 
HETATM   15  C   UNL     1       8.424  31.390  62.015  1.00  0.00    -0.047 A 
HETATM   16  C   UNL     1       9.515  30.369  61.983  1.00  0.00     0.049 C 
HETATM   17  C   UNL     1       7.869  31.897  63.238  1.00  0.00     0.015 A 
HETATM   18  C   UNL     1       6.888  32.837  63.032  1.00  0.00     0.051 A 
HETATM   19  S   UNL     1       6.623  33.128  61.376  1.00  0.00    -0.104 SA
ENDBRANCH  13  14
ENDBRANCH  10  13
ENDBRANCH   8   9
ENDBRANCH   1   8
BRANCH   3  20
HETATM   20  C   UNL     1       6.534  27.322  56.871  1.00  0.00     0.157 C 
BRANCH  20  21
HETATM   21  N   UNL     1       7.503  26.340  56.417  1.00  0.00    -0.341 N 
HETATM   22  C   UNL     1       7.065  25.135  55.896  1.00  0.00     0.320 C 
HETATM   23  N   UNL     1       8.123  24.346  55.519  1.00  0.00    -0.309 N 
HETATM   24  O   UNL     1       5.872  24.869  55.858  1.00  0.00    -0.247 OA
HETATM   25  H   UNL     1       9.045  24.706  55.714  1.00  0.00     0.170 HD
HETATM   26  H   UNL     1       8.355  26.691  55.998  1.00  0.00     0.164 HD
BRANCH  23  27
HETATM   27  C   UNL     1       8.082  23.037  54.996  1.00  0.00     0.036 A 
HETATM   28  C   UNL     1       8.175  21.881  55.774  1.00  0.00     0.029 A 
HETATM   29  C   UNL     1       8.142  20.620  55.170  1.00  0.00     0.002 A 
HETATM   30  C   UNL     1       8.013  20.504  53.788  1.00  0.00     0.000 A 
HETATM   31  C   UNL     1       7.913  21.651  53.005  1.00  0.00     0.002 A 
HETATM   32  C   UNL     1       7.948  22.911  53.607  1.00  0.00     0.029 A 
ENDBRANCH  23  27
ENDBRANCH  20  21
ENDBRANCH   3  20
TORSDOF 7
ENDMDL
MODEL 8
REMARK VINA RESULT:      -8.4      1.782      2.652
REMARK  7 active torsions:
REMARK  status: ('A' for Active; 'I' for Inactive)
REMARK    1  A    between atoms: C_3  and  C_4 
REMARK    2  A    between atoms: C_4  and  N_5 
REMARK       I    between atoms: N_5  and  C_6 
REMARK    3  A    between atoms: C_6  and  C_7 
REMARK    4  A    between atoms: C_7  and  N_8 
REMARK    5  A    between atoms: C_10  and  C_11 
REMARK    6  A    between atoms: C_11  and  N_12 
REMARK       I    between atoms: N_12  and  C_13 
REMARK       I    between atoms: C_13  and  N_14 
REMARK    7  A    between atoms: N_14  and  C_15 
ROOT
HETATM    1  N   UNL     1       3.942  28.823  51.803  1.00  0.00    -0.057 N 
HETATM    2  H   UNL     1       4.173  29.767  52.171  1.00  0.00     0.281 HD
HETATM    3  C   UNL     1       5.275  28.330  51.224  1.00  0.00     0.206 C 
HETATM    4  C   UNL     1       5.694  29.331  50.135  1.00  0.00     0.035 C 
HETATM    5  C   UNL     1       4.619  29.523  49.069  1.00  0.00     0.004 C 
HETATM    6  C   UNL     1       3.298  29.951  49.696  1.00  0.00     0.028 C 
HETATM    7  C   UNL     1       2.842  29.007  50.800  1.00  0.00     0.236 C 
ENDROOT
BRANCH   1   8
HETATM    8  C   UNL     1       3.501  28.100  53.080  1.00  0.00     0.337 C 
BRANCH   8   9
HETATM    9  C   UNL     1       4.105  28.770  54.314  1.00  0.00     0.243 C 
HETATM   10  N   UNL     1       4.307  27.955  55.392  1.00  0.00    -0.355 N 
HETATM   11  H   UNL     1       4.165  26.953  55.340  1.00  0.00     0.162 HD
HETATM   12  O   UNL     1       4.339  29.978  54.289  1.00  0.00    -0.272 OA
BRANCH  10  13
HETATM   13  C   UNL     1       4.791  28.469  56.660  1.00  0.00     0.169 C 
BRANCH  13  14
HETATM   14  C   UNL     1       6.198  27.983  56.835  1.00  0.00     0.006 A 
HETATM   15  C   UNL     1       6.667  26.695  57.055  1.00  0.00    -0.047 A 
HETATM   16  C   UNL     1       5.840  25.453  57.138  1.00  0.00     0.049 C 
HETATM   17  C   UNL     1       8.098  26.685  57.176  1.00  0.00     0.015 A 
HETATM   18  C   UNL     1       8.655  27.936  57.054  1.00  0.00     0.051 A 
HETATM   19  S   UNL     1       7.475  29.134  56.788  1.00  0.00    -0.104 SA
ENDBRANCH  13  14
ENDBRANCH  10  13
ENDBRANCH   8   9
ENDBRANCH   1   8
BRANCH   3  20
HETATM   20  C   UNL     1       5.185  26.861  50.704  1.00  0.00     0.157 C 
BRANCH  20  21
HETATM   21  N   UNL     1       6.332  26.029  51.025  1.00  0.00    -0.341 N 
HETATM   22  C   UNL     1       6.286  25.193  52.127  1.00  0.00     0.320 C 
HETATM   23  N   UNL     1       7.457  24.488  52.261  1.00  0.00    -0.309 N 
HETATM   24  O   UNL     1       5.308  25.182  52.861  1.00  0.00    -0.247 OA
HETATM   25  H   UNL     1       8.189  24.701  51.601  1.00  0.00     0.170 HD
HETATM   26  H   UNL     1       6.872  25.668  50.248  1.00  0.00     0.164 HD
BRANCH  23  27
HETATM   27  C   UNL     1       7.806  23.580  53.281  1.00  0.00     0.036 A 
HETATM   28  C   UNL     1       8.166  23.961  54.576  1.00  0.00     0.029 A 
HETATM   29  C   UNL     1       8.515  22.993  55.525  1.00  0.00     0.002 A 
HETATM   30  C   UNL     1       8.505  21.641  55.188  1.00  0.00     0.000 A 
HETATM   31  C   UNL     1       8.143  21.253  53.901  1.00  0.00     0.002 A 
HETATM   32  C   UNL     1       7.796  22.218  52.953  1.00  0.00     0.029 A 
ENDBRANCH  23  27
ENDBRANCH  20  21
ENDBRANCH   3  20
TORSDOF 7
ENDMDL
MODEL 9
REMARK VINA RESULT:      -8.3      3.343      8.865
REMARK  7 active torsions:
REMARK  status: ('A' for Active; 'I' for Inactive)
REMARK    1  A    between atoms: C_3  and  C_4 
REMARK    2  A    between atoms: C_4  and  N_5 
REMARK       I    between atoms: N_5  and  C_6 
REMARK    3  A    between atoms: C_6  and  C_7 
REMARK    4  A    between atoms: C_7  and  N_8 
REMARK    5  A    between atoms: C_10  and  C_11 
REMARK    6  A    between atoms: C_11  and  N_12 
REMARK       I    between atoms: N_12  and  C_13 
REMARK       I    between atoms: C_13  and  N_14 
REMARK    7  A    between atoms: N_14  and  C_15 
ROOT
HETATM    1  N   UNL     1       6.879  27.838  55.907  1.00  0.00    -0.057 N 
HETATM    2  H   UNL     1       6.460  26.889  55.859  1.00  0.00     0.281 HD
HETATM    3  C   UNL     1       5.757  28.692  56.513  1.00  0.00     0.206 C 
HETATM    4  C   UNL     1       4.551  28.596  55.563  1.00  0.00     0.035 C 
HETATM    5  C   UNL     1       4.898  29.000  54.133  1.00  0.00     0.004 C 
HETATM    6  C   UNL     1       6.058  28.171  53.596  1.00  0.00     0.028 C 
HETATM    7  C   UNL     1       7.275  28.208  54.508  1.00  0.00     0.236 C 
ENDROOT
BRANCH   1   8
HETATM    8  C   UNL     1       8.067  27.598  56.845  1.00  0.00     0.337 C 
BRANCH   8   9
HETATM    9  C   UNL     1       8.089  26.146  57.324  1.00  0.00     0.243 C 
HETATM   10  N   UNL     1       8.250  25.203  56.349  1.00  0.00    -0.355 N 
HETATM   11  H   UNL     1       8.447  25.455  55.387  1.00  0.00     0.162 HD
HETATM   12  O   UNL     1       7.931  25.905  58.520  1.00  0.00    -0.272 OA
BRANCH  10  13
HETATM   13  C   UNL     1       8.202  23.783  56.643  1.00  0.00     0.169 C 
BRANCH  13  14
HETATM   14  C   UNL     1       8.041  23.059  55.341  1.00  0.00     0.006 A 
HETATM   15  C   UNL     1       7.894  21.700  55.096  1.00  0.00    -0.047 A 
HETATM   16  C   UNL     1       7.831  20.617  56.125  1.00  0.00     0.049 C 
HETATM   17  C   UNL     1       7.783  21.441  53.689  1.00  0.00     0.015 A 
HETATM   18  C   UNL     1       7.854  22.583  52.927  1.00  0.00     0.051 A 
HETATM   19  S   UNL     1       8.048  23.976  53.886  1.00  0.00    -0.104 SA
ENDBRANCH  13  14
ENDBRANCH  10  13
ENDBRANCH   8   9
ENDBRANCH   1   8
BRANCH   3  20
HETATM   20  C   UNL     1       6.211  30.161  56.780  1.00  0.00     0.157 C 
BRANCH  20  21
HETATM   21  N   UNL     1       5.729  30.732  58.025  1.00  0.00    -0.341 N 
HETATM   22  C   UNL     1       6.635  31.156  58.982  1.00  0.00     0.320 C 
HETATM   23  N   UNL     1       5.989  31.668  60.081  1.00  0.00    -0.309 N 
HETATM   24  O   UNL     1       7.837  31.011  58.811  1.00  0.00    -0.247 OA
HETATM   25  H   UNL     1       4.981  31.620  60.074  1.00  0.00     0.170 HD
HETATM   26  H   UNL     1       4.878  31.280  57.983  1.00  0.00     0.164 HD
BRANCH  23  27
HETATM   27  C   UNL     1       6.565  32.150  61.274  1.00  0.00     0.036 A 
HETATM   28  C   UNL     1       6.173  33.331  61.908  1.00  0.00     0.029 A 
HETATM   29  C   UNL     1       6.810  33.745  63.083  1.00  0.00     0.002 A 
HETATM   30  C   UNL     1       7.838  32.984  63.633  1.00  0.00     0.000 A 
HETATM   31  C   UNL     1       8.231  31.802  63.011  1.00  0.00     0.002 A 
HETATM   32  C   UNL     1       7.598  31.388  61.836  1.00  0.00     0.029 A 
ENDBRANCH  23  27
ENDBRANCH  20  21
ENDBRANCH   3  20
TORSDOF 7
ENDMDL
MODEL 10
REMARK VINA RESULT:      -8.0      3.509      5.016
REMARK  7 active torsions:
REMARK  status: ('A' for Active; 'I' for Inactive)
REMARK    1  A    between atoms: C_3  and  C_4 
REMARK    2  A    between atoms: C_4  and  N_5 
REMARK       I    between atoms: N_5  and  C_6 
REMARK    3  A    between atoms: C_6  and  C_7 
REMARK    4  A    between atoms: C_7  and  N_8 
REMARK    5  A    between atoms: C_10  and  C_11 
REMARK    6  A    between atoms: C_11  and  N_12 
REMARK       I    between atoms: N_12  and  C_13 
REMARK       I    between atoms: C_13  and  N_14 
REMARK    7  A    between atoms: N_14  and  C_15 
ROOT
HETATM    1  N   UNL     1       6.335  30.191  57.298  1.00  0.00    -0.057 N 
HETATM    2  H   UNL     1       6.864  30.901  56.755  1.00  0.00     0.281 HD
HETATM    3  C   UNL     1       6.004  29.117  56.253  1.00  0.00     0.206 C 
HETATM    4  C   UNL     1       5.173  29.797  55.152  1.00  0.00     0.035 C 
HETATM    5  C   UNL     1       3.931  30.494  55.700  1.00  0.00     0.004 C 
HETATM    6  C   UNL     1       4.302  31.505  56.779  1.00  0.00     0.028 C 
HETATM    7  C   UNL     1       5.147  30.893  57.888  1.00  0.00     0.236 C 
ENDROOT
BRANCH   1   8
HETATM    8  C   UNL     1       7.379  29.764  58.336  1.00  0.00     0.337 C 
BRANCH   8   9
HETATM    9  C   UNL     1       7.916  30.979  59.091  1.00  0.00     0.243 C 
HETATM   10  N   UNL     1       7.429  31.153  60.356  1.00  0.00    -0.355 N 
HETATM   11  H   UNL     1       6.834  30.463  60.801  1.00  0.00     0.162 HD
HETATM   12  O   UNL     1       8.707  31.736  58.529  1.00  0.00    -0.272 OA
BRANCH  10  13
HETATM   13  C   UNL     1       7.780  32.309  61.159  1.00  0.00     0.169 C 
BRANCH  13  14
HETATM   14  C   UNL     1       6.589  32.650  62.002  1.00  0.00     0.006 A 
HETATM   15  C   UNL     1       6.524  32.975  63.350  1.00  0.00    -0.047 A 
HETATM   16  C   UNL     1       7.680  33.092  64.290  1.00  0.00     0.049 C 
HETATM   17  C   UNL     1       5.168  33.219  63.754  1.00  0.00     0.015 A 
HETATM   18  C   UNL     1       4.268  33.067  62.727  1.00  0.00     0.051 A 
HETATM   19  S   UNL     1       5.034  32.639  61.268  1.00  0.00    -0.104 SA
ENDBRANCH  13  14
ENDBRANCH  10  13
ENDBRANCH   8   9
ENDBRANCH   1   8
BRANCH   3  20
HETATM   20  C   UNL     1       5.290  27.880  56.884  1.00  0.00     0.157 C 
BRANCH  20  21
HETATM   21  N   UNL     1       5.171  26.730  56.004  1.00  0.00    -0.341 N 
HETATM   22  C   UNL     1       6.255  25.886  55.828  1.00  0.00     0.320 C 
HETATM   23  N   UNL     1       5.947  24.861  54.968  1.00  0.00    -0.309 N 
HETATM   24  O   UNL     1       7.325  26.125  56.368  1.00  0.00    -0.247 OA
HETATM   25  H   UNL     1       5.029  24.884  54.550  1.00  0.00     0.170 HD
HETATM   26  H   UNL     1       4.271  26.269  55.966  1.00  0.00     0.164 HD
BRANCH  23  27
HETATM   27  C   UNL     1       6.798  23.836  54.506  1.00  0.00     0.036 A 
HETATM   28  C   UNL     1       7.161  23.667  53.169  1.00  0.00     0.029 A 
HETATM   29  C   UNL     1       7.999  22.611  52.794  1.00  0.00     0.002 A 
HETATM   30  C   UNL     1       8.481  21.720  53.751  1.00  0.00     0.000 A 
HETATM   31  C   UNL     1       8.128  21.885  55.087  1.00  0.00     0.002 A 
HETATM   32  C   UNL     1       7.290  22.938  55.462  1.00  0.00     0.029 A 
ENDBRANCH  23  27
ENDBRANCH  20  21
ENDBRANCH   3  20
TORSDOF 7
ENDMDL
