MODEL 1
REMARK VINA RESULT:      -9.3      0.000      0.000
REMARK  9 active torsions:
REMARK  status: ('A' for Active; 'I' for Inactive)
REMARK    1  A    between atoms: N_5  and  C_6 
REMARK    2  A    between atoms: C_6  and  C_7 
REMARK    3  A    between atoms: C_7  and  O_8 
REMARK    4  A    between atoms: C_7  and  C_9 
REMARK    5  A    between atoms: C_9  and  O_10 
REMARK    6  A    between atoms: O_10  and  C_11 
REMARK    7  A    between atoms: N_23  and  C_24 
REMARK    8  A    between atoms: C_24  and  C_25 
REMARK    9  A    between atoms: C_25  and  N_26 
ROOT
HETATM    1  C   UNL     1      10.652  30.637  57.719  1.00  0.00     0.002 A 
HETATM    2  C   UNL     1       9.465  31.221  58.170  1.00  0.00     0.032 A 
HETATM    3  C   UNL     1       8.299  30.509  57.971  1.00  0.00     0.079 A 
HETATM    4  C   UNL     1       8.288  29.234  57.354  1.00  0.00     0.079 A 
HETATM    5  N   UNL     1       6.969  28.779  57.318  1.00  0.00    -0.179 N 
HETATM    6  C   UNL     1       6.158  29.770  57.932  1.00  0.00     0.681 A 
HETATM    7  N   UNL     1       4.827  29.661  58.124  1.00  0.00    -0.234 N 
HETATM    8  H   UNL     1       4.272  30.337  58.629  1.00  0.00     0.174 HD
HETATM    9  H   UNL     1       4.324  28.857  57.759  1.00  0.00     0.174 HD
HETATM   10  N   UNL     1       6.943  30.862  58.331  1.00  0.00    -0.180 N 
HETATM   11  C   UNL     1       9.459  28.659  56.913  1.00  0.00     0.032 A 
HETATM   12  C   UNL     1      10.647  29.375  57.097  1.00  0.00     0.002 A 
ENDROOT
BRANCH   5  13
HETATM   13  C   UNL     1       6.631  27.404  56.982  1.00  0.00     0.181 C 
BRANCH  13  14
HETATM   14  C   UNL     1       5.604  27.285  55.836  1.00  0.00     0.161 C 
BRANCH  14  15
HETATM   15  O   UNL     1       4.313  27.117  56.425  1.00  0.00    -0.392 OA
HETATM   16  H   UNL     1       3.709  27.750  55.989  1.00  0.00     0.210 HD
ENDBRANCH  14  15
BRANCH  14  17
HETATM   17  C   UNL     1       5.895  26.078  54.936  1.00  0.00     0.209 C 
BRANCH  17  18
HETATM   18  O   UNL     1       7.306  25.888  54.822  1.00  0.00    -0.347 OA
BRANCH  18  19
HETATM   19  C   UNL     1       7.695  24.602  54.538  1.00  0.00     0.090 A 
HETATM   20  C   UNL     1       8.392  23.723  55.385  1.00  0.00     0.069 A 
HETATM   21 CL   UNL     1       8.930  24.152  56.976  1.00  0.00    -0.081 Cl
HETATM   22  C   UNL     1       8.719  22.436  54.944  1.00  0.00     0.050 A 
HETATM   23  C   UNL     1       8.374  22.034  53.655  1.00  0.00     0.035 A 
HETATM   24 CL   UNL     1       8.774  20.450  53.124  1.00  0.00    -0.084 Cl
HETATM   25  C   UNL     1       7.718  22.909  52.796  1.00  0.00     0.026 A 
HETATM   26  C   UNL     1       7.387  24.193  53.235  1.00  0.00     0.040 A 
ENDBRANCH  18  19
ENDBRANCH  17  18
ENDBRANCH  14  17
ENDBRANCH  13  14
ENDBRANCH   5  13
BRANCH  10  27
HETATM   27  C   UNL     1       6.558  32.042  59.120  1.00  0.00     0.175 C 
BRANCH  27  28
HETATM   28  C   UNL     1       6.972  31.938  60.603  1.00  0.00     0.256 C 
BRANCH  28  29
HETATM   29  N   UNL     1       6.015  32.597  61.575  1.00  0.00    -0.066 N 
HETATM   30  H   UNL     1       6.224  33.607  61.528  1.00  0.00     0.280 HD
HETATM   31  C   UNL     1       4.532  32.481  61.213  1.00  0.00     0.261 C 
HETATM   32  C   UNL     1       3.691  33.291  62.206  1.00  0.00     0.195 C 
HETATM   33  O   UNL     1       3.936  32.845  63.543  1.00  0.00    -0.388 OA
HETATM   34  C   UNL     1       5.297  33.049  63.936  1.00  0.00     0.195 C 
HETATM   35  C   UNL     1       6.236  32.224  63.047  1.00  0.00     0.261 C 
ENDBRANCH  28  29
ENDBRANCH  27  28
ENDBRANCH  10  27
TORSDOF 9
ENDMDL
MODEL 2
REMARK VINA RESULT:      -8.9      4.423      9.484
REMARK  9 active torsions:
REMARK  status: ('A' for Active; 'I' for Inactive)
REMARK    1  A    between atoms: N_5  and  C_6 
REMARK    2  A    between atoms: C_6  and  C_7 
REMARK    3  A    between atoms: C_7  and  O_8 
REMARK    4  A    between atoms: C_7  and  C_9 
REMARK    5  A    between atoms: C_9  and  O_10 
REMARK    6  A    between atoms: O_10  and  C_11 
REMARK    7  A    between atoms: N_23  and  C_24 
REMARK    8  A    between atoms: C_24  and  C_25 
REMARK    9  A    between atoms: C_25  and  N_26 
ROOT
HETATM    1  C   UNL     1       8.482  21.636  53.575  1.00  0.00     0.002 A 
HETATM    2  C   UNL     1       7.955  22.715  52.859  1.00  0.00     0.032 A 
HETATM    3  C   UNL     1       7.334  23.710  53.587  1.00  0.00     0.079 A 
HETATM    4  C   UNL     1       7.241  23.667  55.000  1.00  0.00     0.079 A 
HETATM    5  N   UNL     1       6.579  24.818  55.428  1.00  0.00    -0.179 N 
HETATM    6  C   UNL     1       6.274  25.589  54.275  1.00  0.00     0.681 A 
HETATM    7  N   UNL     1       5.672  26.797  54.298  1.00  0.00    -0.234 N 
HETATM    8  H   UNL     1       5.528  27.371  53.480  1.00  0.00     0.174 HD
HETATM    9  H   UNL     1       5.342  27.185  55.178  1.00  0.00     0.174 HD
HETATM   10  N   UNL     1       6.708  24.927  53.118  1.00  0.00    -0.180 N 
HETATM   11  C   UNL     1       7.764  22.605  55.704  1.00  0.00     0.032 A 
HETATM   12  C   UNL     1       8.385  21.583  54.978  1.00  0.00     0.002 A 
ENDROOT
BRANCH   5  13
HETATM   13  C   UNL     1       6.537  25.214  56.828  1.00  0.00     0.181 C 
BRANCH  13  14
HETATM   14  C   UNL     1       7.899  25.697  57.371  1.00  0.00     0.161 C 
BRANCH  14  15
HETATM   15  O   UNL     1       7.889  25.520  58.789  1.00  0.00    -0.392 OA
HETATM   16  H   UNL     1       8.064  26.393  59.194  1.00  0.00     0.210 HD
ENDBRANCH  14  15
BRANCH  14  17
HETATM   17  C   UNL     1       8.140  27.179  57.062  1.00  0.00     0.209 C 
BRANCH  17  18
HETATM   18  O   UNL     1       8.063  27.944  58.266  1.00  0.00    -0.347 OA
BRANCH  18  19
HETATM   19  C   UNL     1       7.446  29.164  58.137  1.00  0.00     0.090 A 
HETATM   20  C   UNL     1       7.764  30.350  58.820  1.00  0.00     0.069 A 
HETATM   21 CL   UNL     1       9.015  30.459  60.015  1.00  0.00    -0.081 Cl
HETATM   22  C   UNL     1       7.032  31.517  58.577  1.00  0.00     0.050 A 
HETATM   23  C   UNL     1       5.971  31.498  57.674  1.00  0.00     0.035 A 
HETATM   24 CL   UNL     1       5.082  32.938  57.377  1.00  0.00    -0.084 Cl
HETATM   25  C   UNL     1       5.624  30.321  57.021  1.00  0.00     0.026 A 
HETATM   26  C   UNL     1       6.354  29.154  57.259  1.00  0.00     0.040 A 
ENDBRANCH  18  19
ENDBRANCH  17  18
ENDBRANCH  14  17
ENDBRANCH  13  14
ENDBRANCH   5  13
BRANCH  10  27
HETATM   27  C   UNL     1       6.728  25.406  51.728  1.00  0.00     0.175 C 
BRANCH  27  28
HETATM   28  C   UNL     1       5.324  25.754  51.189  1.00  0.00     0.256 C 
BRANCH  28  29
HETATM   29  N   UNL     1       5.320  26.664  49.977  1.00  0.00    -0.066 N 
HETATM   30  H   UNL     1       6.232  26.518  49.518  1.00  0.00     0.280 HD
HETATM   31  C   UNL     1       4.277  26.325  48.908  1.00  0.00     0.261 C 
HETATM   32  C   UNL     1       4.465  27.240  47.693  1.00  0.00     0.195 C 
HETATM   33  O   UNL     1       4.378  28.612  48.087  1.00  0.00    -0.388 OA
HETATM   34  C   UNL     1       5.414  28.974  49.004  1.00  0.00     0.195 C 
HETATM   35  C   UNL     1       5.285  28.164  50.300  1.00  0.00     0.261 C 
ENDBRANCH  28  29
ENDBRANCH  27  28
ENDBRANCH  10  27
TORSDOF 9
ENDMDL
MODEL 3
REMARK VINA RESULT:      -8.7      4.288      9.455
REMARK  9 active torsions:
REMARK  status: ('A' for Active; 'I' for Inactive)
REMARK    1  A    between atoms: N_5  and  C_6 
REMARK    2  A    between atoms: C_6  and  C_7 
REMARK    3  A    between atoms: C_7  and  O_8 
REMARK    4  A    between atoms: C_7  and  C_9 
REMARK    5  A    between atoms: C_9  and  O_10 
REMARK    6  A    between atoms: O_10  and  C_11 
REMARK    7  A    between atoms: N_23  and  C_24 
REMARK    8  A    between atoms: C_24  and  C_25 
REMARK    9  A    between atoms: C_25  and  N_26 
ROOT
HETATM    1  C   UNL     1       8.574  22.315  53.910  1.00  0.00     0.002 A 
HETATM    2  C   UNL     1       7.482  22.984  53.349  1.00  0.00     0.032 A 
HETATM    3  C   UNL     1       6.895  23.976  54.108  1.00  0.00     0.079 A 
HETATM    4  C   UNL     1       7.375  24.328  55.395  1.00  0.00     0.079 A 
HETATM    5  N   UNL     1       6.584  25.368  55.885  1.00  0.00    -0.179 N 
HETATM    6  C   UNL     1       5.618  25.675  54.890  1.00  0.00     0.681 A 
HETATM    7  N   UNL     1       4.704  26.663  54.988  1.00  0.00    -0.234 N 
HETATM    8  H   UNL     1       4.072  26.923  54.245  1.00  0.00     0.174 HD
HETATM    9  H   UNL     1       4.629  27.204  55.846  1.00  0.00     0.174 HD
HETATM   10  N   UNL     1       5.768  24.823  53.786  1.00  0.00    -0.180 N 
HETATM   11  C   UNL     1       8.453  23.669  55.944  1.00  0.00     0.032 A 
HETATM   12  C   UNL     1       9.049  22.653  55.191  1.00  0.00     0.002 A 
ENDROOT
BRANCH   5  13
HETATM   13  C   UNL     1       6.954  26.134  57.065  1.00  0.00     0.181 C 
BRANCH  13  14
HETATM   14  C   UNL     1       7.619  27.488  56.735  1.00  0.00     0.161 C 
BRANCH  14  15
HETATM   15  O   UNL     1       8.925  27.484  57.316  1.00  0.00    -0.392 OA
HETATM   16  H   UNL     1       9.218  28.414  57.383  1.00  0.00     0.210 HD
ENDBRANCH  14  15
BRANCH  14  17
HETATM   17  C   UNL     1       6.827  28.666  57.313  1.00  0.00     0.209 C 
BRANCH  17  18
HETATM   18  O   UNL     1       7.648  29.834  57.342  1.00  0.00    -0.347 OA
BRANCH  18  19
HETATM   19  C   UNL     1       7.614  30.534  58.523  1.00  0.00     0.090 A 
HETATM   20  C   UNL     1       6.724  31.566  58.869  1.00  0.00     0.069 A 
HETATM   21 CL   UNL     1       5.499  32.171  57.803  1.00  0.00    -0.081 Cl
HETATM   22  C   UNL     1       6.823  32.186  60.119  1.00  0.00     0.050 A 
HETATM   23  C   UNL     1       7.819  31.798  61.012  1.00  0.00     0.035 A 
HETATM   24 CL   UNL     1       7.929  32.561  62.548  1.00  0.00    -0.084 Cl
HETATM   25  C   UNL     1       8.729  30.805  60.665  1.00  0.00     0.026 A 
HETATM   26  C   UNL     1       8.631  30.181  59.419  1.00  0.00     0.040 A 
ENDBRANCH  18  19
ENDBRANCH  17  18
ENDBRANCH  14  17
ENDBRANCH  13  14
ENDBRANCH   5  13
BRANCH  10  27
HETATM   27  C   UNL     1       5.088  24.866  52.483  1.00  0.00     0.175 C 
BRANCH  27  28
HETATM   28  C   UNL     1       5.596  26.004  51.573  1.00  0.00     0.256 C 
BRANCH  28  29
HETATM   29  N   UNL     1       4.505  26.835  50.930  1.00  0.00    -0.066 N 
HETATM   30  H   UNL     1       3.617  26.382  51.198  1.00  0.00     0.280 HD
HETATM   31  C   UNL     1       4.388  28.273  51.445  1.00  0.00     0.261 C 
HETATM   32  C   UNL     1       3.174  28.956  50.803  1.00  0.00     0.195 C 
HETATM   33  O   UNL     1       3.281  28.921  49.377  1.00  0.00    -0.388 OA
HETATM   34  C   UNL     1       3.282  27.582  48.871  1.00  0.00     0.195 C 
HETATM   35  C   UNL     1       4.502  26.816  49.395  1.00  0.00     0.261 C 
ENDBRANCH  28  29
ENDBRANCH  27  28
ENDBRANCH  10  27
TORSDOF 9
ENDMDL
MODEL 4
REMARK VINA RESULT:      -8.7      1.754      2.387
REMARK  9 active torsions:
REMARK  status: ('A' for Active; 'I' for Inactive)
REMARK    1  A    between atoms: N_5  and  C_6 
REMARK    2  A    between atoms: C_6  and  C_7 
REMARK    3  A    between atoms: C_7  and  O_8 
REMARK    4  A    between atoms: C_7  and  C_9 
REMARK    5  A    between atoms: C_9  and  O_10 
REMARK    6  A    between atoms: O_10  and  C_11 
REMARK    7  A    between atoms: N_23  and  C_24 
REMARK    8  A    between atoms: C_24  and  C_25 
REMARK    9  A    between atoms: C_25  and  N_26 
ROOT
HETATM    1  C   UNL     1       9.004  31.993  61.143  1.00  0.00     0.002 A 
HETATM    2  C   UNL     1       7.776  32.554  60.782  1.00  0.00     0.032 A 
HETATM    3  C   UNL     1       7.092  31.957  59.742  1.00  0.00     0.079 A 
HETATM    4  C   UNL     1       7.590  30.813  59.069  1.00  0.00     0.079 A 
HETATM    5  N   UNL     1       6.665  30.447  58.090  1.00  0.00    -0.179 N 
HETATM    6  C   UNL     1       5.578  31.359  58.168  1.00  0.00     0.681 A 
HETATM    7  N   UNL     1       4.467  31.294  57.405  1.00  0.00    -0.234 N 
HETATM    8  H   UNL     1       3.667  31.900  57.519  1.00  0.00     0.174 HD
HETATM    9  H   UNL     1       4.395  30.596  56.668  1.00  0.00     0.174 HD
HETATM   10  N   UNL     1       5.817  32.317  59.164  1.00  0.00    -0.180 N 
HETATM   11  C   UNL     1       8.799  30.260  59.428  1.00  0.00     0.032 A 
HETATM   12  C   UNL     1       9.508  30.863  60.472  1.00  0.00     0.002 A 
ENDROOT
BRANCH   5  13
HETATM   13  C   UNL     1       6.740  29.175  57.388  1.00  0.00     0.181 C 
BRANCH  13  14
HETATM   14  C   UNL     1       7.212  29.307  55.924  1.00  0.00     0.161 C 
BRANCH  14  15
HETATM   15  O   UNL     1       6.083  29.694  55.138  1.00  0.00    -0.392 OA
HETATM   16  H   UNL     1       6.286  30.566  54.744  1.00  0.00     0.210 HD
ENDBRANCH  14  15
BRANCH  14  17
HETATM   17  C   UNL     1       7.759  27.982  55.382  1.00  0.00     0.209 C 
BRANCH  17  18
HETATM   18  O   UNL     1       6.782  27.362  54.543  1.00  0.00    -0.347 OA
BRANCH  18  19
HETATM   19  C   UNL     1       7.010  26.034  54.277  1.00  0.00     0.090 A 
HETATM   20  C   UNL     1       6.734  24.943  55.119  1.00  0.00     0.069 A 
HETATM   21 CL   UNL     1       6.070  25.108  56.712  1.00  0.00    -0.081 Cl
HETATM   22  C   UNL     1       7.030  23.642  54.700  1.00  0.00     0.050 A 
HETATM   23  C   UNL     1       7.620  23.428  53.456  1.00  0.00     0.035 A 
HETATM   24 CL   UNL     1       7.974  21.826  52.947  1.00  0.00    -0.084 Cl
HETATM   25  C   UNL     1       7.932  24.503  52.631  1.00  0.00     0.026 A 
HETATM   26  C   UNL     1       7.635  25.804  53.045  1.00  0.00     0.040 A 
ENDBRANCH  18  19
ENDBRANCH  17  18
ENDBRANCH  14  17
ENDBRANCH  13  14
ENDBRANCH   5  13
BRANCH  10  27
HETATM   27  C   UNL     1       4.917  33.358  59.683  1.00  0.00     0.175 C 
BRANCH  27  28
HETATM   28  C   UNL     1       3.944  32.833  60.760  1.00  0.00     0.256 C 
BRANCH  28  29
HETATM   29  N   UNL     1       4.209  33.352  62.159  1.00  0.00    -0.066 N 
HETATM   30  H   UNL     1       4.815  34.179  62.038  1.00  0.00     0.280 HD
HETATM   31  C   UNL     1       2.977  33.868  62.909  1.00  0.00     0.261 C 
HETATM   32  C   UNL     1       3.405  34.473  64.252  1.00  0.00     0.195 C 
HETATM   33  O   UNL     1       4.118  33.506  65.027  1.00  0.00    -0.388 OA
HETATM   34  C   UNL     1       5.330  33.093  64.388  1.00  0.00     0.195 C 
HETATM   35  C   UNL     1       5.020  32.405  63.053  1.00  0.00     0.261 C 
ENDBRANCH  28  29
ENDBRANCH  27  28
ENDBRANCH  10  27
TORSDOF 9
ENDMDL
MODEL 5
REMARK VINA RESULT:      -8.6      4.284      9.880
REMARK  9 active torsions:
REMARK  status: ('A' for Active; 'I' for Inactive)
REMARK    1  A    between atoms: N_5  and  C_6 
REMARK    2  A    between atoms: C_6  and  C_7 
REMARK    3  A    between atoms: C_7  and  O_8 
REMARK    4  A    between atoms: C_7  and  C_9 
REMARK    5  A    between atoms: C_9  and  O_10 
REMARK    6  A    between atoms: O_10  and  C_11 
REMARK    7  A    between atoms: N_23  and  C_24 
REMARK    8  A    between atoms: C_24  and  C_25 
REMARK    9  A    between atoms: C_25  and  N_26 
ROOT
HETATM    1  C   UNL     1       9.986  29.248  55.904  1.00  0.00     0.002 A 
HETATM    2  C   UNL     1       8.591  29.295  55.975  1.00  0.00     0.032 A 
HETATM    3  C   UNL     1       8.037  29.925  57.072  1.00  0.00     0.079 A 
HETATM    4  C   UNL     1       8.833  30.520  58.083  1.00  0.00     0.079 A 
HETATM    5  N   UNL     1       7.980  31.083  59.033  1.00  0.00    -0.179 N 
HETATM    6  C   UNL     1       6.646  30.852  58.601  1.00  0.00     0.681 A 
HETATM    7  N   UNL     1       5.545  31.293  59.243  1.00  0.00    -0.234 N 
HETATM    8  H   UNL     1       4.605  31.189  58.888  1.00  0.00     0.174 HD
HETATM    9  H   UNL     1       5.633  31.772  60.135  1.00  0.00     0.174 HD
HETATM   10  N   UNL     1       6.643  30.122  57.402  1.00  0.00    -0.180 N 
HETATM   11  C   UNL     1      10.207  30.475  58.009  1.00  0.00     0.032 A 
HETATM   12  C   UNL     1      10.781  29.828  56.910  1.00  0.00     0.002 A 
ENDROOT
BRANCH   5  13
HETATM   13  C   UNL     1       8.459  31.986  60.068  1.00  0.00     0.181 C 
BRANCH  13  14
HETATM   14  C   UNL     1       8.602  31.317  61.451  1.00  0.00     0.161 C 
BRANCH  14  15
HETATM   15  O   UNL     1       8.860  29.928  61.238  1.00  0.00    -0.392 OA
HETATM   16  H   UNL     1       9.718  29.858  60.774  1.00  0.00     0.210 HD
ENDBRANCH  14  15
BRANCH  14  17
HETATM   17  C   UNL     1       7.323  31.457  62.284  1.00  0.00     0.209 C 
BRANCH  17  18
HETATM   18  O   UNL     1       6.956  32.834  62.381  1.00  0.00    -0.347 OA
BRANCH  18  19
HETATM   19  C   UNL     1       6.400  33.201  63.582  1.00  0.00     0.090 A 
HETATM   20  C   UNL     1       5.034  33.382  63.861  1.00  0.00     0.069 A 
HETATM   21 CL   UNL     1       3.783  33.202  62.675  1.00  0.00    -0.081 Cl
HETATM   22  C   UNL     1       4.625  33.763  65.144  1.00  0.00     0.050 A 
HETATM   23  C   UNL     1       5.574  33.986  66.139  1.00  0.00     0.035 A 
HETATM   24 CL   UNL     1       5.063  34.447  67.713  1.00  0.00    -0.084 Cl
HETATM   25  C   UNL     1       6.930  33.847  65.863  1.00  0.00     0.026 A 
HETATM   26  C   UNL     1       7.342  33.464  64.585  1.00  0.00     0.040 A 
ENDBRANCH  18  19
ENDBRANCH  17  18
ENDBRANCH  14  17
ENDBRANCH  13  14
ENDBRANCH   5  13
BRANCH  10  27
HETATM   27  C   UNL     1       5.511  29.779  56.529  1.00  0.00     0.175 C 
BRANCH  27  28
HETATM   28  C   UNL     1       4.945  28.369  56.800  1.00  0.00     0.256 C 
BRANCH  28  29
HETATM   29  N   UNL     1       4.874  27.471  55.581  1.00  0.00    -0.066 N 
HETATM   30  H   UNL     1       3.905  27.118  55.553  1.00  0.00     0.280 HD
HETATM   31  C   UNL     1       5.081  28.175  54.237  1.00  0.00     0.261 C 
HETATM   32  C   UNL     1       4.862  27.179  53.092  1.00  0.00     0.195 C 
HETATM   33  O   UNL     1       5.741  26.060  53.233  1.00  0.00    -0.388 OA
HETATM   34  C   UNL     1       5.487  25.326  54.435  1.00  0.00     0.195 C 
HETATM   35  C   UNL     1       5.744  26.209  55.662  1.00  0.00     0.261 C 
ENDBRANCH  28  29
ENDBRANCH  27  28
ENDBRANCH  10  27
TORSDOF 9
ENDMDL
MODEL 6
REMARK VINA RESULT:      -8.6      5.728      9.498
REMARK  9 active torsions:
REMARK  status: ('A' for Active; 'I' for Inactive)
REMARK    1  A    between atoms: N_5  and  C_6 
REMARK    2  A    between atoms: C_6  and  C_7 
REMARK    3  A    between atoms: C_7  and  O_8 
REMARK    4  A    between atoms: C_7  and  C_9 
REMARK    5  A    between atoms: C_9  and  O_10 
REMARK    6  A    between atoms: O_10  and  C_11 
REMARK    7  A    between atoms: N_23  and  C_24 
REMARK    8  A    between atoms: C_24  and  C_25 
REMARK    9  A    between atoms: C_25  and  N_26 
ROOT
HETATM    1  C   UNL     1       6.807  28.103  57.006  1.00  0.00     0.002 A 
HETATM    2  C   UNL     1       6.748  26.832  56.429  1.00  0.00     0.032 A 
HETATM    3  C   UNL     1       6.094  26.721  55.218  1.00  0.00     0.079 A 
HETATM    4  C   UNL     1       5.517  27.839  54.565  1.00  0.00     0.079 A 
HETATM    5  N   UNL     1       4.954  27.400  53.366  1.00  0.00    -0.179 N 
HETATM    6  C   UNL     1       5.197  26.004  53.266  1.00  0.00     0.681 A 
HETATM    7  N   UNL     1       4.839  25.237  52.215  1.00  0.00    -0.234 N 
HETATM    8  H   UNL     1       5.083  24.262  52.119  1.00  0.00     0.174 HD
HETATM    9  H   UNL     1       4.298  25.638  51.453  1.00  0.00     0.174 HD
HETATM   10  N   UNL     1       5.883  25.547  54.401  1.00  0.00    -0.180 N 
HETATM   11  C   UNL     1       5.580  29.091  55.134  1.00  0.00     0.032 A 
HETATM   12  C   UNL     1       6.228  29.216  56.367  1.00  0.00     0.002 A 
ENDROOT
BRANCH   5  13
HETATM   13  C   UNL     1       4.504  28.324  52.336  1.00  0.00     0.181 C 
BRANCH  13  14
HETATM   14  C   UNL     1       5.594  28.667  51.299  1.00  0.00     0.161 C 
BRANCH  14  15
HETATM   15  O   UNL     1       5.795  30.081  51.332  1.00  0.00    -0.392 OA
HETATM   16  H   UNL     1       5.208  30.444  52.025  1.00  0.00     0.210 HD
ENDBRANCH  14  15
BRANCH  14  17
HETATM   17  C   UNL     1       5.176  28.263  49.881  1.00  0.00     0.209 C 
BRANCH  17  18
HETATM   18  O   UNL     1       4.210  27.212  49.942  1.00  0.00    -0.347 OA
BRANCH  18  19
HETATM   19  C   UNL     1       3.194  27.307  49.022  1.00  0.00     0.090 A 
HETATM   20  C   UNL     1       2.093  28.180  49.066  1.00  0.00     0.069 A 
HETATM   21 CL   UNL     1       1.808  29.297  50.361  1.00  0.00    -0.081 Cl
HETATM   22  C   UNL     1       1.136  28.152  48.046  1.00  0.00     0.050 A 
HETATM   23  C   UNL     1       1.260  27.241  46.999  1.00  0.00     0.035 A 
HETATM   24 CL   UNL     1       0.083  27.218  45.748  1.00  0.00    -0.084 Cl
HETATM   25  C   UNL     1       2.325  26.347  46.967  1.00  0.00     0.026 A 
HETATM   26  C   UNL     1       3.285  26.375  47.981  1.00  0.00     0.040 A 
ENDBRANCH  18  19
ENDBRANCH  17  18
ENDBRANCH  14  17
ENDBRANCH  13  14
ENDBRANCH   5  13
BRANCH  10  27
HETATM   27  C   UNL     1       6.458  24.219  54.664  1.00  0.00     0.175 C 
BRANCH  27  28
HETATM   28  C   UNL     1       7.917  24.085  54.178  1.00  0.00     0.256 C 
BRANCH  28  29
HETATM   29  N   UNL     1       8.454  22.669  54.173  1.00  0.00    -0.066 N 
HETATM   30  H   UNL     1       9.459  22.755  53.954  1.00  0.00     0.280 HD
HETATM   31  C   UNL     1       8.402  21.944  55.520  1.00  0.00     0.261 C 
HETATM   32  C   UNL     1       9.086  20.577  55.400  1.00  0.00     0.195 C 
HETATM   33  O   UNL     1       8.469  19.802  54.368  1.00  0.00    -0.388 OA
HETATM   34  C   UNL     1       8.605  20.415  53.082  1.00  0.00     0.195 C 
HETATM   35  C   UNL     1       7.891  21.772  53.061  1.00  0.00     0.261 C 
ENDBRANCH  28  29
ENDBRANCH  27  28
ENDBRANCH  10  27
TORSDOF 9
ENDMDL
MODEL 7
REMARK VINA RESULT:      -8.3      4.649      8.407
REMARK  9 active torsions:
REMARK  status: ('A' for Active; 'I' for Inactive)
REMARK    1  A    between atoms: N_5  and  C_6 
REMARK    2  A    between atoms: C_6  and  C_7 
REMARK    3  A    between atoms: C_7  and  O_8 
REMARK    4  A    between atoms: C_7  and  C_9 
REMARK    5  A    between atoms: C_9  and  O_10 
REMARK    6  A    between atoms: O_10  and  C_11 
REMARK    7  A    between atoms: N_23  and  C_24 
REMARK    8  A    between atoms: C_24  and  C_25 
REMARK    9  A    between atoms: C_25  and  N_26 
ROOT
HETATM    1  C   UNL     1       3.424  32.611  54.176  1.00  0.00     0.002 A 
HETATM    2  C   UNL     1       3.197  31.614  53.224  1.00  0.00     0.032 A 
HETATM    3  C   UNL     1       3.530  30.321  53.576  1.00  0.00     0.079 A 
HETATM    4  C   UNL     1       4.063  29.998  54.849  1.00  0.00     0.079 A 
HETATM    5  N   UNL     1       4.274  28.618  54.895  1.00  0.00    -0.179 N 
HETATM    6  C   UNL     1       3.852  28.080  53.650  1.00  0.00     0.681 A 
HETATM    7  N   UNL     1       3.862  26.767  53.340  1.00  0.00    -0.234 N 
HETATM    8  H   UNL     1       3.490  26.387  52.481  1.00  0.00     0.174 HD
HETATM    9  H   UNL     1       4.250  26.092  53.994  1.00  0.00     0.174 HD
HETATM   10  N   UNL     1       3.405  29.105  52.803  1.00  0.00    -0.180 N 
HETATM   11  C   UNL     1       4.283  30.982  55.787  1.00  0.00     0.032 A 
HETATM   12  C   UNL     1       3.962  32.298  55.439  1.00  0.00     0.002 A 
ENDROOT
BRANCH   5  13
HETATM   13  C   UNL     1       4.573  27.921  56.136  1.00  0.00     0.181 C 
BRANCH  13  14
HETATM   14  C   UNL     1       6.054  27.504  56.265  1.00  0.00     0.161 C 
BRANCH  14  15
HETATM   15  O   UNL     1       6.810  28.293  55.345  1.00  0.00    -0.392 OA
HETATM   16  H   UNL     1       6.867  27.791  54.508  1.00  0.00     0.210 HD
ENDBRANCH  14  15
BRANCH  14  17
HETATM   17  C   UNL     1       6.258  26.023  55.927  1.00  0.00     0.209 C 
BRANCH  17  18
HETATM   18  O   UNL     1       7.429  25.867  55.124  1.00  0.00    -0.347 OA
BRANCH  18  19
HETATM   19  C   UNL     1       7.594  24.616  54.580  1.00  0.00     0.090 A 
HETATM   20  C   UNL     1       7.682  24.293  53.215  1.00  0.00     0.069 A 
HETATM   21 CL   UNL     1       7.553  25.464  51.943  1.00  0.00    -0.081 Cl
HETATM   22  C   UNL     1       7.846  22.960  52.820  1.00  0.00     0.050 A 
HETATM   23  C   UNL     1       7.899  21.951  53.779  1.00  0.00     0.035 A 
HETATM   24 CL   UNL     1       8.107  20.319  53.285  1.00  0.00    -0.084 Cl
HETATM   25  C   UNL     1       7.775  22.257  55.130  1.00  0.00     0.026 A 
HETATM   26  C   UNL     1       7.613  23.586  55.528  1.00  0.00     0.040 A 
ENDBRANCH  18  19
ENDBRANCH  17  18
ENDBRANCH  14  17
ENDBRANCH  13  14
ENDBRANCH   5  13
BRANCH  10  27
HETATM   27  C   UNL     1       2.757  29.003  51.487  1.00  0.00     0.175 C 
BRANCH  27  28
HETATM   28  C   UNL     1       3.751  28.700  50.346  1.00  0.00     0.256 C 
BRANCH  28  29
HETATM   29  N   UNL     1       3.250  27.709  49.316  1.00  0.00    -0.066 N 
HETATM   30  H   UNL     1       2.353  27.355  49.686  1.00  0.00     0.280 HD
HETATM   31  C   UNL     1       2.908  28.304  47.947  1.00  0.00     0.261 C 
HETATM   32  C   UNL     1       2.300  27.220  47.048  1.00  0.00     0.195 C 
HETATM   33  O   UNL     1       3.200  26.116  46.925  1.00  0.00    -0.388 OA
HETATM   34  C   UNL     1       3.444  25.479  48.183  1.00  0.00     0.195 C 
HETATM   35  C   UNL     1       4.122  26.457  49.151  1.00  0.00     0.261 C 
ENDBRANCH  28  29
ENDBRANCH  27  28
ENDBRANCH  10  27
TORSDOF 9
ENDMDL
MODEL 8
REMARK VINA RESULT:      -8.3      1.683      2.272
REMARK  9 active torsions:
REMARK  status: ('A' for Active; 'I' for Inactive)
REMARK    1  A    between atoms: N_5  and  C_6 
REMARK    2  A    between atoms: C_6  and  C_7 
REMARK    3  A    between atoms: C_7  and  O_8 
REMARK    4  A    between atoms: C_7  and  C_9 
REMARK    5  A    between atoms: C_9  and  O_10 
REMARK    6  A    between atoms: O_10  and  C_11 
REMARK    7  A    between atoms: N_23  and  C_24 
REMARK    8  A    between atoms: C_24  and  C_25 
REMARK    9  A    between atoms: C_25  and  N_26 
ROOT
HETATM    1  C   UNL     1       8.719  31.820  59.854  1.00  0.00     0.002 A 
HETATM    2  C   UNL     1       7.383  32.132  59.590  1.00  0.00     0.032 A 
HETATM    3  C   UNL     1       6.718  31.335  58.679  1.00  0.00     0.079 A 
HETATM    4  C   UNL     1       7.342  30.233  58.043  1.00  0.00     0.079 A 
HETATM    5  N   UNL     1       6.406  29.629  57.202  1.00  0.00    -0.179 N 
HETATM    6  C   UNL     1       5.189  30.350  57.331  1.00  0.00     0.681 A 
HETATM    7  N   UNL     1       4.038  30.030  56.702  1.00  0.00    -0.234 N 
HETATM    8  H   UNL     1       3.160  30.503  56.858  1.00  0.00     0.174 HD
HETATM    9  H   UNL     1       4.020  29.265  56.032  1.00  0.00     0.174 HD
HETATM   10  N   UNL     1       5.350  31.423  58.220  1.00  0.00    -0.180 N 
HETATM   11  C   UNL     1       8.658  29.925  58.307  1.00  0.00     0.032 A 
HETATM   12  C   UNL     1       9.347  30.732  59.219  1.00  0.00     0.002 A 
ENDROOT
BRANCH   5  13
HETATM   13  C   UNL     1       6.636  28.328  56.594  1.00  0.00     0.181 C 
BRANCH  13  14
HETATM   14  C   UNL     1       7.083  28.408  55.119  1.00  0.00     0.161 C 
BRANCH  14  15
HETATM   15  O   UNL     1       6.125  29.202  54.417  1.00  0.00    -0.392 OA
HETATM   16  H   UNL     1       5.241  28.829  54.606  1.00  0.00     0.210 HD
ENDBRANCH  14  15
BRANCH  14  17
HETATM   17  C   UNL     1       7.146  27.022  54.468  1.00  0.00     0.209 C 
BRANCH  17  18
HETATM   18  O   UNL     1       7.499  26.043  55.446  1.00  0.00    -0.347 OA
BRANCH  18  19
HETATM   19  C   UNL     1       7.698  24.778  54.950  1.00  0.00     0.090 A 
HETATM   20  C   UNL     1       8.185  23.661  55.652  1.00  0.00     0.069 A 
HETATM   21 CL   UNL     1       8.671  23.713  57.315  1.00  0.00    -0.081 Cl
HETATM   22  C   UNL     1       8.334  22.433  54.998  1.00  0.00     0.050 A 
HETATM   23  C   UNL     1       8.022  22.322  53.645  1.00  0.00     0.035 A 
HETATM   24 CL   UNL     1       8.202  20.809  52.852  1.00  0.00    -0.084 Cl
HETATM   25  C   UNL     1       7.575  23.430  52.932  1.00  0.00     0.026 A 
HETATM   26  C   UNL     1       7.422  24.657  53.582  1.00  0.00     0.040 A 
ENDBRANCH  18  19
ENDBRANCH  17  18
ENDBRANCH  14  17
ENDBRANCH  13  14
ENDBRANCH   5  13
BRANCH  10  27
HETATM   27  C   UNL     1       4.336  32.343  58.755  1.00  0.00     0.175 C 
BRANCH  27  28
HETATM   28  C   UNL     1       3.583  31.769  59.975  1.00  0.00     0.256 C 
BRANCH  28  29
HETATM   29  N   UNL     1       2.836  32.799  60.799  1.00  0.00    -0.066 N 
HETATM   30  H   UNL     1       1.899  32.397  60.960  1.00  0.00     0.280 HD
HETATM   31  C   UNL     1       3.406  33.055  62.197  1.00  0.00     0.261 C 
HETATM   32  C   UNL     1       2.489  34.018  62.961  1.00  0.00     0.195 C 
HETATM   33  O   UNL     1       2.332  35.238  62.231  1.00  0.00    -0.388 OA
HETATM   34  C   UNL     1       1.701  35.029  60.964  1.00  0.00     0.195 C 
HETATM   35  C   UNL     1       2.569  34.128  60.079  1.00  0.00     0.261 C 
ENDBRANCH  28  29
ENDBRANCH  27  28
ENDBRANCH  10  27
TORSDOF 9
ENDMDL
MODEL 9
REMARK VINA RESULT:      -8.3      4.426      9.808
REMARK  9 active torsions:
REMARK  status: ('A' for Active; 'I' for Inactive)
REMARK    1  A    between atoms: N_5  and  C_6 
REMARK    2  A    between atoms: C_6  and  C_7 
REMARK    3  A    between atoms: C_7  and  O_8 
REMARK    4  A    between atoms: C_7  and  C_9 
REMARK    5  A    between atoms: C_9  and  O_10 
REMARK    6  A    between atoms: O_10  and  C_11 
REMARK    7  A    between atoms: N_23  and  C_24 
REMARK    8  A    between atoms: C_24  and  C_25 
REMARK    9  A    between atoms: C_25  and  N_26 
ROOT
HETATM    1  C   UNL     1       7.746  24.014  56.190  1.00  0.00     0.002 A 
HETATM    2  C   UNL     1       6.821  24.584  55.311  1.00  0.00     0.032 A 
HETATM    3  C   UNL     1       6.690  25.958  55.340  1.00  0.00     0.079 A 
HETATM    4  C   UNL     1       7.462  26.773  56.204  1.00  0.00     0.079 A 
HETATM    5  N   UNL     1       7.107  28.104  55.981  1.00  0.00    -0.179 N 
HETATM    6  C   UNL     1       6.120  28.117  54.959  1.00  0.00     0.681 A 
HETATM    7  N   UNL     1       5.567  29.233  54.441  1.00  0.00    -0.234 N 
HETATM    8  H   UNL     1       4.923  29.235  53.663  1.00  0.00     0.174 HD
HETATM    9  H   UNL     1       5.801  30.144  54.828  1.00  0.00     0.174 HD
HETATM   10  N   UNL     1       5.824  26.807  54.553  1.00  0.00    -0.180 N 
HETATM   11  C   UNL     1       8.376  26.209  57.067  1.00  0.00     0.032 A 
HETATM   12  C   UNL     1       8.510  24.817  57.057  1.00  0.00     0.002 A 
ENDROOT
BRANCH   5  13
HETATM   13  C   UNL     1       7.881  29.214  56.515  1.00  0.00     0.181 C 
BRANCH  13  14
HETATM   14  C   UNL     1       7.601  29.497  58.006  1.00  0.00     0.161 C 
BRANCH  14  15
HETATM   15  O   UNL     1       6.218  29.833  58.133  1.00  0.00    -0.392 OA
HETATM   16  H   UNL     1       6.121  30.773  57.881  1.00  0.00     0.210 HD
ENDBRANCH  14  15
BRANCH  14  17
HETATM   17  C   UNL     1       8.441  30.667  58.530  1.00  0.00     0.209 C 
BRANCH  17  18
HETATM   18  O   UNL     1       7.599  31.793  58.784  1.00  0.00    -0.347 OA
BRANCH  18  19
HETATM   19  C   UNL     1       7.487  32.142  60.108  1.00  0.00     0.090 A 
HETATM   20  C   UNL     1       6.410  32.809  60.718  1.00  0.00     0.069 A 
HETATM   21 CL   UNL     1       5.010  33.354  59.856  1.00  0.00    -0.081 Cl
HETATM   22  C   UNL     1       6.450  33.097  62.087  1.00  0.00     0.050 A 
HETATM   23  C   UNL     1       7.567  32.745  62.840  1.00  0.00     0.035 A 
HETATM   24 CL   UNL     1       7.604  33.097  64.521  1.00  0.00    -0.084 Cl
HETATM   25  C   UNL     1       8.654  32.119  62.239  1.00  0.00     0.026 A 
HETATM   26  C   UNL     1       8.617  31.826  60.873  1.00  0.00     0.040 A 
ENDBRANCH  18  19
ENDBRANCH  17  18
ENDBRANCH  14  17
ENDBRANCH  13  14
ENDBRANCH   5  13
BRANCH  10  27
HETATM   27  C   UNL     1       4.976  26.351  53.441  1.00  0.00     0.175 C 
BRANCH  27  28
HETATM   28  C   UNL     1       5.567  26.684  52.054  1.00  0.00     0.256 C 
BRANCH  28  29
HETATM   29  N   UNL     1       4.542  27.065  51.005  1.00  0.00    -0.066 N 
HETATM   30  H   UNL     1       3.639  26.715  51.360  1.00  0.00     0.280 HD
HETATM   31  C   UNL     1       4.336  28.569  50.808  1.00  0.00     0.261 C 
HETATM   32  C   UNL     1       3.193  28.810  49.814  1.00  0.00     0.195 C 
HETATM   33  O   UNL     1       3.469  28.155  48.572  1.00  0.00    -0.388 OA
HETATM   34  C   UNL     1       3.557  26.735  48.722  1.00  0.00     0.195 C 
HETATM   35  C   UNL     1       4.722  26.368  49.649  1.00  0.00     0.261 C 
ENDBRANCH  28  29
ENDBRANCH  27  28
ENDBRANCH  10  27
TORSDOF 9
ENDMDL
MODEL 10
REMARK VINA RESULT:      -8.2      4.284      9.747
REMARK  9 active torsions:
REMARK  status: ('A' for Active; 'I' for Inactive)
REMARK    1  A    between atoms: N_5  and  C_6 
REMARK    2  A    between atoms: C_6  and  C_7 
REMARK    3  A    between atoms: C_7  and  O_8 
REMARK    4  A    between atoms: C_7  and  C_9 
REMARK    5  A    between atoms: C_9  and  O_10 
REMARK    6  A    between atoms: O_10  and  C_11 
REMARK    7  A    between atoms: N_23  and  C_24 
REMARK    8  A    between atoms: C_24  and  C_25 
REMARK    9  A    between atoms: C_25  and  N_26 
ROOT
HETATM    1  C   UNL     1       7.713  22.993  54.104  1.00  0.00     0.002 A 
HETATM    2  C   UNL     1       6.847  23.660  53.234  1.00  0.00     0.032 A 
HETATM    3  C   UNL     1       6.388  24.900  53.631  1.00  0.00     0.079 A 
HETATM    4  C   UNL     1       6.781  25.494  54.856  1.00  0.00     0.079 A 
HETATM    5  N   UNL     1       6.164  26.742  54.952  1.00  0.00    -0.179 N 
HETATM    6  C   UNL     1       5.396  26.931  53.772  1.00  0.00     0.681 A 
HETATM    7  N   UNL     1       4.692  28.046  53.485  1.00  0.00    -0.234 N 
HETATM    8  H   UNL     1       4.212  28.201  52.611  1.00  0.00     0.174 HD
HETATM    9  H   UNL     1       4.631  28.799  54.166  1.00  0.00     0.174 HD
HETATM   10  N   UNL     1       5.496  25.805  52.941  1.00  0.00    -0.180 N 
HETATM   11  C   UNL     1       7.638  24.837  55.711  1.00  0.00     0.032 A 
HETATM   12  C   UNL     1       8.100  23.574  55.327  1.00  0.00     0.002 A 
ENDROOT
BRANCH   5  13
HETATM   13  C   UNL     1       6.545  27.721  55.959  1.00  0.00     0.181 C 
BRANCH  13  14
HETATM   14  C   UNL     1       5.462  27.953  57.033  1.00  0.00     0.161 C 
BRANCH  14  15
HETATM   15  O   UNL     1       4.221  27.477  56.509  1.00  0.00    -0.392 OA
HETATM   16  H   UNL     1       4.387  27.175  55.594  1.00  0.00     0.210 HD
ENDBRANCH  14  15
BRANCH  14  17
HETATM   17  C   UNL     1       5.312  29.440  57.377  1.00  0.00     0.209 C 
BRANCH  17  18
HETATM   18  O   UNL     1       6.490  30.148  56.987  1.00  0.00    -0.347 OA
BRANCH  18  19
HETATM   19  C   UNL     1       7.301  30.535  58.026  1.00  0.00     0.090 A 
HETATM   20  C   UNL     1       8.628  30.135  58.257  1.00  0.00     0.069 A 
HETATM   21 CL   UNL     1       9.479  29.011  57.248  1.00  0.00    -0.081 Cl
HETATM   22  C   UNL     1       9.322  30.620  59.371  1.00  0.00     0.050 A 
HETATM   23  C   UNL     1       8.690  31.481  60.265  1.00  0.00     0.035 A 
HETATM   24 CL   UNL     1       9.552  32.076  61.626  1.00  0.00    -0.084 Cl
HETATM   25  C   UNL     1       7.364  31.853  60.066  1.00  0.00     0.026 A 
HETATM   26  C   UNL     1       6.669  31.373  58.953  1.00  0.00     0.040 A 
ENDBRANCH  18  19
ENDBRANCH  17  18
ENDBRANCH  14  17
ENDBRANCH  13  14
ENDBRANCH   5  13
BRANCH  10  27
HETATM   27  C   UNL     1       4.988  25.614  51.575  1.00  0.00     0.175 C 
BRANCH  27  28
HETATM   28  C   UNL     1       5.699  26.507  50.536  1.00  0.00     0.256 C 
BRANCH  28  29
HETATM   29  N   UNL     1       4.983  26.622  49.205  1.00  0.00    -0.066 N 
HETATM   30  H   UNL     1       5.685  26.370  48.491  1.00  0.00     0.280 HD
HETATM   31  C   UNL     1       3.832  25.635  48.995  1.00  0.00     0.261 C 
HETATM   32  C   UNL     1       3.282  25.776  47.570  1.00  0.00     0.195 C 
HETATM   33  O   UNL     1       2.863  27.123  47.331  1.00  0.00    -0.388 OA
HETATM   34  C   UNL     1       3.953  28.047  47.417  1.00  0.00     0.195 C 
HETATM   35  C   UNL     1       4.543  28.044  48.832  1.00  0.00     0.261 C 
ENDBRANCH  28  29
ENDBRANCH  27  28
ENDBRANCH  10  27
TORSDOF 9
ENDMDL
