MODEL 1
REMARK VINA RESULT:     -10.9      0.000      0.000
REMARK  8 active torsions:
REMARK  status: ('A' for Active; 'I' for Inactive)
REMARK    1  A    between atoms: C_6  and  N_7 
REMARK       I    between atoms: N_7  and  C_8 
REMARK    2  A    between atoms: C_8  and  C_9 
REMARK    3  A    between atoms: C_9  and  N_10 
REMARK    4  A    between atoms: C_13  and  C_14 
REMARK       I    between atoms: C_14  and  N_15 
REMARK    5  A    between atoms: N_15  and  C_16 
REMARK    6  A    between atoms: C_16  and  C_17 
REMARK    7  A    between atoms: C_20  and  O_21 
REMARK    8  A    between atoms: C_26  and  N_27 
ROOT
HETATM    1  N   UNL     1       6.751  28.582  57.073  1.00  0.00    -0.248 N 
HETATM    2  N   UNL     1       7.732  27.843  57.635  1.00  0.00     0.007 NA
HETATM    3  N   UNL     1       8.357  28.616  58.509  1.00  0.00    -0.150 NA
HETATM    4  C   UNL     1       7.769  29.865  58.486  1.00  0.00     0.186 A 
HETATM    5  C   UNL     1       6.726  29.859  57.573  1.00  0.00     0.151 A 
ENDROOT
BRANCH   1   6
HETATM    6  C   UNL     1       5.932  27.987  56.046  1.00  0.00     0.251 C 
BRANCH   6   7
HETATM    7  C   UNL     1       6.189  26.503  55.909  1.00  0.00     0.241 C 
HETATM    8  N   UNL     1       7.261  26.187  55.087  1.00  0.00    -0.325 N 
HETATM    9  H   UNL     1       7.634  26.961  54.545  1.00  0.00     0.169 HD
HETATM   10  O   UNL     1       5.400  25.704  56.409  1.00  0.00    -0.271 OA
BRANCH   8  11
HETATM   11  C   UNL     1       7.662  24.894  54.672  1.00  0.00     0.046 A 
HETATM   12  C   UNL     1       7.447  24.560  53.311  1.00  0.00    -0.034 A 
HETATM   13  C   UNL     1       7.748  23.265  52.852  1.00  0.00     0.015 A 
HETATM   14  C   UNL     1       6.856  25.535  52.323  1.00  0.00     0.050 C 
HETATM   15  C   UNL     1       8.277  22.302  53.709  1.00  0.00    -0.061 A 
HETATM   16  C   UNL     1       8.560  20.909  53.233  1.00  0.00     0.048 C 
HETATM   17  C   UNL     1       8.547  22.658  55.032  1.00  0.00     0.015 A 
HETATM   18  C   UNL     1       8.285  23.955  55.518  1.00  0.00    -0.034 A 
HETATM   19  C   UNL     1       8.761  24.251  56.916  1.00  0.00     0.050 C 
ENDBRANCH   8  11
ENDBRANCH   6   7
ENDBRANCH   1   6
BRANCH   5  20
HETATM   20  N   UNL     1       5.855  30.813  57.176  1.00  0.00    -0.382 N 
HETATM   21  H   UNL     1       4.920  30.828  57.593  1.00  0.00     0.157 HD
HETATM   22  H   UNL     1       5.888  31.273  56.269  1.00  0.00     0.157 HD
ENDBRANCH   5  20
BRANCH   4  23
HETATM   23  C   UNL     1       8.237  30.966  59.316  1.00  0.00     0.275 C 
HETATM   24  N   UNL     1       8.389  30.612  60.634  1.00  0.00    -0.351 N 
HETATM   25  H   UNL     1       8.113  29.673  60.905  1.00  0.00     0.163 HD
HETATM   26  O   UNL     1       8.481  32.088  58.884  1.00  0.00    -0.266 OA
BRANCH  24  27
HETATM   27  C   UNL     1       8.898  31.511  61.636  1.00  0.00     0.161 C 
BRANCH  27  28
HETATM   28  C   UNL     1       7.779  31.941  62.546  1.00  0.00    -0.040 A 
HETATM   29  C   UNL     1       6.457  31.592  62.241  1.00  0.00     0.011 A 
HETATM   30  C   UNL     1       5.403  32.053  63.032  1.00  0.00     0.037 A 
HETATM   31  C   UNL     1       5.648  32.872  64.135  1.00  0.00     0.068 A 
HETATM   32  C   UNL     1       6.963  33.210  64.455  1.00  0.00     0.037 A 
HETATM   33  C   UNL     1       8.023  32.751  63.662  1.00  0.00     0.011 A 
BRANCH  31  34
HETATM   34  O   UNL     1       4.527  33.270  64.810  1.00  0.00    -0.356 OA
HETATM   35  C   UNL     1       4.726  33.890  66.073  1.00  0.00     0.210 C 
ENDBRANCH  31  34
ENDBRANCH  27  28
ENDBRANCH  24  27
ENDBRANCH   4  23
TORSDOF 8
ENDMDL
MODEL 2
REMARK VINA RESULT:     -10.7      0.639      1.651
REMARK  8 active torsions:
REMARK  status: ('A' for Active; 'I' for Inactive)
REMARK    1  A    between atoms: C_6  and  N_7 
REMARK       I    between atoms: N_7  and  C_8 
REMARK    2  A    between atoms: C_8  and  C_9 
REMARK    3  A    between atoms: C_9  and  N_10 
REMARK    4  A    between atoms: C_13  and  C_14 
REMARK       I    between atoms: C_14  and  N_15 
REMARK    5  A    between atoms: N_15  and  C_16 
REMARK    6  A    between atoms: C_16  and  C_17 
REMARK    7  A    between atoms: C_20  and  O_21 
REMARK    8  A    between atoms: C_26  and  N_27 
ROOT
HETATM    1  N   UNL     1       6.435  28.444  57.355  1.00  0.00    -0.248 N 
HETATM    2  N   UNL     1       7.630  27.837  57.518  1.00  0.00     0.007 NA
HETATM    3  N   UNL     1       8.383  28.641  58.252  1.00  0.00    -0.150 NA
HETATM    4  C   UNL     1       7.654  29.777  58.543  1.00  0.00     0.186 A 
HETATM    5  C   UNL     1       6.393  29.663  57.981  1.00  0.00     0.151 A 
ENDROOT
BRANCH   1   6
HETATM    6  C   UNL     1       5.428  27.793  56.552  1.00  0.00     0.251 C 
BRANCH   6   7
HETATM    7  C   UNL     1       5.744  26.332  56.326  1.00  0.00     0.241 C 
HETATM    8  N   UNL     1       6.724  26.106  55.369  1.00  0.00    -0.325 N 
HETATM    9  H   UNL     1       6.987  26.918  54.818  1.00  0.00     0.169 HD
HETATM   10  O   UNL     1       5.065  25.473  56.884  1.00  0.00    -0.271 OA
BRANCH   8  11
HETATM   11  C   UNL     1       7.139  24.852  54.857  1.00  0.00     0.046 A 
HETATM   12  C   UNL     1       8.090  24.130  55.619  1.00  0.00    -0.034 A 
HETATM   13  C   UNL     1       8.605  22.916  55.127  1.00  0.00     0.015 A 
HETATM   14  C   UNL     1       8.621  24.634  56.938  1.00  0.00     0.050 C 
HETATM   15  C   UNL     1       8.180  22.396  53.907  1.00  0.00    -0.061 A 
HETATM   16  C   UNL     1       8.756  21.124  53.361  1.00  0.00     0.048 C 
HETATM   17  C   UNL     1       7.194  23.081  53.193  1.00  0.00     0.015 A 
HETATM   18  C   UNL     1       6.636  24.284  53.669  1.00  0.00    -0.034 A 
HETATM   19  C   UNL     1       5.479  24.839  52.881  1.00  0.00     0.050 C 
ENDBRANCH   8  11
ENDBRANCH   6   7
ENDBRANCH   1   6
BRANCH   5  20
HETATM   20  N   UNL     1       5.322  30.488  57.966  1.00  0.00    -0.382 N 
HETATM   21  H   UNL     1       4.698  30.496  58.778  1.00  0.00     0.157 HD
HETATM   22  H   UNL     1       4.866  30.815  57.118  1.00  0.00     0.157 HD
ENDBRANCH   5  20
BRANCH   4  23
HETATM   23  C   UNL     1       8.202  30.881  59.319  1.00  0.00     0.275 C 
HETATM   24  N   UNL     1       8.188  30.641  60.670  1.00  0.00    -0.351 N 
HETATM   25  H   UNL     1       7.757  29.780  60.993  1.00  0.00     0.163 HD
HETATM   26  O   UNL     1       8.641  31.912  58.818  1.00  0.00    -0.266 OA
BRANCH  24  27
HETATM   27  C   UNL     1       8.732  31.558  61.638  1.00  0.00     0.161 C 
BRANCH  27  28
HETATM   28  C   UNL     1       7.649  31.995  62.587  1.00  0.00    -0.040 A 
HETATM   29  C   UNL     1       6.309  31.700  62.302  1.00  0.00     0.011 A 
HETATM   30  C   UNL     1       5.290  32.170  63.131  1.00  0.00     0.037 A 
HETATM   31  C   UNL     1       5.587  32.944  64.254  1.00  0.00     0.068 A 
HETATM   32  C   UNL     1       6.920  33.227  64.553  1.00  0.00     0.037 A 
HETATM   33  C   UNL     1       7.945  32.759  63.722  1.00  0.00     0.011 A 
BRANCH  31  34
HETATM   34  O   UNL     1       4.496  33.357  64.967  1.00  0.00    -0.356 OA
HETATM   35  C   UNL     1       3.688  34.366  64.374  1.00  0.00     0.210 C 
ENDBRANCH  31  34
ENDBRANCH  27  28
ENDBRANCH  24  27
ENDBRANCH   4  23
TORSDOF 8
ENDMDL
MODEL 3
REMARK VINA RESULT:      -9.7      2.293     10.660
REMARK  8 active torsions:
REMARK  status: ('A' for Active; 'I' for Inactive)
REMARK    1  A    between atoms: C_6  and  N_7 
REMARK       I    between atoms: N_7  and  C_8 
REMARK    2  A    between atoms: C_8  and  C_9 
REMARK    3  A    between atoms: C_9  and  N_10 
REMARK    4  A    between atoms: C_13  and  C_14 
REMARK       I    between atoms: C_14  and  N_15 
REMARK    5  A    between atoms: N_15  and  C_16 
REMARK    6  A    between atoms: C_16  and  C_17 
REMARK    7  A    between atoms: C_20  and  O_21 
REMARK    8  A    between atoms: C_26  and  N_27 
ROOT
HETATM    1  N   UNL     1       8.996  29.437  57.978  1.00  0.00    -0.248 N 
HETATM    2  N   UNL     1       7.851  28.855  58.396  1.00  0.00     0.007 NA
HETATM    3  N   UNL     1       7.328  28.224  57.358  1.00  0.00    -0.150 NA
HETATM    4  C   UNL     1       8.150  28.423  56.266  1.00  0.00     0.186 A 
HETATM    5  C   UNL     1       9.234  29.195  56.650  1.00  0.00     0.151 A 
ENDROOT
BRANCH   1   6
HETATM    6  C   UNL     1       9.755  30.231  58.914  1.00  0.00     0.251 C 
BRANCH   6   7
HETATM    7  C   UNL     1       9.004  31.472  59.340  1.00  0.00     0.241 C 
HETATM    8  N   UNL     1       7.864  31.216  60.088  1.00  0.00    -0.325 N 
HETATM    9  H   UNL     1       7.574  30.244  60.117  1.00  0.00     0.169 HD
HETATM   10  O   UNL     1       9.362  32.569  58.917  1.00  0.00    -0.271 OA
BRANCH   8  11
HETATM   11  C   UNL     1       6.899  32.160  60.518  1.00  0.00     0.046 A 
HETATM   12  C   UNL     1       7.063  32.701  61.818  1.00  0.00    -0.034 A 
HETATM   13  C   UNL     1       6.097  33.582  62.337  1.00  0.00     0.015 A 
HETATM   14  C   UNL     1       8.226  32.332  62.706  1.00  0.00     0.050 C 
HETATM   15  C   UNL     1       4.984  33.952  61.585  1.00  0.00    -0.061 A 
HETATM   16  C   UNL     1       3.931  34.858  62.150  1.00  0.00     0.048 C 
HETATM   17  C   UNL     1       4.863  33.467  60.281  1.00  0.00     0.015 A 
HETATM   18  C   UNL     1       5.827  32.606  59.720  1.00  0.00    -0.034 A 
HETATM   19  C   UNL     1       5.657  32.278  58.260  1.00  0.00     0.050 C 
ENDBRANCH   8  11
ENDBRANCH   6   7
ENDBRANCH   1   6
BRANCH   5  20
HETATM   20  N   UNL     1      10.303  29.670  55.972  1.00  0.00    -0.382 N 
HETATM   21  H   UNL     1      10.140  30.275  55.161  1.00  0.00     0.157 HD
HETATM   22  H   UNL     1      11.209  29.211  55.942  1.00  0.00     0.157 HD
ENDBRANCH   5  20
BRANCH   4  23
HETATM   23  C   UNL     1       7.847  27.879  54.949  1.00  0.00     0.275 C 
HETATM   24  N   UNL     1       7.163  26.691  55.008  1.00  0.00    -0.351 N 
HETATM   25  H   UNL     1       6.993  26.289  55.924  1.00  0.00     0.163 HD
HETATM   26  O   UNL     1       8.161  28.430  53.898  1.00  0.00    -0.266 OA
BRANCH  24  27
HETATM   27  C   UNL     1       6.699  25.992  53.838  1.00  0.00     0.161 C 
BRANCH  27  28
HETATM   28  C   UNL     1       7.060  24.535  53.943  1.00  0.00    -0.040 A 
HETATM   29  C   UNL     1       7.074  23.907  55.195  1.00  0.00     0.011 A 
HETATM   30  C   UNL     1       7.486  22.578  55.316  1.00  0.00     0.037 A 
HETATM   31  C   UNL     1       7.894  21.857  54.193  1.00  0.00     0.068 A 
HETATM   32  C   UNL     1       7.867  22.470  52.941  1.00  0.00     0.037 A 
HETATM   33  C   UNL     1       7.457  23.803  52.817  1.00  0.00     0.011 A 
BRANCH  31  34
HETATM   34  O   UNL     1       8.293  20.574  54.454  1.00  0.00    -0.356 OA
HETATM   35  C   UNL     1       8.303  20.172  55.817  1.00  0.00     0.210 C 
ENDBRANCH  31  34
ENDBRANCH  27  28
ENDBRANCH  24  27
ENDBRANCH   4  23
TORSDOF 8
ENDMDL
MODEL 4
REMARK VINA RESULT:      -9.7      1.678      2.503
REMARK  8 active torsions:
REMARK  status: ('A' for Active; 'I' for Inactive)
REMARK    1  A    between atoms: C_6  and  N_7 
REMARK       I    between atoms: N_7  and  C_8 
REMARK    2  A    between atoms: C_8  and  C_9 
REMARK    3  A    between atoms: C_9  and  N_10 
REMARK    4  A    between atoms: C_13  and  C_14 
REMARK       I    between atoms: C_14  and  N_15 
REMARK    5  A    between atoms: N_15  and  C_16 
REMARK    6  A    between atoms: C_16  and  C_17 
REMARK    7  A    between atoms: C_20  and  O_21 
REMARK    8  A    between atoms: C_26  and  N_27 
ROOT
HETATM    1  N   UNL     1       6.849  29.046  55.900  1.00  0.00    -0.248 N 
HETATM    2  N   UNL     1       5.860  29.159  56.812  1.00  0.00     0.007 NA
HETATM    3  N   UNL     1       6.406  29.606  57.932  1.00  0.00    -0.150 NA
HETATM    4  C   UNL     1       7.762  29.763  57.724  1.00  0.00     0.186 A 
HETATM    5  C   UNL     1       8.064  29.416  56.417  1.00  0.00     0.151 A 
ENDROOT
BRANCH   1   6
HETATM    6  C   UNL     1       6.531  28.537  54.588  1.00  0.00     0.251 C 
BRANCH   6   7
HETATM    7  C   UNL     1       7.159  27.184  54.340  1.00  0.00     0.241 C 
HETATM    8  N   UNL     1       6.717  26.189  55.198  1.00  0.00    -0.325 N 
HETATM    9  H   UNL     1       6.166  26.511  55.988  1.00  0.00     0.169 HD
HETATM   10  O   UNL     1       8.066  27.081  53.517  1.00  0.00    -0.271 OA
BRANCH   8  11
HETATM   11  C   UNL     1       7.210  24.864  55.290  1.00  0.00     0.046 A 
HETATM   12  C   UNL     1       7.896  24.515  56.480  1.00  0.00    -0.034 A 
HETATM   13  C   UNL     1       8.481  23.241  56.603  1.00  0.00     0.015 A 
HETATM   14  C   UNL     1       8.070  25.481  57.626  1.00  0.00     0.050 C 
HETATM   15  C   UNL     1       8.381  22.301  55.579  1.00  0.00    -0.061 A 
HETATM   16  C   UNL     1       9.038  20.959  55.690  1.00  0.00     0.048 C 
HETATM   17  C   UNL     1       7.648  22.630  54.437  1.00  0.00     0.015 A 
HETATM   18  C   UNL     1       7.025  23.886  54.293  1.00  0.00    -0.034 A 
HETATM   19  C   UNL     1       6.143  24.057  53.084  1.00  0.00     0.050 C 
ENDBRANCH   8  11
ENDBRANCH   6   7
ENDBRANCH   1   6
BRANCH   5  20
HETATM   20  N   UNL     1       9.225  29.387  55.726  1.00  0.00    -0.382 N 
HETATM   21  H   UNL     1       9.491  30.211  55.178  1.00  0.00     0.157 HD
HETATM   22  H   UNL     1       9.668  28.534  55.392  1.00  0.00     0.157 HD
ENDBRANCH   5  20
BRANCH   4  23
HETATM   23  C   UNL     1       8.666  30.219  58.771  1.00  0.00     0.275 C 
HETATM   24  N   UNL     1       8.042  30.373  59.984  1.00  0.00    -0.351 N 
HETATM   25  H   UNL     1       7.039  30.221  60.021  1.00  0.00     0.163 HD
HETATM   26  O   UNL     1       9.861  30.434  58.592  1.00  0.00    -0.266 OA
BRANCH  24  27
HETATM   27  C   UNL     1       8.739  30.756  61.184  1.00  0.00     0.161 C 
BRANCH  27  28
HETATM   28  C   UNL     1       8.003  31.881  61.860  1.00  0.00    -0.040 A 
HETATM   29  C   UNL     1       8.231  32.150  63.216  1.00  0.00     0.011 A 
HETATM   30  C   UNL     1       7.494  33.137  63.875  1.00  0.00     0.037 A 
HETATM   31  C   UNL     1       6.518  33.867  63.195  1.00  0.00     0.068 A 
HETATM   32  C   UNL     1       6.298  33.616  61.841  1.00  0.00     0.037 A 
HETATM   33  C   UNL     1       7.032  32.625  61.178  1.00  0.00     0.011 A 
BRANCH  31  34
HETATM   34  O   UNL     1       5.857  34.786  63.963  1.00  0.00    -0.356 OA
HETATM   35  C   UNL     1       4.473  34.970  63.692  1.00  0.00     0.210 C 
ENDBRANCH  31  34
ENDBRANCH  27  28
ENDBRANCH  24  27
ENDBRANCH   4  23
TORSDOF 8
ENDMDL
MODEL 5
REMARK VINA RESULT:      -9.5      1.487      2.225
REMARK  8 active torsions:
REMARK  status: ('A' for Active; 'I' for Inactive)
REMARK    1  A    between atoms: C_6  and  N_7 
REMARK       I    between atoms: N_7  and  C_8 
REMARK    2  A    between atoms: C_8  and  C_9 
REMARK    3  A    between atoms: C_9  and  N_10 
REMARK    4  A    between atoms: C_13  and  C_14 
REMARK       I    between atoms: C_14  and  N_15 
REMARK    5  A    between atoms: N_15  and  C_16 
REMARK    6  A    between atoms: C_16  and  C_17 
REMARK    7  A    between atoms: C_20  and  O_21 
REMARK    8  A    between atoms: C_26  and  N_27 
ROOT
HETATM    1  N   UNL     1       7.152  29.143  56.111  1.00  0.00    -0.248 N 
HETATM    2  N   UNL     1       8.471  29.209  55.830  1.00  0.00     0.007 NA
HETATM    3  N   UNL     1       9.080  29.687  56.903  1.00  0.00    -0.150 NA
HETATM    4  C   UNL     1       8.127  29.939  57.870  1.00  0.00     0.186 A 
HETATM    5  C   UNL     1       6.880  29.586  57.380  1.00  0.00     0.151 A 
ENDROOT
BRANCH   1   6
HETATM    6  C   UNL     1       6.244  28.687  55.087  1.00  0.00     0.251 C 
BRANCH   6   7
HETATM    7  C   UNL     1       6.208  27.178  54.997  1.00  0.00     0.241 C 
HETATM    8  N   UNL     1       7.388  26.610  54.538  1.00  0.00    -0.325 N 
HETATM    9  H   UNL     1       8.065  27.265  54.159  1.00  0.00     0.169 HD
HETATM   10  O   UNL     1       5.153  26.585  55.207  1.00  0.00    -0.271 OA
BRANCH   8  11
HETATM   11  C   UNL     1       7.612  25.245  54.232  1.00  0.00     0.046 A 
HETATM   12  C   UNL     1       8.008  24.403  55.301  1.00  0.00    -0.034 A 
HETATM   13  C   UNL     1       8.324  23.056  55.051  1.00  0.00     0.015 A 
HETATM   14  C   UNL     1       8.153  24.907  56.716  1.00  0.00     0.050 C 
HETATM   15  C   UNL     1       8.236  22.522  53.767  1.00  0.00    -0.061 A 
HETATM   16  C   UNL     1       8.612  21.098  53.489  1.00  0.00     0.048 C 
HETATM   17  C   UNL     1       7.781  23.341  52.730  1.00  0.00     0.015 A 
HETATM   18  C   UNL     1       7.429  24.687  52.951  1.00  0.00    -0.034 A 
HETATM   19  C   UNL     1       6.814  25.414  51.784  1.00  0.00     0.050 C 
ENDBRANCH   8  11
ENDBRANCH   6   7
ENDBRANCH   1   6
BRANCH   5  20
HETATM   20  N   UNL     1       5.640  29.641  57.915  1.00  0.00    -0.382 N 
HETATM   21  H   UNL     1       4.911  30.157  57.412  1.00  0.00     0.157 HD
HETATM   22  H   UNL     1       5.443  29.554  58.909  1.00  0.00     0.157 HD
ENDBRANCH   5  20
BRANCH   4  23
HETATM   23  C   UNL     1       8.462  30.498  59.172  1.00  0.00     0.275 C 
HETATM   24  N   UNL     1       8.164  31.834  59.271  1.00  0.00    -0.351 N 
HETATM   25  H   UNL     1       7.811  32.302  58.442  1.00  0.00     0.163 HD
HETATM   26  O   UNL     1       8.950  29.843  60.088  1.00  0.00    -0.266 OA
BRANCH  24  27
HETATM   27  C   UNL     1       8.349  32.594  60.480  1.00  0.00     0.161 C 
BRANCH  27  28
HETATM   28  C   UNL     1       7.040  32.701  61.215  1.00  0.00    -0.040 A 
HETATM   29  C   UNL     1       5.839  32.427  60.547  1.00  0.00     0.011 A 
HETATM   30  C   UNL     1       4.614  32.602  61.194  1.00  0.00     0.037 A 
HETATM   31  C   UNL     1       4.566  33.056  62.513  1.00  0.00     0.068 A 
HETATM   32  C   UNL     1       5.758  33.315  63.189  1.00  0.00     0.037 A 
HETATM   33  C   UNL     1       6.988  33.143  62.543  1.00  0.00     0.011 A 
BRANCH  31  34
HETATM   34  O   UNL     1       3.304  33.205  63.019  1.00  0.00    -0.356 OA
HETATM   35  C   UNL     1       2.489  34.207  62.424  1.00  0.00     0.210 C 
ENDBRANCH  31  34
ENDBRANCH  27  28
ENDBRANCH  24  27
ENDBRANCH   4  23
TORSDOF 8
ENDMDL
MODEL 6
REMARK VINA RESULT:      -9.4      2.061     10.475
REMARK  8 active torsions:
REMARK  status: ('A' for Active; 'I' for Inactive)
REMARK    1  A    between atoms: C_6  and  N_7 
REMARK       I    between atoms: N_7  and  C_8 
REMARK    2  A    between atoms: C_8  and  C_9 
REMARK    3  A    between atoms: C_9  and  N_10 
REMARK    4  A    between atoms: C_13  and  C_14 
REMARK       I    between atoms: C_14  and  N_15 
REMARK    5  A    between atoms: N_15  and  C_16 
REMARK    6  A    between atoms: C_16  and  C_17 
REMARK    7  A    between atoms: C_20  and  O_21 
REMARK    8  A    between atoms: C_26  and  N_27 
ROOT
HETATM    1  N   UNL     1       6.216  30.296  57.292  1.00  0.00    -0.248 N 
HETATM    2  N   UNL     1       7.177  29.707  58.037  1.00  0.00     0.007 NA
HETATM    3  N   UNL     1       7.894  28.947  57.226  1.00  0.00    -0.150 NA
HETATM    4  C   UNL     1       7.368  29.048  55.953  1.00  0.00     0.186 A 
HETATM    5  C   UNL     1       6.292  29.920  55.975  1.00  0.00     0.151 A 
ENDROOT
BRANCH   1   6
HETATM    6  C   UNL     1       5.260  31.158  57.943  1.00  0.00     0.251 C 
BRANCH   6   7
HETATM    7  C   UNL     1       5.897  31.978  59.043  1.00  0.00     0.241 C 
HETATM    8  N   UNL     1       5.940  31.339  60.273  1.00  0.00    -0.325 N 
HETATM    9  H   UNL     1       5.396  30.483  60.337  1.00  0.00     0.169 HD
HETATM   10  O   UNL     1       6.211  33.145  58.821  1.00  0.00    -0.271 OA
BRANCH   8  11
HETATM   11  C   UNL     1       6.358  31.896  61.507  1.00  0.00     0.046 A 
HETATM   12  C   UNL     1       5.350  32.441  62.340  1.00  0.00    -0.034 A 
HETATM   13  C   UNL     1       5.706  33.082  63.541  1.00  0.00     0.015 A 
HETATM   14  C   UNL     1       3.888  32.406  61.970  1.00  0.00     0.050 C 
HETATM   15  C   UNL     1       7.038  33.174  63.941  1.00  0.00    -0.061 A 
HETATM   16  C   UNL     1       7.424  33.892  65.199  1.00  0.00     0.048 C 
HETATM   17  C   UNL     1       8.019  32.576  63.146  1.00  0.00     0.015 A 
HETATM   18  C   UNL     1       7.695  31.902  61.952  1.00  0.00    -0.034 A 
HETATM   19  C   UNL     1       8.824  31.176  61.271  1.00  0.00     0.050 C 
ENDBRANCH   8  11
ENDBRANCH   6   7
ENDBRANCH   1   6
BRANCH   5  20
HETATM   20  N   UNL     1       5.445  30.349  55.013  1.00  0.00    -0.382 N 
HETATM   21  H   UNL     1       5.629  31.250  54.563  1.00  0.00     0.157 HD
HETATM   22  H   UNL     1       4.469  30.070  54.948  1.00  0.00     0.157 HD
ENDBRANCH   5  20
BRANCH   4  23
HETATM   23  C   UNL     1       7.913  28.312  54.821  1.00  0.00     0.275 C 
HETATM   24  N   UNL     1       7.206  27.171  54.536  1.00  0.00    -0.351 N 
HETATM   25  H   UNL     1       6.438  26.925  55.154  1.00  0.00     0.163 HD
HETATM   26  O   UNL     1       8.895  28.677  54.181  1.00  0.00    -0.266 OA
BRANCH  24  27
HETATM   27  C   UNL     1       7.515  26.310  53.425  1.00  0.00     0.161 C 
BRANCH  27  28
HETATM   28  C   UNL     1       7.522  24.876  53.882  1.00  0.00    -0.040 A 
HETATM   29  C   UNL     1       7.251  24.568  55.222  1.00  0.00     0.011 A 
HETATM   30  C   UNL     1       7.335  23.251  55.676  1.00  0.00     0.037 A 
HETATM   31  C   UNL     1       7.694  22.221  54.805  1.00  0.00     0.068 A 
HETATM   32  C   UNL     1       7.949  22.517  53.466  1.00  0.00     0.037 A 
HETATM   33  C   UNL     1       7.868  23.838  53.008  1.00  0.00     0.011 A 
BRANCH  31  34
HETATM   34  O   UNL     1       7.760  20.983  55.383  1.00  0.00    -0.356 OA
HETATM   35  C   UNL     1       8.429  20.895  56.635  1.00  0.00     0.210 C 
ENDBRANCH  31  34
ENDBRANCH  27  28
ENDBRANCH  24  27
ENDBRANCH   4  23
TORSDOF 8
ENDMDL
MODEL 7
REMARK VINA RESULT:      -9.0      5.856      9.909
REMARK  8 active torsions:
REMARK  status: ('A' for Active; 'I' for Inactive)
REMARK    1  A    between atoms: C_6  and  N_7 
REMARK       I    between atoms: N_7  and  C_8 
REMARK    2  A    between atoms: C_8  and  C_9 
REMARK    3  A    between atoms: C_9  and  N_10 
REMARK    4  A    between atoms: C_13  and  C_14 
REMARK       I    between atoms: C_14  and  N_15 
REMARK    5  A    between atoms: N_15  and  C_16 
REMARK    6  A    between atoms: C_16  and  C_17 
REMARK    7  A    between atoms: C_20  and  O_21 
REMARK    8  A    between atoms: C_26  and  N_27 
ROOT
HETATM    1  N   UNL     1       5.402  27.994  54.849  1.00  0.00    -0.248 N 
HETATM    2  N   UNL     1       4.063  28.171  54.874  1.00  0.00     0.007 NA
HETATM    3  N   UNL     1       3.725  28.773  53.745  1.00  0.00    -0.150 NA
HETATM    4  C   UNL     1       4.870  28.991  53.006  1.00  0.00     0.186 A 
HETATM    5  C   UNL     1       5.960  28.487  53.698  1.00  0.00     0.151 A 
ENDROOT
BRANCH   1   6
HETATM    6  C   UNL     1       6.045  27.387  55.989  1.00  0.00     0.251 C 
BRANCH   6   7
HETATM    7  C   UNL     1       6.231  25.897  55.805  1.00  0.00     0.241 C 
HETATM    8  N   UNL     1       7.385  25.552  55.117  1.00  0.00    -0.325 N 
HETATM    9  H   UNL     1       7.873  26.324  54.674  1.00  0.00     0.169 HD
HETATM   10  O   UNL     1       5.335  25.130  56.149  1.00  0.00    -0.271 OA
BRANCH   8  11
HETATM   11  C   UNL     1       7.762  24.256  54.687  1.00  0.00     0.046 A 
HETATM   12  C   UNL     1       7.720  24.004  53.293  1.00  0.00    -0.034 A 
HETATM   13  C   UNL     1       8.005  22.715  52.805  1.00  0.00     0.015 A 
HETATM   14  C   UNL     1       7.333  25.063  52.291  1.00  0.00     0.050 C 
HETATM   15  C   UNL     1       8.350  21.678  53.670  1.00  0.00    -0.061 A 
HETATM   16  C   UNL     1       8.613  20.294  53.159  1.00  0.00     0.048 C 
HETATM   17  C   UNL     1       8.453  21.951  55.036  1.00  0.00     0.015 A 
HETATM   18  C   UNL     1       8.202  23.237  55.555  1.00  0.00    -0.034 A 
HETATM   19  C   UNL     1       8.495  23.432  57.020  1.00  0.00     0.050 C 
ENDBRANCH   8  11
ENDBRANCH   6   7
ENDBRANCH   1   6
BRANCH   5  20
HETATM   20  N   UNL     1       7.282  28.455  53.420  1.00  0.00    -0.382 N 
HETATM   21  H   UNL     1       7.792  27.578  53.565  1.00  0.00     0.157 HD
HETATM   22  H   UNL     1       7.889  29.270  53.441  1.00  0.00     0.157 HD
ENDBRANCH   5  20
BRANCH   4  23
HETATM   23  C   UNL     1       4.851  29.662  51.714  1.00  0.00     0.275 C 
HETATM   24  N   UNL     1       3.589  30.042  51.329  1.00  0.00    -0.351 N 
HETATM   25  H   UNL     1       2.813  29.775  51.927  1.00  0.00     0.163 HD
HETATM   26  O   UNL     1       5.856  29.876  51.043  1.00  0.00    -0.266 OA
BRANCH  24  27
HETATM   27  C   UNL     1       3.323  30.775  50.119  1.00  0.00     0.161 C 
BRANCH  27  28
HETATM   28  C   UNL     1       2.650  29.873  49.118  1.00  0.00    -0.040 A 
HETATM   29  C   UNL     1       1.961  28.734  49.556  1.00  0.00     0.011 A 
HETATM   30  C   UNL     1       1.404  27.846  48.634  1.00  0.00     0.037 A 
HETATM   31  C   UNL     1       1.528  28.076  47.263  1.00  0.00     0.068 A 
HETATM   32  C   UNL     1       2.198  29.216  46.820  1.00  0.00     0.037 A 
HETATM   33  C   UNL     1       2.761  30.107  47.742  1.00  0.00     0.011 A 
BRANCH  31  34
HETATM   34  O   UNL     1       0.956  27.119  46.471  1.00  0.00    -0.356 OA
HETATM   35  C   UNL     1      -0.212  27.496  45.753  1.00  0.00     0.210 C 
ENDBRANCH  31  34
ENDBRANCH  27  28
ENDBRANCH  24  27
ENDBRANCH   4  23
TORSDOF 8
ENDMDL
MODEL 8
REMARK VINA RESULT:      -8.9      2.489     10.190
REMARK  8 active torsions:
REMARK  status: ('A' for Active; 'I' for Inactive)
REMARK    1  A    between atoms: C_6  and  N_7 
REMARK       I    between atoms: N_7  and  C_8 
REMARK    2  A    between atoms: C_8  and  C_9 
REMARK    3  A    between atoms: C_9  and  N_10 
REMARK    4  A    between atoms: C_13  and  C_14 
REMARK       I    between atoms: C_14  and  N_15 
REMARK    5  A    between atoms: N_15  and  C_16 
REMARK    6  A    between atoms: C_16  and  C_17 
REMARK    7  A    between atoms: C_20  and  O_21 
REMARK    8  A    between atoms: C_26  and  N_27 
ROOT
HETATM    1  N   UNL     1       5.387  30.084  55.426  1.00  0.00    -0.248 N 
HETATM    2  N   UNL     1       6.560  29.632  55.921  1.00  0.00     0.007 NA
HETATM    3  N   UNL     1       6.927  28.598  55.181  1.00  0.00    -0.150 NA
HETATM    4  C   UNL     1       5.963  28.389  54.215  1.00  0.00     0.186 A 
HETATM    5  C   UNL     1       4.968  29.343  54.351  1.00  0.00     0.151 A 
ENDROOT
BRANCH   1   6
HETATM    6  C   UNL     1       4.739  31.195  56.079  1.00  0.00     0.251 C 
BRANCH   6   7
HETATM    7  C   UNL     1       4.930  31.159  57.579  1.00  0.00     0.241 C 
HETATM    8  N   UNL     1       6.006  31.909  58.031  1.00  0.00    -0.325 N 
HETATM    9  H   UNL     1       6.632  32.249  57.307  1.00  0.00     0.169 HD
HETATM   10  O   UNL     1       4.234  30.408  58.258  1.00  0.00    -0.271 OA
BRANCH   8  11
HETATM   11  C   UNL     1       6.505  31.968  59.355  1.00  0.00     0.046 A 
HETATM   12  C   UNL     1       5.855  32.855  60.249  1.00  0.00    -0.034 A 
HETATM   13  C   UNL     1       6.351  33.021  61.555  1.00  0.00     0.015 A 
HETATM   14  C   UNL     1       4.659  33.680  59.842  1.00  0.00     0.050 C 
HETATM   15  C   UNL     1       7.464  32.310  61.998  1.00  0.00    -0.061 A 
HETATM   16  C   UNL     1       8.020  32.515  63.375  1.00  0.00     0.048 C 
HETATM   17  C   UNL     1       8.060  31.390  61.132  1.00  0.00     0.015 A 
HETATM   18  C   UNL     1       7.572  31.178  59.827  1.00  0.00    -0.034 A 
HETATM   19  C   UNL     1       8.209  30.054  59.053  1.00  0.00     0.050 C 
ENDBRANCH   8  11
ENDBRANCH   6   7
ENDBRANCH   1   6
BRANCH   5  20
HETATM   20  N   UNL     1       3.821  29.569  53.674  1.00  0.00    -0.382 N 
HETATM   21  H   UNL     1       3.650  29.047  52.810  1.00  0.00     0.157 HD
HETATM   22  H   UNL     1       3.296  30.438  53.717  1.00  0.00     0.157 HD
ENDBRANCH   5  20
BRANCH   4  23
HETATM   23  C   UNL     1       6.050  27.305  53.245  1.00  0.00     0.275 C 
HETATM   24  N   UNL     1       7.250  26.639  53.296  1.00  0.00    -0.351 N 
HETATM   25  H   UNL     1       7.957  26.990  53.935  1.00  0.00     0.163 HD
HETATM   26  O   UNL     1       5.144  27.010  52.472  1.00  0.00    -0.266 OA
BRANCH  24  27
HETATM   27  C   UNL     1       7.549  25.493  52.478  1.00  0.00     0.161 C 
BRANCH  27  28
HETATM   28  C   UNL     1       7.658  24.267  53.345  1.00  0.00    -0.040 A 
HETATM   29  C   UNL     1       7.886  23.015  52.760  1.00  0.00     0.011 A 
HETATM   30  C   UNL     1       7.908  21.861  53.544  1.00  0.00     0.037 A 
HETATM   31  C   UNL     1       7.697  21.934  54.922  1.00  0.00     0.068 A 
HETATM   32  C   UNL     1       7.486  23.179  55.514  1.00  0.00     0.037 A 
HETATM   33  C   UNL     1       7.461  24.339  54.730  1.00  0.00     0.011 A 
BRANCH  31  34
HETATM   34  O   UNL     1       7.723  20.728  55.567  1.00  0.00    -0.356 OA
HETATM   35  C   UNL     1       8.484  20.660  56.766  1.00  0.00     0.210 C 
ENDBRANCH  31  34
ENDBRANCH  27  28
ENDBRANCH  24  27
ENDBRANCH   4  23
TORSDOF 8
ENDMDL
MODEL 9
REMARK VINA RESULT:      -8.9      1.983      2.973
REMARK  8 active torsions:
REMARK  status: ('A' for Active; 'I' for Inactive)
REMARK    1  A    between atoms: C_6  and  N_7 
REMARK       I    between atoms: N_7  and  C_8 
REMARK    2  A    between atoms: C_8  and  C_9 
REMARK    3  A    between atoms: C_9  and  N_10 
REMARK    4  A    between atoms: C_13  and  C_14 
REMARK       I    between atoms: C_14  and  N_15 
REMARK    5  A    between atoms: N_15  and  C_16 
REMARK    6  A    between atoms: C_16  and  C_17 
REMARK    7  A    between atoms: C_20  and  O_21 
REMARK    8  A    between atoms: C_26  and  N_27 
ROOT
HETATM    1  N   UNL     1       6.243  28.731  55.167  1.00  0.00    -0.248 N 
HETATM    2  N   UNL     1       6.874  28.513  56.341  1.00  0.00     0.007 NA
HETATM    3  N   UNL     1       6.544  29.502  57.155  1.00  0.00    -0.150 NA
HETATM    4  C   UNL     1       5.704  30.363  56.478  1.00  0.00     0.186 A 
HETATM    5  C   UNL     1       5.491  29.878  55.199  1.00  0.00     0.151 A 
ENDROOT
BRANCH   1   6
HETATM    6  C   UNL     1       6.462  27.812  54.077  1.00  0.00     0.251 C 
BRANCH   6   7
HETATM    7  C   UNL     1       6.404  26.371  54.534  1.00  0.00     0.241 C 
HETATM    8  N   UNL     1       7.647  25.798  54.758  1.00  0.00    -0.325 N 
HETATM    9  H   UNL     1       8.440  26.341  54.430  1.00  0.00     0.169 HD
HETATM   10  O   UNL     1       5.322  25.789  54.560  1.00  0.00    -0.271 OA
BRANCH   8  11
HETATM   11  C   UNL     1       7.915  24.441  55.067  1.00  0.00     0.046 A 
HETATM   12  C   UNL     1       8.037  24.107  56.439  1.00  0.00    -0.034 A 
HETATM   13  C   UNL     1       8.382  22.795  56.812  1.00  0.00     0.015 A 
HETATM   14  C   UNL     1       7.856  25.125  57.538  1.00  0.00     0.050 C 
HETATM   15  C   UNL     1       8.587  21.805  55.854  1.00  0.00    -0.061 A 
HETATM   16  C   UNL     1       8.994  20.417  56.246  1.00  0.00     0.048 C 
HETATM   17  C   UNL     1       8.400  22.126  54.508  1.00  0.00     0.015 A 
HETATM   18  C   UNL     1       8.027  23.423  54.101  1.00  0.00    -0.034 A 
HETATM   19  C   UNL     1       7.712  23.596  52.638  1.00  0.00     0.050 C 
ENDBRANCH   8  11
ENDBRANCH   6   7
ENDBRANCH   1   6
BRANCH   5  20
HETATM   20  N   UNL     1       4.768  30.341  54.154  1.00  0.00    -0.382 N 
HETATM   21  H   UNL     1       4.074  31.075  54.325  1.00  0.00     0.157 HD
HETATM   22  H   UNL     1       4.572  29.803  53.314  1.00  0.00     0.157 HD
ENDBRANCH   5  20
BRANCH   4  23
HETATM   23  C   UNL     1       5.174  31.577  57.085  1.00  0.00     0.275 C 
HETATM   24  N   UNL     1       5.636  31.780  58.361  1.00  0.00    -0.351 N 
HETATM   25  H   UNL     1       6.229  31.064  58.768  1.00  0.00     0.163 HD
HETATM   26  O   UNL     1       4.405  32.343  56.513  1.00  0.00    -0.266 OA
BRANCH  24  27
HETATM   27  C   UNL     1       5.302  32.942  59.143  1.00  0.00     0.161 C 
BRANCH  27  28
HETATM   28  C   UNL     1       5.987  32.866  60.481  1.00  0.00    -0.040 A 
HETATM   29  C   UNL     1       5.602  33.730  61.514  1.00  0.00     0.011 A 
HETATM   30  C   UNL     1       6.284  33.726  62.732  1.00  0.00     0.037 A 
HETATM   31  C   UNL     1       7.363  32.864  62.939  1.00  0.00     0.068 A 
HETATM   32  C   UNL     1       7.741  31.989  61.921  1.00  0.00     0.037 A 
HETATM   33  C   UNL     1       7.061  31.993  60.697  1.00  0.00     0.011 A 
BRANCH  31  34
HETATM   34  O   UNL     1       7.955  32.977  64.167  1.00  0.00    -0.356 OA
HETATM   35  C   UNL     1       7.166  33.535  65.209  1.00  0.00     0.210 C 
ENDBRANCH  31  34
ENDBRANCH  27  28
ENDBRANCH  24  27
ENDBRANCH   4  23
TORSDOF 8
ENDMDL
MODEL 10
REMARK VINA RESULT:      -8.9      2.022      3.559
REMARK  8 active torsions:
REMARK  status: ('A' for Active; 'I' for Inactive)
REMARK    1  A    between atoms: C_6  and  N_7 
REMARK       I    between atoms: N_7  and  C_8 
REMARK    2  A    between atoms: C_8  and  C_9 
REMARK    3  A    between atoms: C_9  and  N_10 
REMARK    4  A    between atoms: C_13  and  C_14 
REMARK       I    between atoms: C_14  and  N_15 
REMARK    5  A    between atoms: N_15  and  C_16 
REMARK    6  A    between atoms: C_16  and  C_17 
REMARK    7  A    between atoms: C_20  and  O_21 
REMARK    8  A    between atoms: C_26  and  N_27 
ROOT
HETATM    1  N   UNL     1       7.265  28.290  57.312  1.00  0.00    -0.248 N 
HETATM    2  N   UNL     1       8.561  27.910  57.284  1.00  0.00     0.007 NA
HETATM    3  N   UNL     1       9.255  28.830  57.934  1.00  0.00    -0.150 NA
HETATM    4  C   UNL     1       8.384  29.811  58.366  1.00  0.00     0.186 A 
HETATM    5  C   UNL     1       7.096  29.475  57.982  1.00  0.00     0.151 A 
ENDROOT
BRANCH   1   6
HETATM    6  C   UNL     1       6.286  27.475  56.635  1.00  0.00     0.251 C 
BRANCH   6   7
HETATM    7  C   UNL     1       6.214  27.790  55.158  1.00  0.00     0.241 C 
HETATM    8  N   UNL     1       5.191  27.134  54.488  1.00  0.00    -0.325 N 
HETATM    9  H   UNL     1       4.727  26.401  55.017  1.00  0.00     0.169 HD
HETATM   10  O   UNL     1       7.093  28.476  54.643  1.00  0.00    -0.271 OA
BRANCH   8  11
HETATM   11  C   UNL     1       4.953  27.132  53.092  1.00  0.00     0.046 A 
HETATM   12  C   UNL     1       5.351  25.976  52.374  1.00  0.00    -0.034 A 
HETATM   13  C   UNL     1       5.217  25.941  50.974  1.00  0.00     0.015 A 
HETATM   14  C   UNL     1       5.964  24.776  53.051  1.00  0.00     0.050 C 
HETATM   15  C   UNL     1       4.679  27.020  50.275  1.00  0.00    -0.061 A 
HETATM   16  C   UNL     1       4.574  27.003  48.780  1.00  0.00     0.048 C 
HETATM   17  C   UNL     1       4.229  28.128  50.996  1.00  0.00     0.015 A 
HETATM   18  C   UNL     1       4.322  28.185  52.401  1.00  0.00    -0.034 A 
HETATM   19  C   UNL     1       3.665  29.367  53.064  1.00  0.00     0.050 C 
ENDBRANCH   8  11
ENDBRANCH   6   7
ENDBRANCH   1   6
BRANCH   5  20
HETATM   20  N   UNL     1       5.904  30.090  58.147  1.00  0.00    -0.382 N 
HETATM   21  H   UNL     1       5.261  29.730  58.858  1.00  0.00     0.157 HD
HETATM   22  H   UNL     1       5.429  30.617  57.419  1.00  0.00     0.157 HD
ENDBRANCH   5  20
BRANCH   4  23
HETATM   23  C   UNL     1       8.832  30.988  59.097  1.00  0.00     0.275 C 
HETATM   24  N   UNL     1       8.589  30.902  60.445  1.00  0.00    -0.351 N 
HETATM   25  H   UNL     1       8.086  30.088  60.783  1.00  0.00     0.163 HD
HETATM   26  O   UNL     1       9.378  31.951  58.567  1.00  0.00    -0.266 OA
BRANCH  24  27
HETATM   27  C   UNL     1       8.997  31.915  61.384  1.00  0.00     0.161 C 
BRANCH  27  28
HETATM   28  C   UNL     1       7.815  32.342  62.212  1.00  0.00    -0.040 A 
HETATM   29  C   UNL     1       7.995  32.701  63.555  1.00  0.00     0.011 A 
HETATM   30  C   UNL     1       6.897  33.019  64.355  1.00  0.00     0.037 A 
HETATM   31  C   UNL     1       5.603  32.982  63.834  1.00  0.00     0.068 A 
HETATM   32  C   UNL     1       5.417  32.642  62.494  1.00  0.00     0.037 A 
HETATM   33  C   UNL     1       6.516  32.319  61.688  1.00  0.00     0.011 A 
BRANCH  31  34
HETATM   34  O   UNL     1       4.618  33.295  64.730  1.00  0.00    -0.356 OA
HETATM   35  C   UNL     1       3.616  34.202  64.289  1.00  0.00     0.210 C 
ENDBRANCH  31  34
ENDBRANCH  27  28
ENDBRANCH  24  27
ENDBRANCH   4  23
TORSDOF 8
ENDMDL
