MODEL 1
REMARK VINA RESULT:      -8.3      0.000      0.000
REMARK  9 active torsions:
REMARK  status: ('A' for Active; 'I' for Inactive)
REMARK    1  A    between atoms: C_6  and  C_7 
REMARK    2  A    between atoms: C_7  and  C_8 
REMARK       I    between atoms: C_8  and  N_9 
REMARK    3  A    between atoms: N_9  and  C_10 
REMARK    4  A    between atoms: C_10  and  C_11 
REMARK    5  A    between atoms: C_11  and  N_12 
REMARK    6  A    between atoms: C_19  and  C_20 
REMARK    7  A    between atoms: C_29  and  C_30 
REMARK    8  A    between atoms: C_30  and  O_31 
REMARK    9  A    between atoms: O_31  and  C_32 
ROOT
HETATM    1  C   UNL     1       6.110  28.597  52.462  1.00  0.00     0.071 C 
HETATM    2  C   UNL     1       6.678  28.206  53.805  1.00  0.00     0.048 C 
HETATM    3  N   UNL     1       8.061  28.349  53.899  1.00  0.00    -0.229 NA
HETATM    4  C   UNL     1       8.517  28.567  55.086  1.00  0.00     0.170 C 
HETATM    5  N   UNL     1       7.613  28.500  56.339  1.00  0.00    -0.318 N 
HETATM    6  C   UNL     1       7.883  29.484  57.127  1.00  0.00     0.011 C 
HETATM    7  C   UNL     1       6.557  27.472  56.172  1.00  0.00     0.168 C 
HETATM    8  S   UNL     1      10.038  29.283  55.472  1.00  0.00    -0.086 SA
HETATM    9  C   UNL     1       9.252  30.115  56.910  1.00  0.00     0.135 C 
HETATM   10  C   UNL     1       5.922  27.846  54.869  1.00  0.00     0.069 C 
ENDROOT
BRANCH   6  11
HETATM   11  C   UNL     1       6.861  29.977  58.113  1.00  0.00     0.156 C 
BRANCH  11  12
HETATM   12  C   UNL     1       7.455  30.958  59.104  1.00  0.00     0.223 C 
HETATM   13  N   UNL     1       7.980  30.434  60.269  1.00  0.00    -0.359 N 
HETATM   14  H   UNL     1       7.825  29.456  60.501  1.00  0.00     0.162 HD
HETATM   15  O   UNL     1       7.387  32.163  58.895  1.00  0.00    -0.273 OA
BRANCH  13  16
HETATM   16  C   UNL     1       8.420  31.349  61.324  1.00  0.00     0.150 C 
BRANCH  16  17
HETATM   17  C   UNL     1       7.354  31.658  62.393  1.00  0.00     0.254 C 
BRANCH  17  18
HETATM   18  N   UNL     1       7.503  33.063  62.942  1.00  0.00    -0.070 N 
HETATM   19  H   UNL     1       8.376  33.475  62.579  1.00  0.00     0.279 HD
HETATM   20  C   UNL     1       7.564  33.138  64.464  1.00  0.00     0.235 C 
HETATM   21  C   UNL     1       6.227  33.724  64.864  1.00  0.00     0.029 C 
HETATM   22  C   UNL     1       5.965  34.733  63.767  1.00  0.00     0.029 C 
HETATM   23  C   UNL     1       6.370  33.994  62.507  1.00  0.00     0.235 C 
ENDBRANCH  17  18
ENDBRANCH  16  17
ENDBRANCH  13  16
ENDBRANCH  11  12
ENDBRANCH   6  11
BRANCH   7  24
HETATM   24  C   UNL     1       7.164  26.057  56.309  1.00  0.00    -0.009 A 
HETATM   25  C   UNL     1       6.826  24.925  55.530  1.00  0.00     0.042 A 
HETATM   26 CL   UNL     1       5.585  24.893  54.329  1.00  0.00    -0.084 Cl
HETATM   27  C   UNL     1       7.491  23.701  55.704  1.00  0.00     0.024 A 
HETATM   28  C   UNL     1       8.482  23.556  56.667  1.00  0.00     0.002 A 
HETATM   29  C   UNL     1       8.792  24.628  57.490  1.00  0.00     0.001 A 
HETATM   30  C   UNL     1       8.134  25.850  57.326  1.00  0.00     0.011 A 
ENDBRANCH   7  24
BRANCH  10  31
HETATM   31  C   UNL     1       4.473  28.127  54.949  1.00  0.00     0.294 C 
HETATM   32  O   UNL     1       3.733  27.958  53.992  1.00  0.00    -0.259 OA
BRANCH  31  33
HETATM   33  O   UNL     1       4.213  28.829  56.069  1.00  0.00    -0.313 OA
BRANCH  33  34
HETATM   34  C   UNL     1       3.632  30.139  55.901  1.00  0.00     0.124 C 
HETATM   35  C   UNL     1       3.196  30.685  57.253  1.00  0.00     0.040 C 
HETATM   36  C   UNL     1       4.700  31.020  55.266  1.00  0.00     0.040 C 
ENDBRANCH  33  34
ENDBRANCH  31  33
ENDBRANCH  10  31
TORSDOF 9
ENDMDL
MODEL 2
REMARK VINA RESULT:      -7.3      7.057     10.031
REMARK  9 active torsions:
REMARK  status: ('A' for Active; 'I' for Inactive)
REMARK    1  A    between atoms: C_6  and  C_7 
REMARK    2  A    between atoms: C_7  and  C_8 
REMARK       I    between atoms: C_8  and  N_9 
REMARK    3  A    between atoms: N_9  and  C_10 
REMARK    4  A    between atoms: C_10  and  C_11 
REMARK    5  A    between atoms: C_11  and  N_12 
REMARK    6  A    between atoms: C_19  and  C_20 
REMARK    7  A    between atoms: C_29  and  C_30 
REMARK    8  A    between atoms: C_30  and  O_31 
REMARK    9  A    between atoms: O_31  and  C_32 
ROOT
HETATM    1  C   UNL     1       0.555  29.933  49.913  1.00  0.00     0.071 C 
HETATM    2  C   UNL     1       2.056  29.987  50.062  1.00  0.00     0.048 C 
HETATM    3  N   UNL     1       2.486  30.408  51.319  1.00  0.00    -0.229 NA
HETATM    4  C   UNL     1       3.644  29.970  51.685  1.00  0.00     0.170 C 
HETATM    5  N   UNL     1       4.564  29.180  50.726  1.00  0.00    -0.318 N 
HETATM    6  C   UNL     1       5.090  28.180  51.348  1.00  0.00     0.011 C 
HETATM    7  C   UNL     1       4.404  29.656  49.330  1.00  0.00     0.168 C 
HETATM    8  S   UNL     1       4.220  29.863  53.306  1.00  0.00    -0.086 SA
HETATM    9  C   UNL     1       5.093  28.307  52.866  1.00  0.00     0.135 C 
HETATM   10  C   UNL     1       2.925  29.573  49.110  1.00  0.00     0.069 C 
ENDROOT
BRANCH   6  11
HETATM   11  C   UNL     1       5.576  26.978  50.589  1.00  0.00     0.156 C 
BRANCH  11  12
HETATM   12  C   UNL     1       5.865  25.806  51.507  1.00  0.00     0.223 C 
HETATM   13  N   UNL     1       7.192  25.489  51.723  1.00  0.00    -0.359 N 
HETATM   14  H   UNL     1       7.917  25.930  51.164  1.00  0.00     0.162 HD
HETATM   15  O   UNL     1       4.945  25.136  51.960  1.00  0.00    -0.273 OA
BRANCH  13  16
HETATM   16  C   UNL     1       7.519  24.274  52.471  1.00  0.00     0.150 C 
BRANCH  16  17
HETATM   17  C   UNL     1       7.707  24.484  53.986  1.00  0.00     0.254 C 
BRANCH  17  18
HETATM   18  N   UNL     1       8.446  23.325  54.625  1.00  0.00    -0.070 N 
HETATM   19  H   UNL     1       9.322  23.674  55.042  1.00  0.00     0.279 HD
HETATM   20  C   UNL     1       8.817  22.208  53.655  1.00  0.00     0.235 C 
HETATM   21  C   UNL     1       7.877  21.077  54.009  1.00  0.00     0.029 C 
HETATM   22  C   UNL     1       7.786  21.179  55.516  1.00  0.00     0.029 C 
HETATM   23  C   UNL     1       7.656  22.669  55.758  1.00  0.00     0.235 C 
ENDBRANCH  17  18
ENDBRANCH  16  17
ENDBRANCH  13  16
ENDBRANCH  11  12
ENDBRANCH   6  11
BRANCH   7  24
HETATM   24  C   UNL     1       5.092  31.029  49.154  1.00  0.00    -0.009 A 
HETATM   25  C   UNL     1       5.236  31.740  47.938  1.00  0.00     0.042 A 
HETATM   26 CL   UNL     1       4.746  31.150  46.391  1.00  0.00    -0.084 Cl
HETATM   27  C   UNL     1       5.827  33.013  47.909  1.00  0.00     0.024 A 
HETATM   28  C   UNL     1       6.316  33.601  49.069  1.00  0.00     0.002 A 
HETATM   29  C   UNL     1       6.248  32.904  50.265  1.00  0.00     0.001 A 
HETATM   30  C   UNL     1       5.663  31.635  50.305  1.00  0.00     0.011 A 
ENDBRANCH   7  24
BRANCH  10  31
HETATM   31  C   UNL     1       2.519  28.708  47.982  1.00  0.00     0.294 C 
HETATM   32  O   UNL     1       1.968  29.163  46.992  1.00  0.00    -0.259 OA
BRANCH  31  33
HETATM   33  O   UNL     1       2.587  27.417  48.359  1.00  0.00    -0.313 OA
BRANCH  33  34
HETATM   34  C   UNL     1       3.203  26.496  47.434  1.00  0.00     0.124 C 
HETATM   35  C   UNL     1       4.696  26.777  47.348  1.00  0.00     0.040 C 
HETATM   36  C   UNL     1       2.933  25.092  47.960  1.00  0.00     0.040 C 
ENDBRANCH  33  34
ENDBRANCH  31  33
ENDBRANCH  10  31
TORSDOF 9
ENDMDL
MODEL 3
REMARK VINA RESULT:      -7.2      5.542      8.100
REMARK  9 active torsions:
REMARK  status: ('A' for Active; 'I' for Inactive)
REMARK    1  A    between atoms: C_6  and  C_7 
REMARK    2  A    between atoms: C_7  and  C_8 
REMARK       I    between atoms: C_8  and  N_9 
REMARK    3  A    between atoms: N_9  and  C_10 
REMARK    4  A    between atoms: C_10  and  C_11 
REMARK    5  A    between atoms: C_11  and  N_12 
REMARK    6  A    between atoms: C_19  and  C_20 
REMARK    7  A    between atoms: C_29  and  C_30 
REMARK    8  A    between atoms: C_30  and  O_31 
REMARK    9  A    between atoms: O_31  and  C_32 
ROOT
HETATM    1  C   UNL     1       4.647  31.140  62.718  1.00  0.00     0.071 C 
HETATM    2  C   UNL     1       4.505  32.188  61.642  1.00  0.00     0.048 C 
HETATM    3  N   UNL     1       3.184  32.475  61.301  1.00  0.00    -0.229 NA
HETATM    4  C   UNL     1       2.975  33.663  60.843  1.00  0.00     0.170 C 
HETATM    5  N   UNL     1       4.133  34.639  60.530  1.00  0.00    -0.318 N 
HETATM    6  C   UNL     1       3.836  35.821  60.952  1.00  0.00     0.011 C 
HETATM    7  C   UNL     1       5.327  33.902  60.047  1.00  0.00     0.168 C 
HETATM    8  S   UNL     1       1.462  34.490  60.825  1.00  0.00    -0.086 SA
HETATM    9  C   UNL     1       2.348  36.064  61.163  1.00  0.00     0.135 C 
HETATM   10  C   UNL     1       5.546  32.874  61.113  1.00  0.00     0.069 C 
ENDROOT
BRANCH   6  11
HETATM   11  C   UNL     1       4.919  36.815  61.265  1.00  0.00     0.156 C 
BRANCH  11  12
HETATM   12  C   UNL     1       5.345  36.752  62.718  1.00  0.00     0.223 C 
HETATM   13  N   UNL     1       4.969  35.633  63.435  1.00  0.00    -0.359 N 
HETATM   14  H   UNL     1       4.309  34.971  63.036  1.00  0.00     0.162 HD
HETATM   15  O   UNL     1       5.927  37.700  63.232  1.00  0.00    -0.273 OA
BRANCH  13  16
HETATM   16  C   UNL     1       5.220  35.597  64.877  1.00  0.00     0.150 C 
BRANCH  16  17
HETATM   17  C   UNL     1       4.356  34.583  65.654  1.00  0.00     0.254 C 
BRANCH  17  18
HETATM   18  N   UNL     1       5.174  33.819  66.676  1.00  0.00    -0.070 N 
HETATM   19  H   UNL     1       5.114  32.810  66.468  1.00  0.00     0.279 HD
HETATM   20  C   UNL     1       4.716  34.013  68.118  1.00  0.00     0.235 C 
HETATM   21  C   UNL     1       5.788  34.884  68.736  1.00  0.00     0.029 C 
HETATM   22  C   UNL     1       7.054  34.362  68.093  1.00  0.00     0.029 C 
HETATM   23  C   UNL     1       6.659  34.182  66.640  1.00  0.00     0.235 C 
ENDBRANCH  17  18
ENDBRANCH  16  17
ENDBRANCH  13  16
ENDBRANCH  11  12
ENDBRANCH   6  11
BRANCH   7  24
HETATM   24  C   UNL     1       5.102  33.415  58.598  1.00  0.00    -0.009 A 
HETATM   25  C   UNL     1       4.767  34.226  57.487  1.00  0.00     0.042 A 
HETATM   26 CL   UNL     1       4.448  35.921  57.570  1.00  0.00    -0.084 Cl
HETATM   27  C   UNL     1       4.648  33.679  56.201  1.00  0.00     0.024 A 
HETATM   28  C   UNL     1       4.827  32.318  55.982  1.00  0.00     0.002 A 
HETATM   29  C   UNL     1       5.093  31.487  57.059  1.00  0.00     0.001 A 
HETATM   30  C   UNL     1       5.212  32.021  58.345  1.00  0.00     0.011 A 
ENDBRANCH   7  24
BRANCH  10  31
HETATM   31  C   UNL     1       6.873  32.933  61.762  1.00  0.00     0.294 C 
HETATM   32  O   UNL     1       7.052  33.550  62.800  1.00  0.00    -0.259 OA
BRANCH  31  33
HETATM   33  O   UNL     1       7.811  32.481  60.907  1.00  0.00    -0.313 OA
BRANCH  33  34
HETATM   34  C   UNL     1       8.059  31.059  60.899  1.00  0.00     0.124 C 
HETATM   35  C   UNL     1       8.329  30.594  59.476  1.00  0.00     0.040 C 
HETATM   36  C   UNL     1       9.262  30.814  61.800  1.00  0.00     0.040 C 
ENDBRANCH  33  34
ENDBRANCH  31  33
ENDBRANCH  10  31
TORSDOF 9
ENDMDL
MODEL 4
REMARK VINA RESULT:      -7.2      4.033      5.904
REMARK  9 active torsions:
REMARK  status: ('A' for Active; 'I' for Inactive)
REMARK    1  A    between atoms: C_6  and  C_7 
REMARK    2  A    between atoms: C_7  and  C_8 
REMARK       I    between atoms: C_8  and  N_9 
REMARK    3  A    between atoms: N_9  and  C_10 
REMARK    4  A    between atoms: C_10  and  C_11 
REMARK    5  A    between atoms: C_11  and  N_12 
REMARK    6  A    between atoms: C_19  and  C_20 
REMARK    7  A    between atoms: C_29  and  C_30 
REMARK    8  A    between atoms: C_30  and  O_31 
REMARK    9  A    between atoms: O_31  and  C_32 
ROOT
HETATM    1  C   UNL     1       4.896  25.237  57.466  1.00  0.00     0.071 C 
HETATM    2  C   UNL     1       5.714  24.862  56.255  1.00  0.00     0.048 C 
HETATM    3  N   UNL     1       4.951  24.489  55.149  1.00  0.00    -0.229 NA
HETATM    4  C   UNL     1       5.503  24.691  54.000  1.00  0.00     0.170 C 
HETATM    5  N   UNL     1       6.973  25.151  53.864  1.00  0.00    -0.318 N 
HETATM    6  C   UNL     1       7.064  26.067  52.960  1.00  0.00     0.011 C 
HETATM    7  C   UNL     1       7.807  24.581  54.951  1.00  0.00     0.168 C 
HETATM    8  S   UNL     1       4.680  24.833  52.492  1.00  0.00    -0.086 SA
HETATM    9  C   UNL     1       5.906  26.100  51.972  1.00  0.00     0.135 C 
HETATM   10  C   UNL     1       7.062  24.971  56.190  1.00  0.00     0.069 C 
ENDROOT
BRANCH   6  11
HETATM   11  C   UNL     1       8.205  27.044  52.974  1.00  0.00     0.156 C 
BRANCH  11  12
HETATM   12  C   UNL     1       7.925  28.231  53.874  1.00  0.00     0.223 C 
HETATM   13  N   UNL     1       6.610  28.449  54.237  1.00  0.00    -0.359 N 
HETATM   14  H   UNL     1       5.865  27.923  53.788  1.00  0.00     0.162 HD
HETATM   15  O   UNL     1       8.831  28.996  54.186  1.00  0.00    -0.273 OA
BRANCH  13  16
HETATM   16  C   UNL     1       6.270  29.668  54.973  1.00  0.00     0.150 C 
BRANCH  16  17
HETATM   17  C   UNL     1       4.780  30.061  54.910  1.00  0.00     0.254 C 
BRANCH  17  18
HETATM   18  N   UNL     1       4.318  30.708  56.201  1.00  0.00    -0.070 N 
HETATM   19  H   UNL     1       4.360  30.012  56.960  1.00  0.00     0.279 HD
HETATM   20  C   UNL     1       2.891  31.246  56.156  1.00  0.00     0.235 C 
HETATM   21  C   UNL     1       3.060  32.749  56.115  1.00  0.00     0.029 C 
HETATM   22  C   UNL     1       4.245  32.977  57.028  1.00  0.00     0.029 C 
HETATM   23  C   UNL     1       5.208  31.875  56.631  1.00  0.00     0.235 C 
ENDBRANCH  17  18
ENDBRANCH  16  17
ENDBRANCH  13  16
ENDBRANCH  11  12
ENDBRANCH   6  11
BRANCH   7  24
HETATM   24  C   UNL     1       8.061  23.079  54.695  1.00  0.00    -0.009 A 
HETATM   25  C   UNL     1       8.251  22.083  55.684  1.00  0.00     0.042 A 
HETATM   26 CL   UNL     1       8.331  22.388  57.382  1.00  0.00    -0.084 Cl
HETATM   27  C   UNL     1       8.413  20.734  55.332  1.00  0.00     0.024 A 
HETATM   28  C   UNL     1       8.422  20.338  54.000  1.00  0.00     0.002 A 
HETATM   29  C   UNL     1       8.302  21.296  53.006  1.00  0.00     0.001 A 
HETATM   30  C   UNL     1       8.141  22.642  53.345  1.00  0.00     0.011 A 
ENDBRANCH   7  24
BRANCH  10  31
HETATM   31  C   UNL     1       7.843  25.783  57.147  1.00  0.00     0.294 C 
HETATM   32  O   UNL     1       8.214  25.330  58.218  1.00  0.00    -0.259 OA
BRANCH  31  33
HETATM   33  O   UNL     1       7.798  27.078  56.778  1.00  0.00    -0.313 OA
BRANCH  33  34
HETATM   34  C   UNL     1       8.244  28.051  57.747  1.00  0.00     0.124 C 
HETATM   35  C   UNL     1       9.455  28.796  57.205  1.00  0.00     0.040 C 
HETATM   36  C   UNL     1       7.077  28.997  57.995  1.00  0.00     0.040 C 
ENDBRANCH  33  34
ENDBRANCH  31  33
ENDBRANCH  10  31
TORSDOF 9
ENDMDL
MODEL 5
REMARK VINA RESULT:      -6.9      6.913      9.174
REMARK  9 active torsions:
REMARK  status: ('A' for Active; 'I' for Inactive)
REMARK    1  A    between atoms: C_6  and  C_7 
REMARK    2  A    between atoms: C_7  and  C_8 
REMARK       I    between atoms: C_8  and  N_9 
REMARK    3  A    between atoms: N_9  and  C_10 
REMARK    4  A    between atoms: C_10  and  C_11 
REMARK    5  A    between atoms: C_11  and  N_12 
REMARK    6  A    between atoms: C_19  and  C_20 
REMARK    7  A    between atoms: C_29  and  C_30 
REMARK    8  A    between atoms: C_30  and  O_31 
REMARK    9  A    between atoms: O_31  and  C_32 
ROOT
HETATM    1  C   UNL     1       5.656  27.692  47.284  1.00  0.00     0.071 C 
HETATM    2  C   UNL     1       5.210  28.221  48.625  1.00  0.00     0.048 C 
HETATM    3  N   UNL     1       5.911  29.348  49.051  1.00  0.00    -0.229 NA
HETATM    4  C   UNL     1       5.266  30.136  49.844  1.00  0.00     0.170 C 
HETATM    5  N   UNL     1       3.879  29.767  50.420  1.00  0.00    -0.318 N 
HETATM    6  C   UNL     1       3.099  30.793  50.372  1.00  0.00     0.011 C 
HETATM    7  C   UNL     1       3.774  28.305  50.647  1.00  0.00     0.168 C 
HETATM    8  S   UNL     1       5.619  31.800  50.126  1.00  0.00    -0.086 SA
HETATM    9  C   UNL     1       3.816  32.132  50.260  1.00  0.00     0.135 C 
HETATM   10  C   UNL     1       4.159  27.727  49.321  1.00  0.00     0.069 C 
ENDROOT
BRANCH   6  11
HETATM   11  C   UNL     1       1.606  30.618  50.356  1.00  0.00     0.156 C 
BRANCH  11  12
HETATM   12  C   UNL     1       0.878  31.939  50.510  1.00  0.00     0.223 C 
HETATM   13  N   UNL     1       0.585  32.349  51.796  1.00  0.00    -0.359 N 
HETATM   14  H   UNL     1       0.720  31.711  52.576  1.00  0.00     0.162 HD
HETATM   15  O   UNL     1       0.505  32.557  49.519  1.00  0.00    -0.273 OA
BRANCH  13  16
HETATM   16  C   UNL     1      -0.252  33.534  51.989  1.00  0.00     0.150 C 
BRANCH  16  17
HETATM   17  C   UNL     1      -1.763  33.245  52.082  1.00  0.00     0.254 C 
BRANCH  17  18
HETATM   18  N   UNL     1      -2.095  32.375  53.278  1.00  0.00    -0.070 N 
HETATM   19  H   UNL     1      -1.528  31.514  53.236  1.00  0.00     0.279 HD
HETATM   20  C   UNL     1      -3.558  31.952  53.359  1.00  0.00     0.235 C 
HETATM   21  C   UNL     1      -4.121  32.769  54.502  1.00  0.00     0.029 C 
HETATM   22  C   UNL     1      -2.974  32.797  55.489  1.00  0.00     0.029 C 
HETATM   23  C   UNL     1      -1.764  33.048  54.611  1.00  0.00     0.235 C 
ENDBRANCH  17  18
ENDBRANCH  16  17
ENDBRANCH  13  16
ENDBRANCH  11  12
ENDBRANCH   6  11
BRANCH   7  24
HETATM   24  C   UNL     1       4.600  27.899  51.888  1.00  0.00    -0.009 A 
HETATM   25  C   UNL     1       4.485  28.454  53.186  1.00  0.00     0.042 A 
HETATM   26 CL   UNL     1       3.453  29.774  53.601  1.00  0.00    -0.084 Cl
HETATM   27  C   UNL     1       5.248  27.960  54.255  1.00  0.00     0.024 A 
HETATM   28  C   UNL     1       6.162  26.931  54.067  1.00  0.00     0.002 A 
HETATM   29  C   UNL     1       6.345  26.409  52.796  1.00  0.00     0.001 A 
HETATM   30  C   UNL     1       5.591  26.894  51.724  1.00  0.00     0.011 A 
ENDBRANCH   7  24
BRANCH  10  31
HETATM   31  C   UNL     1       3.129  26.865  48.704  1.00  0.00     0.294 C 
HETATM   32  O   UNL     1       3.379  25.726  48.342  1.00  0.00    -0.259 OA
BRANCH  31  33
HETATM   33  O   UNL     1       2.059  27.613  48.370  1.00  0.00    -0.313 OA
BRANCH  33  34
HETATM   34  C   UNL     1       1.887  27.920  46.970  1.00  0.00     0.124 C 
HETATM   35  C   UNL     1       0.492  27.510  46.522  1.00  0.00     0.040 C 
HETATM   36  C   UNL     1       2.099  29.421  46.817  1.00  0.00     0.040 C 
ENDBRANCH  33  34
ENDBRANCH  31  33
ENDBRANCH  10  31
TORSDOF 9
ENDMDL
MODEL 6
REMARK VINA RESULT:      -6.9      6.227     10.029
REMARK  9 active torsions:
REMARK  status: ('A' for Active; 'I' for Inactive)
REMARK    1  A    between atoms: C_6  and  C_7 
REMARK    2  A    between atoms: C_7  and  C_8 
REMARK       I    between atoms: C_8  and  N_9 
REMARK    3  A    between atoms: N_9  and  C_10 
REMARK    4  A    between atoms: C_10  and  C_11 
REMARK    5  A    between atoms: C_11  and  N_12 
REMARK    6  A    between atoms: C_19  and  C_20 
REMARK    7  A    between atoms: C_29  and  C_30 
REMARK    8  A    between atoms: C_30  and  O_31 
REMARK    9  A    between atoms: O_31  and  C_32 
ROOT
HETATM    1  C   UNL     1       1.868  28.562  46.858  1.00  0.00     0.071 C 
HETATM    2  C   UNL     1       2.655  29.706  47.450  1.00  0.00     0.048 C 
HETATM    3  N   UNL     1       1.884  30.825  47.758  1.00  0.00    -0.229 NA
HETATM    4  C   UNL     1       2.337  31.565  48.714  1.00  0.00     0.170 C 
HETATM    5  N   UNL     1       3.725  31.325  49.352  1.00  0.00    -0.318 N 
HETATM    6  C   UNL     1       3.643  31.441  50.634  1.00  0.00     0.011 C 
HETATM    7  C   UNL     1       4.687  30.814  48.345  1.00  0.00     0.168 C 
HETATM    8  S   UNL     1       1.416  32.672  49.662  1.00  0.00    -0.086 SA
HETATM    9  C   UNL     1       2.435  32.227  51.125  1.00  0.00     0.135 C 
HETATM   10  C   UNL     1       3.972  29.637  47.758  1.00  0.00     0.069 C 
ENDROOT
BRANCH   6  11
HETATM   11  C   UNL     1       4.647  30.769  51.528  1.00  0.00     0.156 C 
BRANCH  11  12
HETATM   12  C   UNL     1       4.057  29.570  52.244  1.00  0.00     0.223 C 
HETATM   13  N   UNL     1       4.677  29.166  53.410  1.00  0.00    -0.359 N 
HETATM   14  H   UNL     1       5.573  29.567  53.674  1.00  0.00     0.162 HD
HETATM   15  O   UNL     1       3.121  28.954  51.747  1.00  0.00    -0.273 OA
BRANCH  13  16
HETATM   16  C   UNL     1       4.243  27.924  54.051  1.00  0.00     0.150 C 
BRANCH  16  17
HETATM   17  C   UNL     1       5.170  27.425  55.178  1.00  0.00     0.254 C 
BRANCH  17  18
HETATM   18  N   UNL     1       5.114  25.916  55.321  1.00  0.00    -0.070 N 
HETATM   19  H   UNL     1       4.161  25.592  55.097  1.00  0.00     0.279 HD
HETATM   20  C   UNL     1       5.450  25.407  56.719  1.00  0.00     0.235 C 
HETATM   21  C   UNL     1       6.821  24.783  56.570  1.00  0.00     0.029 C 
HETATM   22  C   UNL     1       6.749  24.141  55.202  1.00  0.00     0.029 C 
HETATM   23  C   UNL     1       6.057  25.194  54.358  1.00  0.00     0.235 C 
ENDBRANCH  17  18
ENDBRANCH  16  17
ENDBRANCH  13  16
ENDBRANCH  11  12
ENDBRANCH   6  11
BRANCH   7  24
HETATM   24  C   UNL     1       5.119  31.954  47.395  1.00  0.00    -0.009 A 
HETATM   25  C   UNL     1       5.778  33.149  47.772  1.00  0.00     0.042 A 
HETATM   26 CL   UNL     1       6.138  33.602  49.399  1.00  0.00    -0.084 Cl
HETATM   27  C   UNL     1       6.178  34.089  46.809  1.00  0.00     0.024 A 
HETATM   28  C   UNL     1       5.913  33.890  45.460  1.00  0.00     0.002 A 
HETATM   29  C   UNL     1       5.213  32.760  45.065  1.00  0.00     0.001 A 
HETATM   30  C   UNL     1       4.809  31.818  46.015  1.00  0.00     0.011 A 
ENDBRANCH   7  24
BRANCH  10  31
HETATM   31  C   UNL     1       4.696  28.354  47.881  1.00  0.00     0.294 C 
HETATM   32  O   UNL     1       5.334  27.887  46.951  1.00  0.00    -0.259 OA
BRANCH  31  33
HETATM   33  O   UNL     1       4.296  27.718  48.999  1.00  0.00    -0.313 OA
BRANCH  33  34
HETATM   34  C   UNL     1       4.649  26.324  49.122  1.00  0.00     0.124 C 
HETATM   35  C   UNL     1       4.910  25.988  50.583  1.00  0.00     0.040 C 
HETATM   36  C   UNL     1       3.479  25.520  48.570  1.00  0.00     0.040 C 
ENDBRANCH  33  34
ENDBRANCH  31  33
ENDBRANCH  10  31
TORSDOF 9
ENDMDL
MODEL 7
REMARK VINA RESULT:      -6.8      6.776     10.243
REMARK  9 active torsions:
REMARK  status: ('A' for Active; 'I' for Inactive)
REMARK    1  A    between atoms: C_6  and  C_7 
REMARK    2  A    between atoms: C_7  and  C_8 
REMARK       I    between atoms: C_8  and  N_9 
REMARK    3  A    between atoms: N_9  and  C_10 
REMARK    4  A    between atoms: C_10  and  C_11 
REMARK    5  A    between atoms: C_11  and  N_12 
REMARK    6  A    between atoms: C_19  and  C_20 
REMARK    7  A    between atoms: C_29  and  C_30 
REMARK    8  A    between atoms: C_30  and  O_31 
REMARK    9  A    between atoms: O_31  and  C_32 
ROOT
HETATM    1  C   UNL     1       4.996  32.034  46.845  1.00  0.00     0.071 C 
HETATM    2  C   UNL     1       4.110  30.927  47.362  1.00  0.00     0.048 C 
HETATM    3  N   UNL     1       4.466  29.657  46.909  1.00  0.00    -0.229 NA
HETATM    4  C   UNL     1       4.147  28.680  47.689  1.00  0.00     0.170 C 
HETATM    5  N   UNL     1       3.277  28.886  48.951  1.00  0.00    -0.318 N 
HETATM    6  C   UNL     1       3.765  28.208  49.934  1.00  0.00     0.011 C 
HETATM    7  C   UNL     1       2.281  29.964  48.734  1.00  0.00     0.168 C 
HETATM    8  S   UNL     1       4.866  27.113  47.695  1.00  0.00    -0.086 SA
HETATM    9  C   UNL     1       4.684  27.065  49.524  1.00  0.00     0.135 C 
HETATM   10  C   UNL     1       3.119  31.112  48.266  1.00  0.00     0.069 C 
ENDROOT
BRANCH   6  11
HETATM   11  C   UNL     1       3.476  28.605  51.354  1.00  0.00     0.156 C 
BRANCH  11  12
HETATM   12  C   UNL     1       4.520  28.075  52.316  1.00  0.00     0.223 C 
HETATM   13  N   UNL     1       4.212  26.918  53.004  1.00  0.00    -0.359 N 
HETATM   14  H   UNL     1       3.267  26.544  52.970  1.00  0.00     0.162 HD
HETATM   15  O   UNL     1       5.551  28.707  52.517  1.00  0.00    -0.273 OA
BRANCH  13  16
HETATM   16  C   UNL     1       5.118  26.455  54.056  1.00  0.00     0.150 C 
BRANCH  16  17
HETATM   17  C   UNL     1       5.570  24.988  53.915  1.00  0.00     0.254 C 
BRANCH  17  18
HETATM   18  N   UNL     1       7.080  24.861  53.957  1.00  0.00    -0.070 N 
HETATM   19  H   UNL     1       7.494  25.802  54.045  1.00  0.00     0.279 HD
HETATM   20  C   UNL     1       7.689  24.212  52.718  1.00  0.00     0.235 C 
HETATM   21  C   UNL     1       8.119  22.839  53.189  1.00  0.00     0.029 C 
HETATM   22  C   UNL     1       8.617  23.109  54.592  1.00  0.00     0.029 C 
HETATM   23  C   UNL     1       7.575  24.053  55.157  1.00  0.00     0.235 C 
ENDBRANCH  17  18
ENDBRANCH  16  17
ENDBRANCH  13  16
ENDBRANCH  11  12
ENDBRANCH   6  11
BRANCH   7  24
HETATM   24  C   UNL     1       1.147  29.463  47.812  1.00  0.00    -0.009 A 
HETATM   25  C   UNL     1       0.130  30.259  47.231  1.00  0.00     0.042 A 
HETATM   26 CL   UNL     1      -0.089  31.945  47.531  1.00  0.00    -0.084 Cl
HETATM   27  C   UNL     1      -0.814  29.702  46.355  1.00  0.00     0.024 A 
HETATM   28  C   UNL     1      -0.799  28.345  46.054  1.00  0.00     0.002 A 
HETATM   29  C   UNL     1       0.145  27.527  46.656  1.00  0.00     0.001 A 
HETATM   30  C   UNL     1       1.089  28.071  47.531  1.00  0.00     0.011 A 
ENDBRANCH   7  24
BRANCH  10  31
HETATM   31  C   UNL     1       3.019  32.328  49.101  1.00  0.00     0.294 C 
HETATM   32  O   UNL     1       2.904  33.437  48.607  1.00  0.00    -0.259 OA
BRANCH  31  33
HETATM   33  O   UNL     1       3.361  32.029  50.370  1.00  0.00    -0.313 OA
BRANCH  33  34
HETATM   34  C   UNL     1       4.380  32.847  50.984  1.00  0.00     0.124 C 
HETATM   35  C   UNL     1       4.239  32.792  52.497  1.00  0.00     0.040 C 
HETATM   36  C   UNL     1       5.724  32.293  50.532  1.00  0.00     0.040 C 
ENDBRANCH  33  34
ENDBRANCH  31  33
ENDBRANCH  10  31
TORSDOF 9
ENDMDL
MODEL 8
REMARK VINA RESULT:      -6.6      4.225      6.155
REMARK  9 active torsions:
REMARK  status: ('A' for Active; 'I' for Inactive)
REMARK    1  A    between atoms: C_6  and  C_7 
REMARK    2  A    between atoms: C_7  and  C_8 
REMARK       I    between atoms: C_8  and  N_9 
REMARK    3  A    between atoms: N_9  and  C_10 
REMARK    4  A    between atoms: C_10  and  C_11 
REMARK    5  A    between atoms: C_11  and  N_12 
REMARK    6  A    between atoms: C_19  and  C_20 
REMARK    7  A    between atoms: C_29  and  C_30 
REMARK    8  A    between atoms: C_30  and  O_31 
REMARK    9  A    between atoms: O_31  and  C_32 
ROOT
HETATM    1  C   UNL     1       4.748  25.563  57.677  1.00  0.00     0.071 C 
HETATM    2  C   UNL     1       5.507  25.404  56.383  1.00  0.00     0.048 C 
HETATM    3  N   UNL     1       4.793  24.744  55.384  1.00  0.00    -0.229 NA
HETATM    4  C   UNL     1       5.122  25.047  54.174  1.00  0.00     0.170 C 
HETATM    5  N   UNL     1       6.339  25.946  53.853  1.00  0.00    -0.318 N 
HETATM    6  C   UNL     1       6.029  26.790  52.929  1.00  0.00     0.011 C 
HETATM    7  C   UNL     1       7.424  25.736  54.843  1.00  0.00     0.168 C 
HETATM    8  S   UNL     1       4.140  24.832  52.773  1.00  0.00    -0.086 SA
HETATM    9  C   UNL     1       4.824  26.393  52.086  1.00  0.00     0.135 C 
HETATM   10  C   UNL     1       6.732  25.935  56.155  1.00  0.00     0.069 C 
ENDROOT
BRANCH   6  11
HETATM   11  C   UNL     1       6.784  28.081  52.787  1.00  0.00     0.156 C 
BRANCH  11  12
HETATM   12  C   UNL     1       5.954  29.153  52.109  1.00  0.00     0.223 C 
HETATM   13  N   UNL     1       4.982  29.772  52.870  1.00  0.00    -0.359 N 
HETATM   14  H   UNL     1       4.746  29.405  53.789  1.00  0.00     0.162 HD
HETATM   15  O   UNL     1       6.104  29.385  50.915  1.00  0.00    -0.273 OA
BRANCH  13  16
HETATM   16  C   UNL     1       4.054  30.698  52.220  1.00  0.00     0.150 C 
BRANCH  16  17
HETATM   17  C   UNL     1       3.744  31.972  53.031  1.00  0.00     0.254 C 
BRANCH  17  18
HETATM   18  N   UNL     1       3.858  31.727  54.523  1.00  0.00    -0.070 N 
HETATM   19  H   UNL     1       4.199  30.767  54.681  1.00  0.00     0.279 HD
HETATM   20  C   UNL     1       2.544  31.874  55.284  1.00  0.00     0.235 C 
HETATM   21  C   UNL     1       2.699  33.170  56.050  1.00  0.00     0.029 C 
HETATM   22  C   UNL     1       4.157  33.146  56.455  1.00  0.00     0.029 C 
HETATM   23  C   UNL     1       4.860  32.662  55.203  1.00  0.00     0.235 C 
ENDBRANCH  17  18
ENDBRANCH  16  17
ENDBRANCH  13  16
ENDBRANCH  11  12
ENDBRANCH   6  11
BRANCH   7  24
HETATM   24  C   UNL     1       8.125  24.383  54.585  1.00  0.00    -0.009 A 
HETATM   25  C   UNL     1       8.901  23.654  55.518  1.00  0.00     0.042 A 
HETATM   26 CL   UNL     1       9.294  24.200  57.109  1.00  0.00    -0.084 Cl
HETATM   27  C   UNL     1       9.440  22.400  55.190  1.00  0.00     0.024 A 
HETATM   28  C   UNL     1       9.252  21.849  53.928  1.00  0.00     0.002 A 
HETATM   29  C   UNL     1       8.550  22.566  52.971  1.00  0.00     0.001 A 
HETATM   30  C   UNL     1       8.011  23.816  53.287  1.00  0.00     0.011 A 
ENDBRANCH   7  24
BRANCH  10  31
HETATM   31  C   UNL     1       7.304  27.008  56.996  1.00  0.00     0.294 C 
HETATM   32  O   UNL     1       7.796  26.772  58.088  1.00  0.00    -0.259 OA
BRANCH  31  33
HETATM   33  O   UNL     1       6.931  28.207  56.509  1.00  0.00    -0.313 OA
BRANCH  33  34
HETATM   34  C   UNL     1       6.053  29.004  57.332  1.00  0.00     0.124 C 
HETATM   35  C   UNL     1       6.666  30.379  57.553  1.00  0.00     0.040 C 
HETATM   36  C   UNL     1       4.724  29.102  56.596  1.00  0.00     0.040 C 
ENDBRANCH  33  34
ENDBRANCH  31  33
ENDBRANCH  10  31
TORSDOF 9
ENDMDL
MODEL 9
REMARK VINA RESULT:      -6.6      4.501      7.813
REMARK  9 active torsions:
REMARK  status: ('A' for Active; 'I' for Inactive)
REMARK    1  A    between atoms: C_6  and  C_7 
REMARK    2  A    between atoms: C_7  and  C_8 
REMARK       I    between atoms: C_8  and  N_9 
REMARK    3  A    between atoms: N_9  and  C_10 
REMARK    4  A    between atoms: C_10  and  C_11 
REMARK    5  A    between atoms: C_11  and  N_12 
REMARK    6  A    between atoms: C_19  and  C_20 
REMARK    7  A    between atoms: C_29  and  C_30 
REMARK    8  A    between atoms: C_30  and  O_31 
REMARK    9  A    between atoms: O_31  and  C_32 
ROOT
HETATM    1  C   UNL     1       4.622  25.351  57.519  1.00  0.00     0.071 C 
HETATM    2  C   UNL     1       5.449  25.210  56.265  1.00  0.00     0.048 C 
HETATM    3  N   UNL     1       4.785  24.574  55.217  1.00  0.00    -0.229 NA
HETATM    4  C   UNL     1       5.181  24.898  54.032  1.00  0.00     0.170 C 
HETATM    5  N   UNL     1       6.420  25.793  53.795  1.00  0.00    -0.318 N 
HETATM    6  C   UNL     1       6.166  26.656  52.871  1.00  0.00     0.011 C 
HETATM    7  C   UNL     1       7.449  25.555  54.837  1.00  0.00     0.168 C 
HETATM    8  S   UNL     1       4.274  24.717  52.577  1.00  0.00    -0.086 SA
HETATM    9  C   UNL     1       5.005  26.286  51.957  1.00  0.00     0.135 C 
HETATM   10  C   UNL     1       6.688  25.735  56.113  1.00  0.00     0.069 C 
ENDROOT
BRANCH   6  11
HETATM   11  C   UNL     1       6.937  27.944  52.795  1.00  0.00     0.156 C 
BRANCH  11  12
HETATM   12  C   UNL     1       6.057  29.110  52.392  1.00  0.00     0.223 C 
HETATM   13  N   UNL     1       5.186  29.600  53.346  1.00  0.00    -0.359 N 
HETATM   14  H   UNL     1       5.046  29.092  54.215  1.00  0.00     0.162 HD
HETATM   15  O   UNL     1       6.078  29.529  51.241  1.00  0.00    -0.273 OA
BRANCH  13  16
HETATM   16  C   UNL     1       4.209  30.618  52.958  1.00  0.00     0.150 C 
BRANCH  16  17
HETATM   17  C   UNL     1       2.940  30.066  52.279  1.00  0.00     0.254 C 
BRANCH  17  18
HETATM   18  N   UNL     1       3.046  30.117  50.768  1.00  0.00    -0.070 N 
HETATM   19  H   UNL     1       4.011  30.371  50.507  1.00  0.00     0.279 HD
HETATM   20  C   UNL     1       2.116  31.130  50.109  1.00  0.00     0.235 C 
HETATM   21  C   UNL     1       1.049  30.284  49.447  1.00  0.00     0.029 C 
HETATM   22  C   UNL     1       1.834  29.091  48.948  1.00  0.00     0.029 C 
HETATM   23  C   UNL     1       2.757  28.769  50.106  1.00  0.00     0.235 C 
ENDBRANCH  17  18
ENDBRANCH  16  17
ENDBRANCH  13  16
ENDBRANCH  11  12
ENDBRANCH   6  11
BRANCH   7  24
HETATM   24  C   UNL     1       8.152  24.201  54.591  1.00  0.00    -0.009 A 
HETATM   25  C   UNL     1       8.905  23.467  55.539  1.00  0.00     0.042 A 
HETATM   26 CL   UNL     1       9.261  24.007  57.141  1.00  0.00    -0.084 Cl
HETATM   27  C   UNL     1       9.448  22.214  55.219  1.00  0.00     0.024 A 
HETATM   28  C   UNL     1       9.289  21.667  53.952  1.00  0.00     0.002 A 
HETATM   29  C   UNL     1       8.611  22.388  52.981  1.00  0.00     0.001 A 
HETATM   30  C   UNL     1       8.068  23.639  53.289  1.00  0.00     0.011 A 
ENDBRANCH   7  24
BRANCH  10  31
HETATM   31  C   UNL     1       7.222  26.787  57.005  1.00  0.00     0.294 C 
HETATM   32  O   UNL     1       7.682  26.522  58.104  1.00  0.00    -0.259 OA
BRANCH  31  33
HETATM   33  O   UNL     1       6.852  27.997  56.542  1.00  0.00    -0.313 OA
BRANCH  33  34
HETATM   34  C   UNL     1       7.639  29.129  56.970  1.00  0.00     0.124 C 
HETATM   35  C   UNL     1       8.781  29.360  55.992  1.00  0.00     0.040 C 
HETATM   36  C   UNL     1       6.700  30.328  57.018  1.00  0.00     0.040 C 
ENDBRANCH  33  34
ENDBRANCH  31  33
ENDBRANCH  10  31
TORSDOF 9
ENDMDL
MODEL 10
REMARK VINA RESULT:      -6.5      7.222     10.745
REMARK  9 active torsions:
REMARK  status: ('A' for Active; 'I' for Inactive)
REMARK    1  A    between atoms: C_6  and  C_7 
REMARK    2  A    between atoms: C_7  and  C_8 
REMARK       I    between atoms: C_8  and  N_9 
REMARK    3  A    between atoms: N_9  and  C_10 
REMARK    4  A    between atoms: C_10  and  C_11 
REMARK    5  A    between atoms: C_11  and  N_12 
REMARK    6  A    between atoms: C_19  and  C_20 
REMARK    7  A    between atoms: C_29  and  C_30 
REMARK    8  A    between atoms: C_30  and  O_31 
REMARK    9  A    between atoms: O_31  and  C_32 
ROOT
HETATM    1  C   UNL     1      -0.076  32.675  48.079  1.00  0.00     0.071 C 
HETATM    2  C   UNL     1       1.304  32.198  48.459  1.00  0.00     0.048 C 
HETATM    3  N   UNL     1       1.763  32.700  49.676  1.00  0.00    -0.229 NA
HETATM    4  C   UNL     1       2.616  31.957  50.296  1.00  0.00     0.170 C 
HETATM    5  N   UNL     1       3.219  30.686  49.654  1.00  0.00    -0.318 N 
HETATM    6  C   UNL     1       3.250  29.731  50.520  1.00  0.00     0.011 C 
HETATM    7  C   UNL     1       3.376  30.859  48.189  1.00  0.00     0.168 C 
HETATM    8  S   UNL     1       2.969  32.012  51.983  1.00  0.00    -0.086 SA
HETATM    9  C   UNL     1       3.181  30.187  51.972  1.00  0.00     0.135 C 
HETATM   10  C   UNL     1       2.010  31.286  47.749  1.00  0.00     0.069 C 
ENDROOT
BRANCH   6  11
HETATM   11  C   UNL     1       3.275  28.296  50.075  1.00  0.00     0.156 C 
BRANCH  11  12
HETATM   12  C   UNL     1       4.621  27.646  50.328  1.00  0.00     0.223 C 
HETATM   13  N   UNL     1       4.624  26.463  51.041  1.00  0.00    -0.359 N 
HETATM   14  H   UNL     1       3.774  26.143  51.497  1.00  0.00     0.162 HD
HETATM   15  O   UNL     1       5.653  28.207  49.976  1.00  0.00    -0.273 OA
BRANCH  13  16
HETATM   16  C   UNL     1       5.905  25.882  51.446  1.00  0.00     0.150 C 
BRANCH  16  17
HETATM   17  C   UNL     1       6.217  26.000  52.951  1.00  0.00     0.254 C 
BRANCH  17  18
HETATM   18  N   UNL     1       6.228  24.644  53.628  1.00  0.00    -0.070 N 
HETATM   19  H   UNL     1       5.266  24.273  53.656  1.00  0.00     0.279 HD
HETATM   20  C   UNL     1       6.749  24.663  55.062  1.00  0.00     0.235 C 
HETATM   21  C   UNL     1       8.111  24.009  54.974  1.00  0.00     0.029 C 
HETATM   22  C   UNL     1       7.893  22.921  53.946  1.00  0.00     0.029 C 
HETATM   23  C   UNL     1       7.070  23.611  52.876  1.00  0.00     0.235 C 
ENDBRANCH  17  18
ENDBRANCH  16  17
ENDBRANCH  13  16
ENDBRANCH  11  12
ENDBRANCH   6  11
BRANCH   7  24
HETATM   24  C   UNL     1       4.566  31.798  47.889  1.00  0.00    -0.009 A 
HETATM   25  C   UNL     1       5.011  32.196  46.605  1.00  0.00     0.042 A 
HETATM   26 CL   UNL     1       4.355  31.620  45.115  1.00  0.00    -0.084 Cl
HETATM   27  C   UNL     1       6.069  33.106  46.456  1.00  0.00     0.024 A 
HETATM   28  C   UNL     1       6.733  33.620  47.563  1.00  0.00     0.002 A 
HETATM   29  C   UNL     1       6.363  33.202  48.831  1.00  0.00     0.001 A 
HETATM   30  C   UNL     1       5.311  32.295  48.992  1.00  0.00     0.011 A 
ENDBRANCH   7  24
BRANCH  10  31
HETATM   31  C   UNL     1       1.385  30.405  46.740  1.00  0.00     0.294 C 
HETATM   32  O   UNL     1       1.182  30.783  45.598  1.00  0.00    -0.259 OA
BRANCH  31  33
HETATM   33  O   UNL     1       0.856  29.327  47.352  1.00  0.00    -0.313 OA
BRANCH  33  34
HETATM   34  C   UNL     1       0.755  28.116  46.572  1.00  0.00     0.124 C 
HETATM   35  C   UNL     1       1.247  26.934  47.393  1.00  0.00     0.040 C 
HETATM   36  C   UNL     1      -0.712  27.955  46.193  1.00  0.00     0.040 C 
ENDBRANCH  33  34
ENDBRANCH  31  33
ENDBRANCH  10  31
TORSDOF 9
ENDMDL
