MODEL 1
REMARK VINA RESULT:     -10.5      0.000      0.000
REMARK  2 active torsions:
REMARK  status: ('A' for Active; 'I' for Inactive)
REMARK    1  A    between atoms: N_4  and  C_5 
REMARK    2  A    between atoms: C_15  and  C_16 
REMARK       I    between atoms: C_16  and  N_17 
ROOT
HETATM    1  C   UNL     1      10.599  31.556  58.392  1.00  0.00     0.073 C 
HETATM    2  C   UNL     1       9.141  31.333  58.556  1.00  0.00     0.069 C 
HETATM    3  N   UNL     1       8.424  32.108  59.384  1.00  0.00    -0.170 NA
HETATM    4  N   UNL     1       7.156  31.595  59.346  1.00  0.00    -0.216 N 
HETATM    5  C   UNL     1       7.054  30.666  58.324  1.00  0.00     0.145 C 
HETATM    6  C   UNL     1       8.330  30.405  57.879  1.00  0.00     0.087 C 
HETATM    7  N   UNL     1       5.959  30.091  57.775  1.00  0.00    -0.349 N 
HETATM    8  C   UNL     1       6.149  29.236  56.703  1.00  0.00     0.111 C 
HETATM    9  C   UNL     1       7.355  28.874  56.208  1.00  0.00     0.099 C 
HETATM   10  C   UNL     1       8.592  29.393  56.872  1.00  0.00     0.205 C 
HETATM   11  O   UNL     1       9.723  29.004  56.608  1.00  0.00    -0.286 OA
HETATM   12  H   UNL     1       5.005  30.407  57.949  1.00  0.00     0.167 HD
ENDROOT
BRANCH   9  13
HETATM   13  C   UNL     1       7.323  27.902  55.085  1.00  0.00     0.264 C 
HETATM   14  N   UNL     1       7.249  26.548  55.360  1.00  0.00    -0.309 N 
HETATM   15  C   UNL     1       7.089  25.855  56.674  1.00  0.00     0.093 C 
HETATM   16  C   UNL     1       7.396  25.534  54.376  1.00  0.00     0.044 A 
HETATM   17  C   UNL     1       6.714  24.392  56.352  1.00  0.00     0.066 C 
HETATM   18  C   UNL     1       8.368  25.918  57.511  1.00  0.00     0.033 C 
HETATM   19  C   UNL     1       7.146  24.276  54.928  1.00  0.00    -0.029 A 
HETATM   20  C   UNL     1       7.236  23.116  54.172  1.00  0.00     0.009 A 
HETATM   21  C   UNL     1       7.613  23.227  52.834  1.00  0.00     0.001 A 
HETATM   22  C   UNL     1       7.873  24.484  52.273  1.00  0.00     0.002 A 
HETATM   23  C   UNL     1       7.760  25.647  53.043  1.00  0.00     0.030 A 
HETATM   24  O   UNL     1       7.449  28.370  53.949  1.00  0.00    -0.267 OA
ENDBRANCH   9  13
BRANCH   4  25
HETATM   25  C   UNL     1       6.186  32.006  60.303  1.00  0.00     0.060 A 
HETATM   26  C   UNL     1       6.501  31.943  61.669  1.00  0.00     0.031 A 
HETATM   27  C   UNL     1       5.555  32.313  62.628  1.00  0.00     0.002 A 
HETATM   28  C   UNL     1       4.287  32.731  62.233  1.00  0.00     0.000 A 
HETATM   29  C   UNL     1       3.958  32.775  60.879  1.00  0.00     0.002 A 
HETATM   30  C   UNL     1       4.902  32.411  59.914  1.00  0.00     0.031 A 
ENDBRANCH   4  25
TORSDOF 2
ENDMDL
MODEL 2
REMARK VINA RESULT:      -9.9      3.658      5.812
REMARK  2 active torsions:
REMARK  status: ('A' for Active; 'I' for Inactive)
REMARK    1  A    between atoms: N_4  and  C_5 
REMARK    2  A    between atoms: C_15  and  C_16 
REMARK       I    between atoms: C_16  and  N_17 
ROOT
HETATM    1  C   UNL     1       7.365  24.493  57.165  1.00  0.00     0.073 C 
HETATM    2  C   UNL     1       7.602  25.892  56.735  1.00  0.00     0.069 C 
HETATM    3  N   UNL     1       8.322  26.726  57.501  1.00  0.00    -0.170 NA
HETATM    4  N   UNL     1       8.287  27.930  56.850  1.00  0.00    -0.216 N 
HETATM    5  C   UNL     1       7.751  27.765  55.585  1.00  0.00     0.145 C 
HETATM    6  C   UNL     1       7.210  26.501  55.529  1.00  0.00     0.087 C 
HETATM    7  N   UNL     1       7.738  28.610  54.527  1.00  0.00    -0.349 N 
HETATM    8  C   UNL     1       7.185  28.153  53.343  1.00  0.00     0.111 C 
HETATM    9  C   UNL     1       6.589  26.949  53.184  1.00  0.00     0.099 C 
HETATM   10  C   UNL     1       6.473  26.039  54.367  1.00  0.00     0.205 C 
HETATM   11  O   UNL     1       5.816  25.005  54.372  1.00  0.00    -0.286 OA
HETATM   12  H   UNL     1       8.294  29.463  54.476  1.00  0.00     0.167 HD
ENDROOT
BRANCH   9  13
HETATM   13  C   UNL     1       6.017  26.688  51.838  1.00  0.00     0.264 C 
HETATM   14  N   UNL     1       4.982  27.481  51.374  1.00  0.00    -0.309 N 
HETATM   15  C   UNL     1       4.365  28.692  51.994  1.00  0.00     0.093 C 
HETATM   16  C   UNL     1       4.247  27.206  50.190  1.00  0.00     0.044 A 
HETATM   17  C   UNL     1       3.517  29.362  50.891  1.00  0.00     0.066 C 
HETATM   18  C   UNL     1       3.501  28.335  53.205  1.00  0.00     0.033 C 
HETATM   19  C   UNL     1       3.358  28.246  49.913  1.00  0.00    -0.029 A 
HETATM   20  C   UNL     1       2.513  28.211  48.812  1.00  0.00     0.009 A 
HETATM   21  C   UNL     1       2.551  27.088  47.986  1.00  0.00     0.001 A 
HETATM   22  C   UNL     1       3.435  26.036  48.261  1.00  0.00     0.002 A 
HETATM   23  C   UNL     1       4.293  26.094  49.364  1.00  0.00     0.030 A 
HETATM   24  O   UNL     1       6.458  25.705  51.234  1.00  0.00    -0.267 OA
ENDBRANCH   9  13
BRANCH   4  25
HETATM   25  C   UNL     1       8.728  29.113  57.506  1.00  0.00     0.060 A 
HETATM   26  C   UNL     1       9.963  29.676  57.149  1.00  0.00     0.031 A 
HETATM   27  C   UNL     1      10.431  30.820  57.799  1.00  0.00     0.002 A 
HETATM   28  C   UNL     1       9.681  31.399  58.819  1.00  0.00     0.000 A 
HETATM   29  C   UNL     1       8.464  30.834  59.196  1.00  0.00     0.002 A 
HETATM   30  C   UNL     1       7.987  29.692  58.545  1.00  0.00     0.031 A 
ENDBRANCH   4  25
TORSDOF 2
ENDMDL
MODEL 3
REMARK VINA RESULT:      -9.5      2.209      3.709
REMARK  2 active torsions:
REMARK  status: ('A' for Active; 'I' for Inactive)
REMARK    1  A    between atoms: N_4  and  C_5 
REMARK    2  A    between atoms: C_15  and  C_16 
REMARK       I    between atoms: C_16  and  N_17 
ROOT
HETATM    1  C   UNL     1       3.634  29.670  56.417  1.00  0.00     0.073 C 
HETATM    2  C   UNL     1       5.046  29.483  56.831  1.00  0.00     0.069 C 
HETATM    3  N   UNL     1       5.580  30.249  57.795  1.00  0.00    -0.170 NA
HETATM    4  N   UNL     1       6.890  29.862  57.875  1.00  0.00    -0.216 N 
HETATM    5  C   UNL     1       7.088  28.712  57.131  1.00  0.00     0.145 C 
HETATM    6  C   UNL     1       5.956  28.514  56.373  1.00  0.00     0.087 C 
HETATM    7  N   UNL     1       8.139  27.859  57.107  1.00  0.00    -0.349 N 
HETATM    8  C   UNL     1       8.039  26.733  56.307  1.00  0.00     0.111 C 
HETATM    9  C   UNL     1       6.996  26.458  55.490  1.00  0.00     0.099 C 
HETATM   10  C   UNL     1       5.873  27.443  55.397  1.00  0.00     0.205 C 
HETATM   11  O   UNL     1       4.966  27.369  54.576  1.00  0.00    -0.286 OA
HETATM   12  H   UNL     1       8.895  27.873  57.791  1.00  0.00     0.167 HD
ENDROOT
BRANCH   9  13
HETATM   13  C   UNL     1       7.124  25.217  54.683  1.00  0.00     0.264 C 
HETATM   14  N   UNL     1       7.495  24.037  55.304  1.00  0.00    -0.309 N 
HETATM   15  C   UNL     1       7.709  23.757  56.755  1.00  0.00     0.093 C 
HETATM   16  C   UNL     1       7.822  22.846  54.603  1.00  0.00     0.044 A 
HETATM   17  C   UNL     1       7.757  22.220  56.900  1.00  0.00     0.066 C 
HETATM   18  C   UNL     1       9.001  24.394  57.274  1.00  0.00     0.033 C 
HETATM   19  C   UNL     1       8.030  21.794  55.496  1.00  0.00    -0.029 A 
HETATM   20  C   UNL     1       8.374  20.522  55.059  1.00  0.00     0.009 A 
HETATM   21  C   UNL     1       8.537  20.315  53.690  1.00  0.00     0.001 A 
HETATM   22  C   UNL     1       8.338  21.367  52.787  1.00  0.00     0.002 A 
HETATM   23  C   UNL     1       7.972  22.640  53.241  1.00  0.00     0.030 A 
HETATM   24  O   UNL     1       6.966  25.336  53.464  1.00  0.00    -0.267 OA
ENDBRANCH   9  13
BRANCH   4  25
HETATM   25  C   UNL     1       7.824  30.642  58.613  1.00  0.00     0.060 A 
HETATM   26  C   UNL     1       7.373  31.403  59.702  1.00  0.00     0.031 A 
HETATM   27  C   UNL     1       8.265  32.199  60.424  1.00  0.00     0.002 A 
HETATM   28  C   UNL     1       9.606  32.256  60.055  1.00  0.00     0.000 A 
HETATM   29  C   UNL     1      10.059  31.521  58.960  1.00  0.00     0.002 A 
HETATM   30  C   UNL     1       9.172  30.717  58.237  1.00  0.00     0.031 A 
ENDBRANCH   4  25
TORSDOF 2
ENDMDL
MODEL 4
REMARK VINA RESULT:      -9.4      2.367      8.776
REMARK  2 active torsions:
REMARK  status: ('A' for Active; 'I' for Inactive)
REMARK    1  A    between atoms: N_4  and  C_5 
REMARK    2  A    between atoms: C_15  and  C_16 
REMARK       I    between atoms: C_16  and  N_17 
ROOT
HETATM    1  C   UNL     1      11.362  30.440  57.814  1.00  0.00     0.073 C 
HETATM    2  C   UNL     1       9.989  29.947  57.546  1.00  0.00     0.069 C 
HETATM    3  N   UNL     1       9.796  28.820  56.844  1.00  0.00    -0.170 NA
HETATM    4  N   UNL     1       8.438  28.698  56.729  1.00  0.00    -0.216 N 
HETATM    5  C   UNL     1       7.811  29.615  57.554  1.00  0.00     0.145 C 
HETATM    6  C   UNL     1       8.775  30.490  58.001  1.00  0.00     0.087 C 
HETATM    7  N   UNL     1       6.515  29.701  57.937  1.00  0.00    -0.349 N 
HETATM    8  C   UNL     1       6.173  30.694  58.839  1.00  0.00     0.111 C 
HETATM    9  C   UNL     1       7.025  31.634  59.312  1.00  0.00     0.099 C 
HETATM   10  C   UNL     1       8.436  31.645  58.812  1.00  0.00     0.205 C 
HETATM   11  O   UNL     1       9.237  32.541  59.051  1.00  0.00    -0.286 OA
HETATM   12  H   UNL     1       5.829  28.963  57.782  1.00  0.00     0.167 HD
ENDROOT
BRANCH   9  13
HETATM   13  C   UNL     1       6.428  32.635  60.233  1.00  0.00     0.264 C 
HETATM   14  N   UNL     1       6.908  32.739  61.527  1.00  0.00    -0.309 N 
HETATM   15  C   UNL     1       8.060  32.040  62.169  1.00  0.00     0.093 C 
HETATM   16  C   UNL     1       6.292  33.528  62.535  1.00  0.00     0.044 A 
HETATM   17  C   UNL     1       8.348  32.793  63.487  1.00  0.00     0.066 C 
HETATM   18  C   UNL     1       7.752  30.566  62.441  1.00  0.00     0.033 C 
HETATM   19  C   UNL     1       7.071  33.537  63.693  1.00  0.00    -0.029 A 
HETATM   20  C   UNL     1       6.680  34.229  64.831  1.00  0.00     0.009 A 
HETATM   21  C   UNL     1       5.461  34.908  64.806  1.00  0.00     0.001 A 
HETATM   22  C   UNL     1       4.670  34.898  63.650  1.00  0.00     0.002 A 
HETATM   23  C   UNL     1       5.086  34.211  62.504  1.00  0.00     0.030 A 
HETATM   24  O   UNL     1       5.463  33.273  59.800  1.00  0.00    -0.267 OA
ENDBRANCH   9  13
BRANCH   4  25
HETATM   25  C   UNL     1       7.876  27.755  55.822  1.00  0.00     0.060 A 
HETATM   26  C   UNL     1       7.565  26.465  56.280  1.00  0.00     0.031 A 
HETATM   27  C   UNL     1       7.041  25.514  55.403  1.00  0.00     0.002 A 
HETATM   28  C   UNL     1       6.840  25.834  54.063  1.00  0.00     0.000 A 
HETATM   29  C   UNL     1       7.168  27.106  53.595  1.00  0.00     0.002 A 
HETATM   30  C   UNL     1       7.688  28.065  54.469  1.00  0.00     0.031 A 
ENDBRANCH   4  25
TORSDOF 2
ENDMDL
MODEL 5
REMARK VINA RESULT:      -9.0      4.624      8.712
REMARK  2 active torsions:
REMARK  status: ('A' for Active; 'I' for Inactive)
REMARK    1  A    between atoms: N_4  and  C_5 
REMARK    2  A    between atoms: C_15  and  C_16 
REMARK       I    between atoms: C_16  and  N_17 
ROOT
HETATM    1  C   UNL     1       8.038  27.303  56.750  1.00  0.00     0.073 C 
HETATM    2  C   UNL     1       7.488  26.288  55.819  1.00  0.00     0.069 C 
HETATM    3  N   UNL     1       7.819  24.994  55.951  1.00  0.00    -0.170 NA
HETATM    4  N   UNL     1       7.200  24.358  54.909  1.00  0.00    -0.216 N 
HETATM    5  C   UNL     1       6.312  25.222  54.291  1.00  0.00     0.145 C 
HETATM    6  C   UNL     1       6.557  26.483  54.784  1.00  0.00     0.087 C 
HETATM    7  N   UNL     1       5.335  24.968  53.390  1.00  0.00    -0.349 N 
HETATM    8  C   UNL     1       4.539  26.027  52.986  1.00  0.00     0.111 C 
HETATM    9  C   UNL     1       4.713  27.313  53.370  1.00  0.00     0.099 C 
HETATM   10  C   UNL     1       5.863  27.649  54.268  1.00  0.00     0.205 C 
HETATM   11  O   UNL     1       6.202  28.793  54.543  1.00  0.00    -0.286 OA
HETATM   12  H   UNL     1       5.006  24.031  53.158  1.00  0.00     0.167 HD
ENDROOT
BRANCH   9  13
HETATM   13  C   UNL     1       3.772  28.294  52.771  1.00  0.00     0.264 C 
HETATM   14  N   UNL     1       3.705  28.418  51.394  1.00  0.00    -0.309 N 
HETATM   15  C   UNL     1       4.389  27.616  50.336  1.00  0.00     0.093 C 
HETATM   16  C   UNL     1       2.981  29.443  50.729  1.00  0.00     0.044 A 
HETATM   17  C   UNL     1       3.681  27.955  49.006  1.00  0.00     0.066 C 
HETATM   18  C   UNL     1       5.883  27.936  50.255  1.00  0.00     0.033 C 
HETATM   19  C   UNL     1       2.992  29.234  49.349  1.00  0.00    -0.029 A 
HETATM   20  C   UNL     1       2.362  30.106  48.472  1.00  0.00     0.009 A 
HETATM   21  C   UNL     1       1.728  31.230  49.001  1.00  0.00     0.001 A 
HETATM   22  C   UNL     1       1.717  31.452  50.384  1.00  0.00     0.002 A 
HETATM   23  C   UNL     1       2.341  30.553  51.257  1.00  0.00     0.030 A 
HETATM   24  O   UNL     1       3.151  29.014  53.560  1.00  0.00    -0.267 OA
ENDBRANCH   9  13
BRANCH   4  25
HETATM   25  C   UNL     1       7.542  23.016  54.583  1.00  0.00     0.060 A 
HETATM   26  C   UNL     1       7.804  22.681  53.245  1.00  0.00     0.031 A 
HETATM   27  C   UNL     1       8.113  21.364  52.896  1.00  0.00     0.002 A 
HETATM   28  C   UNL     1       8.143  20.372  53.872  1.00  0.00     0.000 A 
HETATM   29  C   UNL     1       7.862  20.691  55.199  1.00  0.00     0.002 A 
HETATM   30  C   UNL     1       7.558  22.008  55.557  1.00  0.00     0.031 A 
ENDBRANCH   4  25
TORSDOF 2
ENDMDL
MODEL 6
REMARK VINA RESULT:      -8.9      5.001      8.995
REMARK  2 active torsions:
REMARK  status: ('A' for Active; 'I' for Inactive)
REMARK    1  A    between atoms: N_4  and  C_5 
REMARK    2  A    between atoms: C_15  and  C_16 
REMARK       I    between atoms: C_16  and  N_17 
ROOT
HETATM    1  C   UNL     1       4.898  27.223  56.342  1.00  0.00     0.073 C 
HETATM    2  C   UNL     1       5.477  26.395  55.256  1.00  0.00     0.069 C 
HETATM    3  N   UNL     1       5.799  25.111  55.478  1.00  0.00    -0.170 NA
HETATM    4  N   UNL     1       6.358  24.674  54.308  1.00  0.00    -0.216 N 
HETATM    5  C   UNL     1       6.161  25.616  53.312  1.00  0.00     0.145 C 
HETATM    6  C   UNL     1       5.698  26.762  53.917  1.00  0.00     0.087 C 
HETATM    7  N   UNL     1       6.328  25.515  51.972  1.00  0.00    -0.349 N 
HETATM    8  C   UNL     1       5.984  26.608  51.196  1.00  0.00     0.111 C 
HETATM    9  C   UNL     1       5.561  27.798  51.682  1.00  0.00     0.099 C 
HETATM   10  C   UNL     1       5.484  27.985  53.165  1.00  0.00     0.205 C 
HETATM   11  O   UNL     1       5.270  29.062  53.708  1.00  0.00    -0.286 OA
HETATM   12  H   UNL     1       6.478  24.633  51.485  1.00  0.00     0.167 HD
ENDROOT
BRANCH   9  13
HETATM   13  C   UNL     1       5.296  28.849  50.666  1.00  0.00     0.264 C 
HETATM   14  N   UNL     1       4.310  28.644  49.717  1.00  0.00    -0.309 N 
HETATM   15  C   UNL     1       3.338  27.518  49.589  1.00  0.00     0.093 C 
HETATM   16  C   UNL     1       4.102  29.496  48.600  1.00  0.00     0.044 A 
HETATM   17  C   UNL     1       2.263  27.982  48.581  1.00  0.00     0.066 C 
HETATM   18  C   UNL     1       4.015  26.233  49.109  1.00  0.00     0.033 C 
HETATM   19  C   UNL     1       2.960  29.109  47.895  1.00  0.00    -0.029 A 
HETATM   20  C   UNL     1       2.547  29.778  46.751  1.00  0.00     0.009 A 
HETATM   21  C   UNL     1       3.318  30.846  46.295  1.00  0.00     0.001 A 
HETATM   22  C   UNL     1       4.469  31.237  46.991  1.00  0.00     0.002 A 
HETATM   23  C   UNL     1       4.863  30.565  48.153  1.00  0.00     0.030 A 
HETATM   24  O   UNL     1       6.046  29.830  50.682  1.00  0.00    -0.267 OA
ENDBRANCH   9  13
BRANCH   4  25
HETATM   25  C   UNL     1       7.053  23.433  54.263  1.00  0.00     0.060 A 
HETATM   26  C   UNL     1       7.351  22.771  55.465  1.00  0.00     0.031 A 
HETATM   27  C   UNL     1       8.058  21.567  55.449  1.00  0.00     0.002 A 
HETATM   28  C   UNL     1       8.488  21.025  54.241  1.00  0.00     0.000 A 
HETATM   29  C   UNL     1       8.216  21.688  53.045  1.00  0.00     0.002 A 
HETATM   30  C   UNL     1       7.504  22.890  53.053  1.00  0.00     0.031 A 
ENDBRANCH   4  25
TORSDOF 2
ENDMDL
MODEL 7
REMARK VINA RESULT:      -8.7      4.429      6.838
REMARK  2 active torsions:
REMARK  status: ('A' for Active; 'I' for Inactive)
REMARK    1  A    between atoms: N_4  and  C_5 
REMARK    2  A    between atoms: C_15  and  C_16 
REMARK       I    between atoms: C_16  and  N_17 
ROOT
HETATM    1  C   UNL     1       2.855  30.849  55.755  1.00  0.00     0.073 C 
HETATM    2  C   UNL     1       3.598  30.548  54.507  1.00  0.00     0.069 C 
HETATM    3  N   UNL     1       3.510  31.369  53.449  1.00  0.00    -0.170 NA
HETATM    4  N   UNL     1       4.251  30.769  52.468  1.00  0.00    -0.216 N 
HETATM    5  C   UNL     1       4.973  29.715  53.001  1.00  0.00     0.145 C 
HETATM    6  C   UNL     1       4.491  29.489  54.270  1.00  0.00     0.087 C 
HETATM    7  N   UNL     1       5.993  29.001  52.470  1.00  0.00    -0.349 N 
HETATM    8  C   UNL     1       6.584  28.032  53.264  1.00  0.00     0.111 C 
HETATM    9  C   UNL     1       6.169  27.695  54.508  1.00  0.00     0.099 C 
HETATM   10  C   UNL     1       4.964  28.378  55.076  1.00  0.00     0.205 C 
HETATM   11  O   UNL     1       4.414  28.038  56.116  1.00  0.00    -0.286 OA
HETATM   12  H   UNL     1       6.493  29.269  51.624  1.00  0.00     0.167 HD
ENDROOT
BRANCH   9  13
HETATM   13  C   UNL     1       6.920  26.590  55.157  1.00  0.00     0.264 C 
HETATM   14  N   UNL     1       6.952  25.344  54.554  1.00  0.00    -0.309 N 
HETATM   15  C   UNL     1       6.407  24.918  53.231  1.00  0.00     0.093 C 
HETATM   16  C   UNL     1       7.481  24.182  55.175  1.00  0.00     0.044 A 
HETATM   17  C   UNL     1       7.033  23.539  52.926  1.00  0.00     0.066 C 
HETATM   18  C   UNL     1       4.879  24.832  53.244  1.00  0.00     0.033 C 
HETATM   19  C   UNL     1       7.493  23.111  54.279  1.00  0.00    -0.029 A 
HETATM   20  C   UNL     1       7.953  21.855  54.648  1.00  0.00     0.009 A 
HETATM   21  C   UNL     1       8.389  21.670  55.960  1.00  0.00     0.001 A 
HETATM   22  C   UNL     1       8.374  22.737  56.868  1.00  0.00     0.002 A 
HETATM   23  C   UNL     1       7.924  24.002  56.476  1.00  0.00     0.030 A 
HETATM   24  O   UNL     1       7.414  26.836  56.262  1.00  0.00    -0.267 OA
ENDBRANCH   9  13
BRANCH   4  25
HETATM   25  C   UNL     1       4.170  31.230  51.123  1.00  0.00     0.060 A 
HETATM   26  C   UNL     1       3.079  30.841  50.331  1.00  0.00     0.031 A 
HETATM   27  C   UNL     1       2.992  31.256  49.000  1.00  0.00     0.002 A 
HETATM   28  C   UNL     1       3.997  32.044  48.447  1.00  0.00     0.000 A 
HETATM   29  C   UNL     1       5.096  32.416  49.221  1.00  0.00     0.002 A 
HETATM   30  C   UNL     1       5.186  32.009  50.555  1.00  0.00     0.031 A 
ENDBRANCH   4  25
TORSDOF 2
ENDMDL
MODEL 8
REMARK VINA RESULT:      -8.7      5.243      8.346
REMARK  2 active torsions:
REMARK  status: ('A' for Active; 'I' for Inactive)
REMARK    1  A    between atoms: N_4  and  C_5 
REMARK    2  A    between atoms: C_15  and  C_16 
REMARK       I    between atoms: C_16  and  N_17 
ROOT
HETATM    1  C   UNL     1       3.155  31.154  53.335  1.00  0.00     0.073 C 
HETATM    2  C   UNL     1       3.583  30.448  52.103  1.00  0.00     0.069 C 
HETATM    3  N   UNL     1       3.611  31.092  50.926  1.00  0.00    -0.170 NA
HETATM    4  N   UNL     1       3.980  30.146  50.009  1.00  0.00    -0.216 N 
HETATM    5  C   UNL     1       4.401  28.998  50.660  1.00  0.00     0.145 C 
HETATM    6  C   UNL     1       4.056  29.129  51.985  1.00  0.00     0.087 C 
HETATM    7  N   UNL     1       5.060  27.917  50.181  1.00  0.00    -0.349 N 
HETATM    8  C   UNL     1       5.422  26.931  51.084  1.00  0.00     0.111 C 
HETATM    9  C   UNL     1       5.101  26.932  52.398  1.00  0.00     0.099 C 
HETATM   10  C   UNL     1       4.263  28.051  52.935  1.00  0.00     0.205 C 
HETATM   11  O   UNL     1       3.786  28.066  54.063  1.00  0.00    -0.286 OA
HETATM   12  H   UNL     1       5.495  27.881  49.260  1.00  0.00     0.167 HD
ENDROOT
BRANCH   9  13
HETATM   13  C   UNL     1       5.549  25.745  53.170  1.00  0.00     0.264 C 
HETATM   14  N   UNL     1       6.407  25.916  54.242  1.00  0.00    -0.309 N 
HETATM   15  C   UNL     1       6.916  27.178  54.856  1.00  0.00     0.093 C 
HETATM   16  C   UNL     1       7.036  24.842  54.927  1.00  0.00     0.044 A 
HETATM   17  C   UNL     1       7.537  26.783  56.215  1.00  0.00     0.066 C 
HETATM   18  C   UNL     1       7.952  27.868  53.965  1.00  0.00     0.033 C 
HETATM   19  C   UNL     1       7.738  25.315  56.038  1.00  0.00    -0.029 A 
HETATM   20  C   UNL     1       8.451  24.461  56.869  1.00  0.00     0.009 A 
HETATM   21  C   UNL     1       8.476  23.103  56.555  1.00  0.00     0.001 A 
HETATM   22  C   UNL     1       7.782  22.621  55.438  1.00  0.00     0.002 A 
HETATM   23  C   UNL     1       7.052  23.491  54.621  1.00  0.00     0.030 A 
HETATM   24  O   UNL     1       5.183  24.644  52.746  1.00  0.00    -0.267 OA
ENDBRANCH   9  13
BRANCH   4  25
HETATM   25  C   UNL     1       3.860  30.411  48.615  1.00  0.00     0.060 A 
HETATM   26  C   UNL     1       4.893  31.095  47.956  1.00  0.00     0.031 A 
HETATM   27  C   UNL     1       4.786  31.393  46.596  1.00  0.00     0.002 A 
HETATM   28  C   UNL     1       3.643  31.028  45.890  1.00  0.00     0.000 A 
HETATM   29  C   UNL     1       2.602  30.368  46.542  1.00  0.00     0.002 A 
HETATM   30  C   UNL     1       2.706  30.062  47.902  1.00  0.00     0.031 A 
ENDBRANCH   4  25
TORSDOF 2
ENDMDL
MODEL 9
REMARK VINA RESULT:      -8.5      4.792      8.522
REMARK  2 active torsions:
REMARK  status: ('A' for Active; 'I' for Inactive)
REMARK    1  A    between atoms: N_4  and  C_5 
REMARK    2  A    between atoms: C_15  and  C_16 
REMARK       I    between atoms: C_16  and  N_17 
ROOT
HETATM    1  C   UNL     1       7.462  28.394  55.387  1.00  0.00     0.073 C 
HETATM    2  C   UNL     1       7.199  27.030  54.867  1.00  0.00     0.069 C 
HETATM    3  N   UNL     1       7.424  25.954  55.636  1.00  0.00    -0.170 NA
HETATM    4  N   UNL     1       7.145  24.879  54.837  1.00  0.00    -0.216 N 
HETATM    5  C   UNL     1       6.531  25.304  53.671  1.00  0.00     0.145 C 
HETATM    6  C   UNL     1       6.652  26.674  53.621  1.00  0.00     0.087 C 
HETATM    7  N   UNL     1       5.881  24.595  52.719  1.00  0.00    -0.349 N 
HETATM    8  C   UNL     1       5.295  25.296  51.680  1.00  0.00     0.111 C 
HETATM    9  C   UNL     1       5.384  26.635  51.505  1.00  0.00     0.099 C 
HETATM   10  C   UNL     1       6.201  27.436  52.471  1.00  0.00     0.205 C 
HETATM   11  O   UNL     1       6.477  28.619  52.315  1.00  0.00    -0.286 OA
HETATM   12  H   UNL     1       5.610  23.618  52.827  1.00  0.00     0.167 HD
ENDROOT
BRANCH   9  13
HETATM   13  C   UNL     1       4.718  27.170  50.289  1.00  0.00     0.264 C 
HETATM   14  N   UNL     1       3.882  28.267  50.399  1.00  0.00    -0.309 N 
HETATM   15  C   UNL     1       3.590  29.120  51.590  1.00  0.00     0.093 C 
HETATM   16  C   UNL     1       3.061  28.741  49.342  1.00  0.00     0.044 A 
HETATM   17  C   UNL     1       2.883  30.385  51.056  1.00  0.00     0.066 C 
HETATM   18  C   UNL     1       2.710  28.394  52.609  1.00  0.00     0.033 C 
HETATM   19  C   UNL     1       2.431  29.932  49.708  1.00  0.00    -0.029 A 
HETATM   20  C   UNL     1       1.562  30.593  48.850  1.00  0.00     0.009 A 
HETATM   21  C   UNL     1       1.305  30.023  47.603  1.00  0.00     0.001 A 
HETATM   22  C   UNL     1       1.927  28.825  47.230  1.00  0.00     0.002 A 
HETATM   23  C   UNL     1       2.814  28.180  48.099  1.00  0.00     0.030 A 
HETATM   24  O   UNL     1       4.894  26.537  49.243  1.00  0.00    -0.267 OA
ENDBRANCH   9  13
BRANCH   4  25
HETATM   25  C   UNL     1       7.523  23.567  55.241  1.00  0.00     0.060 A 
HETATM   26  C   UNL     1       7.909  23.344  56.572  1.00  0.00     0.031 A 
HETATM   27  C   UNL     1       8.312  22.073  56.985  1.00  0.00     0.002 A 
HETATM   28  C   UNL     1       8.352  21.022  56.073  1.00  0.00     0.000 A 
HETATM   29  C   UNL     1       7.993  21.240  54.743  1.00  0.00     0.002 A 
HETATM   30  C   UNL     1       7.582  22.508  54.324  1.00  0.00     0.031 A 
ENDBRANCH   4  25
TORSDOF 2
ENDMDL
MODEL 10
REMARK VINA RESULT:      -8.4      4.799      6.966
REMARK  2 active torsions:
REMARK  status: ('A' for Active; 'I' for Inactive)
REMARK    1  A    between atoms: N_4  and  C_5 
REMARK    2  A    between atoms: C_15  and  C_16 
REMARK       I    between atoms: C_16  and  N_17 
ROOT
HETATM    1  C   UNL     1       7.267  24.643  54.175  1.00  0.00     0.073 C 
HETATM    2  C   UNL     1       7.131  26.071  54.549  1.00  0.00     0.069 C 
HETATM    3  N   UNL     1       8.024  26.648  55.368  1.00  0.00    -0.170 NA
HETATM    4  N   UNL     1       7.569  27.925  55.553  1.00  0.00    -0.216 N 
HETATM    5  C   UNL     1       6.539  28.190  54.667  1.00  0.00     0.145 C 
HETATM    6  C   UNL     1       6.172  26.994  54.094  1.00  0.00     0.087 C 
HETATM    7  N   UNL     1       5.957  29.366  54.333  1.00  0.00    -0.349 N 
HETATM    8  C   UNL     1       4.981  29.348  53.352  1.00  0.00     0.111 C 
HETATM    9  C   UNL     1       4.511  28.229  52.751  1.00  0.00     0.099 C 
HETATM   10  C   UNL     1       5.043  26.899  53.186  1.00  0.00     0.205 C 
HETATM   11  O   UNL     1       4.576  25.826  52.826  1.00  0.00    -0.286 OA
HETATM   12  H   UNL     1       6.334  30.278  54.590  1.00  0.00     0.167 HD
ENDROOT
BRANCH   9  13
HETATM   13  C   UNL     1       3.424  28.441  51.761  1.00  0.00     0.264 C 
HETATM   14  N   UNL     1       3.702  28.321  50.410  1.00  0.00    -0.309 N 
HETATM   15  C   UNL     1       4.966  27.895  49.737  1.00  0.00     0.093 C 
HETATM   16  C   UNL     1       2.789  28.679  49.383  1.00  0.00     0.044 A 
HETATM   17  C   UNL     1       4.599  27.608  48.265  1.00  0.00     0.066 C 
HETATM   18  C   UNL     1       6.050  28.971  49.828  1.00  0.00     0.033 C 
HETATM   19  C   UNL     1       3.299  28.329  48.131  1.00  0.00    -0.029 A 
HETATM   20  C   UNL     1       2.600  28.584  46.960  1.00  0.00     0.009 A 
HETATM   21  C   UNL     1       1.368  29.232  47.054  1.00  0.00     0.001 A 
HETATM   22  C   UNL     1       0.852  29.594  48.305  1.00  0.00     0.002 A 
HETATM   23  C   UNL     1       1.560  29.313  49.479  1.00  0.00     0.030 A 
HETATM   24  O   UNL     1       2.332  28.798  52.213  1.00  0.00    -0.267 OA
ENDBRANCH   9  13
BRANCH   4  25
HETATM   25  C   UNL     1       8.128  28.746  56.572  1.00  0.00     0.060 A 
HETATM   26  C   UNL     1       9.412  29.282  56.393  1.00  0.00     0.031 A 
HETATM   27  C   UNL     1       9.994  30.066  57.391  1.00  0.00     0.002 A 
HETATM   28  C   UNL     1       9.310  30.306  58.579  1.00  0.00     0.000 A 
HETATM   29  C   UNL     1       8.043  29.758  58.775  1.00  0.00     0.002 A 
HETATM   30  C   UNL     1       7.452  28.977  57.778  1.00  0.00     0.031 A 
ENDBRANCH   4  25
TORSDOF 2
ENDMDL
