MODEL 1
REMARK VINA RESULT:     -11.2      0.000      0.000
REMARK  7 active torsions:
REMARK  status: ('A' for Active; 'I' for Inactive)
REMARK    1  A    between atoms: C_5  and  C_6 
REMARK    2  A    between atoms: C_6  and  N_7 
REMARK       I    between atoms: N_7  and  C_8 
REMARK    3  A    between atoms: C_8  and  C_9 
REMARK    4  A    between atoms: C_14  and  C_15 
REMARK    5  A    between atoms: C_15  and  S_16 
REMARK    6  A    between atoms: S_16  and  C_17 
REMARK    7  A    between atoms: C_17  and  C_18 
ROOT
HETATM    1  C   UNL     1       8.795  30.420  58.430  1.00  0.00     0.034 A 
HETATM    2  C   UNL     1       7.428  30.189  58.247  1.00  0.00     0.048 A 
HETATM    3  C   UNL     1       6.986  29.561  57.085  1.00  0.00     0.057 A 
HETATM    4  C   UNL     1       7.892  29.164  56.082  1.00  0.00     0.036 A 
HETATM    5  N   UNL     1       7.434  28.617  54.870  1.00  0.00    -0.277 NA
HETATM    6  C   UNL     1       6.143  27.877  54.981  1.00  0.00     0.162 C 
HETATM    7  C   UNL     1       5.114  28.658  55.822  1.00  0.00     0.240 C 
HETATM    8  O   UNL     1       3.903  28.617  55.620  1.00  0.00    -0.271 OA
HETATM    9  N   UNL     1       5.615  29.345  56.903  1.00  0.00    -0.324 N 
HETATM   10  C   UNL     1       9.246  29.471  56.245  1.00  0.00     0.027 A 
HETATM   11  C   UNL     1       9.703  30.078  57.421  1.00  0.00     0.019 A 
HETATM   12  H   UNL     1       8.149  28.115  54.352  1.00  0.00     0.128 HD
HETATM   13  H   UNL     1       4.936  29.771  57.521  1.00  0.00     0.169 HD
ENDROOT
BRANCH   1  14
HETATM   14  C   UNL     1       9.229  31.054  59.702  1.00  0.00     0.252 C 
HETATM   15  N   UNL     1       8.777  30.466  60.860  1.00  0.00    -0.353 N 
HETATM   16  H   UNL     1       8.158  29.669  60.831  1.00  0.00     0.163 HD
HETATM   17  O   UNL     1       9.913  32.070  59.672  1.00  0.00    -0.268 OA
BRANCH  15  18
HETATM   18  C   UNL     1       9.074  31.029  62.161  1.00  0.00     0.161 C 
BRANCH  18  19
HETATM   19  C   UNL     1       7.894  31.773  62.734  1.00  0.00    -0.041 A 
HETATM   20  C   UNL     1       6.591  31.455  62.331  1.00  0.00     0.009 A 
HETATM   21  C   UNL     1       5.490  32.102  62.899  1.00  0.00     0.007 A 
HETATM   22  C   UNL     1       5.671  33.079  63.883  1.00  0.00    -0.062 A 
HETATM   23  C   UNL     1       4.497  33.764  64.519  1.00  0.00     0.048 C 
HETATM   24  C   UNL     1       6.970  33.393  64.297  1.00  0.00     0.007 A 
HETATM   25  C   UNL     1       8.069  32.741  63.734  1.00  0.00     0.009 A 
ENDBRANCH  18  19
ENDBRANCH  15  18
ENDBRANCH   1  14
BRANCH   6  26
HETATM   26  C   UNL     1       6.408  26.488  55.601  1.00  0.00     0.103 C 
BRANCH  26  27
HETATM   27  S   UNL     1       6.049  25.088  54.489  1.00  0.00    -0.162 SA
BRANCH  27  28
HETATM   28  C   UNL     1       7.762  24.577  54.149  1.00  0.00     0.114 C 
BRANCH  28  29
HETATM   29  C   UNL     1       7.927  23.080  54.228  1.00  0.00    -0.027 A 
HETATM   30  C   UNL     1       8.139  22.404  55.440  1.00  0.00     0.041 A 
HETATM   31 CL   UNL     1       8.240  23.239  56.952  1.00  0.00    -0.084 Cl
HETATM   32  C   UNL     1       8.285  21.013  55.463  1.00  0.00     0.024 A 
HETATM   33  C   UNL     1       8.214  20.279  54.280  1.00  0.00     0.002 A 
HETATM   34  C   UNL     1       7.992  20.934  53.072  1.00  0.00     0.001 A 
HETATM   35  C   UNL     1       7.847  22.322  53.045  1.00  0.00     0.009 A 
ENDBRANCH  28  29
ENDBRANCH  27  28
ENDBRANCH  26  27
ENDBRANCH   6  26
TORSDOF 7
ENDMDL
MODEL 2
REMARK VINA RESULT:     -10.6      1.631      1.980
REMARK  7 active torsions:
REMARK  status: ('A' for Active; 'I' for Inactive)
REMARK    1  A    between atoms: C_5  and  C_6 
REMARK    2  A    between atoms: C_6  and  N_7 
REMARK       I    between atoms: N_7  and  C_8 
REMARK    3  A    between atoms: C_8  and  C_9 
REMARK    4  A    between atoms: C_14  and  C_15 
REMARK    5  A    between atoms: C_15  and  S_16 
REMARK    6  A    between atoms: S_16  and  C_17 
REMARK    7  A    between atoms: C_17  and  C_18 
ROOT
HETATM    1  C   UNL     1       7.341  29.834  58.035  1.00  0.00     0.034 A 
HETATM    2  C   UNL     1       7.412  28.438  58.020  1.00  0.00     0.048 A 
HETATM    3  C   UNL     1       6.562  27.716  57.185  1.00  0.00     0.057 A 
HETATM    4  C   UNL     1       5.622  28.368  56.363  1.00  0.00     0.036 A 
HETATM    5  N   UNL     1       4.703  27.633  55.593  1.00  0.00    -0.277 NA
HETATM    6  C   UNL     1       5.196  26.292  55.165  1.00  0.00     0.162 C 
HETATM    7  C   UNL     1       5.882  25.545  56.326  1.00  0.00     0.240 C 
HETATM    8  O   UNL     1       5.856  24.323  56.455  1.00  0.00    -0.271 OA
HETATM    9  N   UNL     1       6.630  26.318  57.183  1.00  0.00    -0.324 N 
HETATM   10  C   UNL     1       5.511  29.759  56.447  1.00  0.00     0.027 A 
HETATM   11  C   UNL     1       6.378  30.495  57.264  1.00  0.00     0.019 A 
HETATM   12  H   UNL     1       4.276  28.169  54.843  1.00  0.00     0.128 HD
HETATM   13  H   UNL     1       7.169  25.824  57.882  1.00  0.00     0.169 HD
ENDROOT
BRANCH   1  14
HETATM   14  C   UNL     1       8.294  30.569  58.908  1.00  0.00     0.252 C 
HETATM   15  N   UNL     1       8.060  30.495  60.262  1.00  0.00    -0.353 N 
HETATM   16  H   UNL     1       7.263  29.993  60.625  1.00  0.00     0.163 HD
HETATM   17  O   UNL     1       9.193  31.230  58.405  1.00  0.00    -0.268 OA
BRANCH  15  18
HETATM   18  C   UNL     1       8.876  31.222  61.211  1.00  0.00     0.161 C 
BRANCH  18  19
HETATM   19  C   UNL     1       8.067  32.222  61.999  1.00  0.00    -0.041 A 
HETATM   20  C   UNL     1       7.108  33.018  61.360  1.00  0.00     0.009 A 
HETATM   21  C   UNL     1       6.316  33.908  62.092  1.00  0.00     0.007 A 
HETATM   22  C   UNL     1       6.467  34.017  63.478  1.00  0.00    -0.062 A 
HETATM   23  C   UNL     1       5.606  34.949  64.279  1.00  0.00     0.048 C 
HETATM   24  C   UNL     1       7.416  33.216  64.123  1.00  0.00     0.007 A 
HETATM   25  C   UNL     1       8.202  32.323  63.391  1.00  0.00     0.009 A 
ENDBRANCH  18  19
ENDBRANCH  15  18
ENDBRANCH   1  14
BRANCH   6  26
HETATM   26  C   UNL     1       6.171  26.466  53.981  1.00  0.00     0.103 C 
BRANCH  26  27
HETATM   27  S   UNL     1       6.377  24.974  52.953  1.00  0.00    -0.162 SA
BRANCH  27  28
HETATM   28  C   UNL     1       8.070  24.537  53.460  1.00  0.00     0.114 C 
BRANCH  28  29
HETATM   29  C   UNL     1       8.183  23.084  53.844  1.00  0.00    -0.027 A 
HETATM   30  C   UNL     1       8.644  22.665  55.103  1.00  0.00     0.041 A 
HETATM   31 CL   UNL     1       9.133  23.791  56.322  1.00  0.00    -0.084 Cl
HETATM   32  C   UNL     1       8.730  21.304  55.413  1.00  0.00     0.024 A 
HETATM   33  C   UNL     1       8.351  20.344  54.476  1.00  0.00     0.002 A 
HETATM   34  C   UNL     1       7.880  20.743  53.228  1.00  0.00     0.001 A 
HETATM   35  C   UNL     1       7.794  22.101  52.914  1.00  0.00     0.009 A 
ENDBRANCH  28  29
ENDBRANCH  27  28
ENDBRANCH  26  27
ENDBRANCH   6  26
TORSDOF 7
ENDMDL
MODEL 3
REMARK VINA RESULT:     -10.5      3.027     10.793
REMARK  7 active torsions:
REMARK  status: ('A' for Active; 'I' for Inactive)
REMARK    1  A    between atoms: C_5  and  C_6 
REMARK    2  A    between atoms: C_6  and  N_7 
REMARK       I    between atoms: N_7  and  C_8 
REMARK    3  A    between atoms: C_8  and  C_9 
REMARK    4  A    between atoms: C_14  and  C_15 
REMARK    5  A    between atoms: C_15  and  S_16 
REMARK    6  A    between atoms: S_16  and  C_17 
REMARK    7  A    between atoms: C_17  and  C_18 
ROOT
HETATM    1  C   UNL     1       6.597  28.126  55.949  1.00  0.00     0.034 A 
HETATM    2  C   UNL     1       7.903  28.585  56.151  1.00  0.00     0.048 A 
HETATM    3  C   UNL     1       8.129  29.649  57.022  1.00  0.00     0.057 A 
HETATM    4  C   UNL     1       7.065  30.280  57.694  1.00  0.00     0.036 A 
HETATM    5  N   UNL     1       7.287  31.412  58.498  1.00  0.00    -0.277 NA
HETATM    6  C   UNL     1       8.640  31.462  59.126  1.00  0.00     0.162 C 
HETATM    7  C   UNL     1       9.746  31.099  58.115  1.00  0.00     0.240 C 
HETATM    8  O   UNL     1      10.876  31.581  58.146  1.00  0.00    -0.271 OA
HETATM    9  N   UNL     1       9.437  30.111  57.210  1.00  0.00    -0.324 N 
HETATM   10  C   UNL     1       5.759  29.860  57.422  1.00  0.00     0.027 A 
HETATM   11  C   UNL     1       5.523  28.775  56.569  1.00  0.00     0.019 A 
HETATM   12  H   UNL     1       6.530  31.611  59.144  1.00  0.00     0.128 HD
HETATM   13  H   UNL     1      10.191  29.793  56.615  1.00  0.00     0.169 HD
ENDROOT
BRANCH   1  14
HETATM   14  C   UNL     1       6.402  26.962  55.046  1.00  0.00     0.252 C 
HETATM   15  N   UNL     1       7.514  26.527  54.364  1.00  0.00    -0.353 N 
HETATM   16  H   UNL     1       8.400  27.003  54.457  1.00  0.00     0.163 HD
HETATM   17  O   UNL     1       5.284  26.479  54.910  1.00  0.00    -0.268 OA
BRANCH  15  18
HETATM   18  C   UNL     1       7.439  25.446  53.404  1.00  0.00     0.161 C 
BRANCH  18  19
HETATM   19  C   UNL     1       7.891  24.135  53.997  1.00  0.00    -0.041 A 
HETATM   20  C   UNL     1       8.200  24.043  55.360  1.00  0.00     0.009 A 
HETATM   21  C   UNL     1       8.566  22.820  55.928  1.00  0.00     0.007 A 
HETATM   22  C   UNL     1       8.629  21.663  55.144  1.00  0.00    -0.062 A 
HETATM   23  C   UNL     1       8.996  20.339  55.746  1.00  0.00     0.048 C 
HETATM   24  C   UNL     1       8.312  21.748  53.784  1.00  0.00     0.007 A 
HETATM   25  C   UNL     1       7.939  22.969  53.218  1.00  0.00     0.009 A 
ENDBRANCH  18  19
ENDBRANCH  15  18
ENDBRANCH   1  14
BRANCH   6  26
HETATM   26  C   UNL     1       8.672  30.499  60.332  1.00  0.00     0.103 C 
BRANCH  26  27
HETATM   27  S   UNL     1       8.755  31.331  61.954  1.00  0.00    -0.162 SA
BRANCH  27  28
HETATM   28  C   UNL     1       7.304  32.415  61.767  1.00  0.00     0.114 C 
BRANCH  28  29
HETATM   29  C   UNL     1       6.775  32.877  63.101  1.00  0.00    -0.027 A 
HETATM   30  C   UNL     1       5.403  32.935  63.394  1.00  0.00     0.041 A 
HETATM   31 CL   UNL     1       4.197  32.486  62.237  1.00  0.00    -0.084 Cl
HETATM   32  C   UNL     1       4.960  33.370  64.648  1.00  0.00     0.024 A 
HETATM   33  C   UNL     1       5.879  33.746  65.626  1.00  0.00     0.002 A 
HETATM   34  C   UNL     1       7.243  33.682  65.355  1.00  0.00     0.001 A 
HETATM   35  C   UNL     1       7.688  33.250  64.105  1.00  0.00     0.009 A 
ENDBRANCH  28  29
ENDBRANCH  27  28
ENDBRANCH  26  27
ENDBRANCH   6  26
TORSDOF 7
ENDMDL
MODEL 4
REMARK VINA RESULT:     -10.3      5.164     10.027
REMARK  7 active torsions:
REMARK  status: ('A' for Active; 'I' for Inactive)
REMARK    1  A    between atoms: C_5  and  C_6 
REMARK    2  A    between atoms: C_6  and  N_7 
REMARK       I    between atoms: N_7  and  C_8 
REMARK    3  A    between atoms: C_8  and  C_9 
REMARK    4  A    between atoms: C_14  and  C_15 
REMARK    5  A    between atoms: C_15  and  S_16 
REMARK    6  A    between atoms: S_16  and  C_17 
REMARK    7  A    between atoms: C_17  and  C_18 
ROOT
HETATM    1  C   UNL     1       4.981  26.645  51.880  1.00  0.00     0.034 A 
HETATM    2  C   UNL     1       4.996  27.651  52.851  1.00  0.00     0.048 A 
HETATM    3  C   UNL     1       5.028  27.303  54.200  1.00  0.00     0.057 A 
HETATM    4  C   UNL     1       5.032  25.954  54.604  1.00  0.00     0.036 A 
HETATM    5  N   UNL     1       4.968  25.608  55.966  1.00  0.00    -0.277 NA
HETATM    6  C   UNL     1       5.574  26.615  56.884  1.00  0.00     0.162 C 
HETATM    7  C   UNL     1       5.145  28.049  56.512  1.00  0.00     0.240 C 
HETATM    8  O   UNL     1       4.995  28.947  57.337  1.00  0.00    -0.271 OA
HETATM    9  N   UNL     1       5.031  28.315  55.167  1.00  0.00    -0.324 N 
HETATM   10  C   UNL     1       4.938  24.962  53.624  1.00  0.00     0.027 A 
HETATM   11  C   UNL     1       4.933  25.301  52.266  1.00  0.00     0.019 A 
HETATM   12  H   UNL     1       5.258  24.654  56.160  1.00  0.00     0.128 HD
HETATM   13  H   UNL     1       4.855  29.278  54.911  1.00  0.00     0.169 HD
ENDROOT
BRANCH   1  14
HETATM   14  C   UNL     1       4.991  27.057  50.452  1.00  0.00     0.252 C 
HETATM   15  N   UNL     1       4.369  26.206  49.569  1.00  0.00    -0.353 N 
HETATM   16  H   UNL     1       3.961  25.337  49.883  1.00  0.00     0.163 HD
HETATM   17  O   UNL     1       5.574  28.082  50.119  1.00  0.00    -0.268 OA
BRANCH  15  18
HETATM   18  C   UNL     1       4.369  26.462  48.144  1.00  0.00     0.161 C 
BRANCH  18  19
HETATM   19  C   UNL     1       3.141  27.222  47.709  1.00  0.00    -0.041 A 
HETATM   20  C   UNL     1       3.226  28.581  47.381  1.00  0.00     0.009 A 
HETATM   21  C   UNL     1       2.104  29.278  46.924  1.00  0.00     0.007 A 
HETATM   22  C   UNL     1       0.873  28.629  46.786  1.00  0.00    -0.062 A 
HETATM   23  C   UNL     1      -0.333  29.358  46.274  1.00  0.00     0.048 C 
HETATM   24  C   UNL     1       0.784  27.268  47.103  1.00  0.00     0.007 A 
HETATM   25  C   UNL     1       1.908  26.571  47.553  1.00  0.00     0.009 A 
ENDBRANCH  18  19
ENDBRANCH  15  18
ENDBRANCH   1  14
BRANCH   6  26
HETATM   26  C   UNL     1       7.111  26.481  56.838  1.00  0.00     0.103 C 
BRANCH  26  27
HETATM   27  S   UNL     1       7.719  24.768  56.985  1.00  0.00    -0.162 SA
BRANCH  27  28
HETATM   28  C   UNL     1       8.352  24.567  55.290  1.00  0.00     0.114 C 
BRANCH  28  29
HETATM   29  C   UNL     1       8.159  23.161  54.782  1.00  0.00    -0.027 A 
HETATM   30  C   UNL     1       8.057  22.856  53.415  1.00  0.00     0.041 A 
HETATM   31 CL   UNL     1       8.135  24.078  52.193  1.00  0.00    -0.084 Cl
HETATM   32  C   UNL     1       7.880  21.534  52.992  1.00  0.00     0.024 A 
HETATM   33  C   UNL     1       7.809  20.502  53.925  1.00  0.00     0.002 A 
HETATM   34  C   UNL     1       7.921  20.786  55.283  1.00  0.00     0.001 A 
HETATM   35  C   UNL     1       8.097  22.104  55.709  1.00  0.00     0.009 A 
ENDBRANCH  28  29
ENDBRANCH  27  28
ENDBRANCH  26  27
ENDBRANCH   6  26
TORSDOF 7
ENDMDL
MODEL 5
REMARK VINA RESULT:     -10.0      3.316     10.282
REMARK  7 active torsions:
REMARK  status: ('A' for Active; 'I' for Inactive)
REMARK    1  A    between atoms: C_5  and  C_6 
REMARK    2  A    between atoms: C_6  and  N_7 
REMARK       I    between atoms: N_7  and  C_8 
REMARK    3  A    between atoms: C_8  and  C_9 
REMARK    4  A    between atoms: C_14  and  C_15 
REMARK    5  A    between atoms: C_15  and  S_16 
REMARK    6  A    between atoms: S_16  and  C_17 
REMARK    7  A    between atoms: C_17  and  C_18 
ROOT
HETATM    1  C   UNL     1       6.451  28.025  55.242  1.00  0.00     0.034 A 
HETATM    2  C   UNL     1       5.430  28.881  54.817  1.00  0.00     0.048 A 
HETATM    3  C   UNL     1       4.684  29.583  55.761  1.00  0.00     0.057 A 
HETATM    4  C   UNL     1       4.932  29.437  57.140  1.00  0.00     0.036 A 
HETATM    5  N   UNL     1       4.117  30.074  58.092  1.00  0.00    -0.277 NA
HETATM    6  C   UNL     1       3.508  31.353  57.622  1.00  0.00     0.162 C 
HETATM    7  C   UNL     1       2.935  31.215  56.197  1.00  0.00     0.240 C 
HETATM    8  O   UNL     1       1.945  31.829  55.803  1.00  0.00    -0.271 OA
HETATM    9  N   UNL     1       3.655  30.428  55.329  1.00  0.00    -0.324 N 
HETATM   10  C   UNL     1       5.904  28.520  57.552  1.00  0.00     0.027 A 
HETATM   11  C   UNL     1       6.676  27.830  56.609  1.00  0.00     0.019 A 
HETATM   12  H   UNL     1       4.537  30.139  59.015  1.00  0.00     0.128 HD
HETATM   13  H   UNL     1       3.346  30.419  54.366  1.00  0.00     0.169 HD
ENDROOT
BRANCH   1  14
HETATM   14  C   UNL     1       7.251  27.327  54.202  1.00  0.00     0.252 C 
HETATM   15  N   UNL     1       6.873  26.038  53.907  1.00  0.00    -0.353 N 
HETATM   16  H   UNL     1       6.113  25.593  54.401  1.00  0.00     0.163 HD
HETATM   17  O   UNL     1       8.214  27.890  53.697  1.00  0.00    -0.268 OA
BRANCH  15  18
HETATM   18  C   UNL     1       7.614  25.230  52.961  1.00  0.00     0.161 C 
BRANCH  18  19
HETATM   19  C   UNL     1       7.952  23.873  53.526  1.00  0.00    -0.041 A 
HETATM   20  C   UNL     1       8.332  23.737  54.867  1.00  0.00     0.009 A 
HETATM   21  C   UNL     1       8.594  22.477  55.412  1.00  0.00     0.007 A 
HETATM   22  C   UNL     1       8.479  21.326  54.626  1.00  0.00    -0.062 A 
HETATM   23  C   UNL     1       8.732  19.965  55.204  1.00  0.00     0.048 C 
HETATM   24  C   UNL     1       8.090  21.454  53.288  1.00  0.00     0.007 A 
HETATM   25  C   UNL     1       7.822  22.714  52.746  1.00  0.00     0.009 A 
ENDBRANCH  18  19
ENDBRANCH  15  18
ENDBRANCH   1  14
BRANCH   6  26
HETATM   26  C   UNL     1       4.575  32.468  57.670  1.00  0.00     0.103 C 
BRANCH  26  27
HETATM   27  S   UNL     1       4.848  33.173  59.330  1.00  0.00    -0.162 SA
BRANCH  27  28
HETATM   28  C   UNL     1       6.358  32.252  59.761  1.00  0.00     0.114 C 
BRANCH  28  29
HETATM   29  C   UNL     1       6.801  32.531  61.175  1.00  0.00    -0.027 A 
HETATM   30  C   UNL     1       7.870  31.853  61.783  1.00  0.00     0.041 A 
HETATM   31 CL   UNL     1       8.766  30.624  60.958  1.00  0.00    -0.084 Cl
HETATM   32  C   UNL     1       8.244  32.148  63.098  1.00  0.00     0.024 A 
HETATM   33  C   UNL     1       7.564  33.128  63.819  1.00  0.00     0.002 A 
HETATM   34  C   UNL     1       6.511  33.818  63.226  1.00  0.00     0.001 A 
HETATM   35  C   UNL     1       6.133  33.525  61.914  1.00  0.00     0.009 A 
ENDBRANCH  28  29
ENDBRANCH  27  28
ENDBRANCH  26  27
ENDBRANCH   6  26
TORSDOF 7
ENDMDL
MODEL 6
REMARK VINA RESULT:     -10.0      2.020      2.828
REMARK  7 active torsions:
REMARK  status: ('A' for Active; 'I' for Inactive)
REMARK    1  A    between atoms: C_5  and  C_6 
REMARK    2  A    between atoms: C_6  and  N_7 
REMARK       I    between atoms: N_7  and  C_8 
REMARK    3  A    between atoms: C_8  and  C_9 
REMARK    4  A    between atoms: C_14  and  C_15 
REMARK    5  A    between atoms: C_15  and  S_16 
REMARK    6  A    between atoms: S_16  and  C_17 
REMARK    7  A    between atoms: C_17  and  C_18 
ROOT
HETATM    1  C   UNL     1       6.559  31.566  59.340  1.00  0.00     0.034 A 
HETATM    2  C   UNL     1       6.206  31.056  58.086  1.00  0.00     0.048 A 
HETATM    3  C   UNL     1       7.029  30.117  57.469  1.00  0.00     0.057 A 
HETATM    4  C   UNL     1       8.220  29.680  58.081  1.00  0.00     0.036 A 
HETATM    5  N   UNL     1       9.096  28.804  57.414  1.00  0.00    -0.277 NA
HETATM    6  C   UNL     1       8.426  27.885  56.448  1.00  0.00     0.162 C 
HETATM    7  C   UNL     1       7.395  28.633  55.578  1.00  0.00     0.240 C 
HETATM    8  O   UNL     1       7.144  28.328  54.414  1.00  0.00    -0.271 OA
HETATM    9  N   UNL     1       6.676  29.621  56.209  1.00  0.00    -0.324 N 
HETATM   10  C   UNL     1       8.598  30.255  59.297  1.00  0.00     0.027 A 
HETATM   11  C   UNL     1       7.764  31.180  59.937  1.00  0.00     0.019 A 
HETATM   12  H   UNL     1       9.756  28.338  58.028  1.00  0.00     0.128 HD
HETATM   13  H   UNL     1       5.926  30.042  55.677  1.00  0.00     0.169 HD
ENDROOT
BRANCH   1  14
HETATM   14  C   UNL     1       5.632  32.533  59.983  1.00  0.00     0.252 C 
HETATM   15  N   UNL     1       5.942  32.910  61.269  1.00  0.00    -0.353 N 
HETATM   16  H   UNL     1       6.740  32.517  61.748  1.00  0.00     0.163 HD
HETATM   17  O   UNL     1       4.634  32.911  59.382  1.00  0.00    -0.268 OA
BRANCH  15  18
HETATM   18  C   UNL     1       5.081  33.793  62.027  1.00  0.00     0.161 C 
BRANCH  18  19
HETATM   19  C   UNL     1       5.474  33.848  63.483  1.00  0.00    -0.041 A 
HETATM   20  C   UNL     1       6.813  33.692  63.862  1.00  0.00     0.009 A 
HETATM   21  C   UNL     1       7.192  33.796  65.203  1.00  0.00     0.007 A 
HETATM   22  C   UNL     1       6.239  34.060  66.192  1.00  0.00    -0.062 A 
HETATM   23  C   UNL     1       6.636  34.199  67.632  1.00  0.00     0.048 C 
HETATM   24  C   UNL     1       4.901  34.227  65.817  1.00  0.00     0.007 A 
HETATM   25  C   UNL     1       4.524  34.129  64.476  1.00  0.00     0.009 A 
ENDBRANCH  18  19
ENDBRANCH  15  18
ENDBRANCH   1  14
BRANCH   6  26
HETATM   26  C   UNL     1       7.746  26.740  57.229  1.00  0.00     0.103 C 
BRANCH  26  27
HETATM   27  S   UNL     1       6.891  25.519  56.178  1.00  0.00    -0.162 SA
BRANCH  27  28
HETATM   28  C   UNL     1       7.977  24.093  56.494  1.00  0.00     0.114 C 
BRANCH  28  29
HETATM   29  C   UNL     1       7.965  23.113  55.349  1.00  0.00    -0.027 A 
HETATM   30  C   UNL     1       8.118  21.729  55.532  1.00  0.00     0.041 A 
HETATM   31 CL   UNL     1       8.346  21.031  57.098  1.00  0.00    -0.084 Cl
HETATM   32  C   UNL     1       8.098  20.859  54.437  1.00  0.00     0.024 A 
HETATM   33  C   UNL     1       7.917  21.357  53.148  1.00  0.00     0.002 A 
HETATM   34  C   UNL     1       7.751  22.725  52.951  1.00  0.00     0.001 A 
HETATM   35  C   UNL     1       7.772  23.596  54.041  1.00  0.00     0.009 A 
ENDBRANCH  28  29
ENDBRANCH  27  28
ENDBRANCH  26  27
ENDBRANCH   6  26
TORSDOF 7
ENDMDL
MODEL 7
REMARK VINA RESULT:      -9.9      3.318     10.323
REMARK  7 active torsions:
REMARK  status: ('A' for Active; 'I' for Inactive)
REMARK    1  A    between atoms: C_5  and  C_6 
REMARK    2  A    between atoms: C_6  and  N_7 
REMARK       I    between atoms: N_7  and  C_8 
REMARK    3  A    between atoms: C_8  and  C_9 
REMARK    4  A    between atoms: C_14  and  C_15 
REMARK    5  A    between atoms: C_15  and  S_16 
REMARK    6  A    between atoms: S_16  and  C_17 
REMARK    7  A    between atoms: C_17  and  C_18 
ROOT
HETATM    1  C   UNL     1       6.704  28.084  57.219  1.00  0.00     0.034 A 
HETATM    2  C   UNL     1       6.973  29.420  57.533  1.00  0.00     0.048 A 
HETATM    3  C   UNL     1       5.927  30.339  57.578  1.00  0.00     0.057 A 
HETATM    4  C   UNL     1       4.603  29.948  57.302  1.00  0.00     0.036 A 
HETATM    5  N   UNL     1       3.564  30.896  57.257  1.00  0.00    -0.277 NA
HETATM    6  C   UNL     1       3.775  32.080  58.140  1.00  0.00     0.162 C 
HETATM    7  C   UNL     1       5.215  32.620  58.026  1.00  0.00     0.240 C 
HETATM    8  O   UNL     1       5.503  33.809  58.143  1.00  0.00    -0.271 OA
HETATM    9  N   UNL     1       6.205  31.677  57.881  1.00  0.00    -0.324 N 
HETATM   10  C   UNL     1       4.361  28.627  56.915  1.00  0.00     0.027 A 
HETATM   11  C   UNL     1       5.402  27.691  56.891  1.00  0.00     0.019 A 
HETATM   12  H   UNL     1       2.636  30.491  57.333  1.00  0.00     0.128 HD
HETATM   13  H   UNL     1       7.158  32.014  57.913  1.00  0.00     0.169 HD
ENDROOT
BRANCH   1  14
HETATM   14  C   UNL     1       7.842  27.127  57.222  1.00  0.00     0.252 C 
HETATM   15  N   UNL     1       7.515  25.793  57.145  1.00  0.00    -0.353 N 
HETATM   16  H   UNL     1       6.550  25.495  57.120  1.00  0.00     0.163 HD
HETATM   17  O   UNL     1       8.987  27.544  57.338  1.00  0.00    -0.268 OA
BRANCH  15  18
HETATM   18  C   UNL     1       8.528  24.761  57.207  1.00  0.00     0.161 C 
BRANCH  18  19
HETATM   19  C   UNL     1       8.306  23.692  56.166  1.00  0.00    -0.041 A 
HETATM   20  C   UNL     1       8.066  24.042  54.831  1.00  0.00     0.009 A 
HETATM   21  C   UNL     1       7.915  23.057  53.850  1.00  0.00     0.007 A 
HETATM   22  C   UNL     1       8.002  21.702  54.186  1.00  0.00    -0.062 A 
HETATM   23  C   UNL     1       7.867  20.636  53.139  1.00  0.00     0.048 C 
HETATM   24  C   UNL     1       8.252  21.347  55.516  1.00  0.00     0.007 A 
HETATM   25  C   UNL     1       8.410  22.332  56.494  1.00  0.00     0.009 A 
ENDBRANCH  18  19
ENDBRANCH  15  18
ENDBRANCH   1  14
BRANCH   6  26
HETATM   26  C   UNL     1       3.460  31.684  59.599  1.00  0.00     0.103 C 
BRANCH  26  27
HETATM   27  S   UNL     1       3.931  32.939  60.835  1.00  0.00    -0.162 SA
BRANCH  27  28
HETATM   28  C   UNL     1       4.392  31.814  62.190  1.00  0.00     0.114 C 
BRANCH  28  29
HETATM   29  C   UNL     1       5.492  32.387  63.046  1.00  0.00    -0.027 A 
HETATM   30  C   UNL     1       6.851  32.273  62.712  1.00  0.00     0.041 A 
HETATM   31 CL   UNL     1       7.379  31.450  61.285  1.00  0.00    -0.084 Cl
HETATM   32  C   UNL     1       7.836  32.823  63.538  1.00  0.00     0.024 A 
HETATM   33  C   UNL     1       7.479  33.500  64.703  1.00  0.00     0.002 A 
HETATM   34  C   UNL     1       6.135  33.633  65.042  1.00  0.00     0.001 A 
HETATM   35  C   UNL     1       5.149  33.084  64.220  1.00  0.00     0.009 A 
ENDBRANCH  28  29
ENDBRANCH  27  28
ENDBRANCH  26  27
ENDBRANCH   6  26
TORSDOF 7
ENDMDL
MODEL 8
REMARK VINA RESULT:      -9.8      1.950      2.418
REMARK  7 active torsions:
REMARK  status: ('A' for Active; 'I' for Inactive)
REMARK    1  A    between atoms: C_5  and  C_6 
REMARK    2  A    between atoms: C_6  and  N_7 
REMARK       I    between atoms: N_7  and  C_8 
REMARK    3  A    between atoms: C_8  and  C_9 
REMARK    4  A    between atoms: C_14  and  C_15 
REMARK    5  A    between atoms: C_15  and  S_16 
REMARK    6  A    between atoms: S_16  and  C_17 
REMARK    7  A    between atoms: C_17  and  C_18 
ROOT
HETATM    1  C   UNL     1       8.054  30.970  58.707  1.00  0.00     0.034 A 
HETATM    2  C   UNL     1       6.861  30.878  57.984  1.00  0.00     0.048 A 
HETATM    3  C   UNL     1       6.780  30.007  56.900  1.00  0.00     0.057 A 
HETATM    4  C   UNL     1       7.885  29.225  56.511  1.00  0.00     0.036 A 
HETATM    5  N   UNL     1       7.829  28.418  55.360  1.00  0.00    -0.277 NA
HETATM    6  C   UNL     1       6.464  27.915  55.029  1.00  0.00     0.162 C 
HETATM    7  C   UNL     1       5.407  29.032  55.146  1.00  0.00     0.240 C 
HETATM    8  O   UNL     1       4.405  29.094  54.436  1.00  0.00    -0.271 OA
HETATM    9  N   UNL     1       5.587  29.928  56.173  1.00  0.00    -0.324 N 
HETATM   10  C   UNL     1       9.093  29.385  57.195  1.00  0.00     0.027 A 
HETATM   11  C   UNL     1       9.176  30.238  58.302  1.00  0.00     0.019 A 
HETATM   12  H   UNL     1       8.546  27.699  55.328  1.00  0.00     0.128 HD
HETATM   13  H   UNL     1       4.843  30.598  56.323  1.00  0.00     0.169 HD
ENDROOT
BRANCH   1  14
HETATM   14  C   UNL     1       8.086  31.879  59.883  1.00  0.00     0.252 C 
HETATM   15  N   UNL     1       7.128  31.663  60.845  1.00  0.00    -0.353 N 
HETATM   16  H   UNL     1       6.428  30.945  60.730  1.00  0.00     0.163 HD
HETATM   17  O   UNL     1       8.908  32.786  59.927  1.00  0.00    -0.268 OA
BRANCH  15  18
HETATM   18  C   UNL     1       7.012  32.523  62.004  1.00  0.00     0.161 C 
BRANCH  18  19
HETATM   19  C   UNL     1       6.025  33.642  61.777  1.00  0.00    -0.041 A 
HETATM   20  C   UNL     1       6.104  34.820  62.530  1.00  0.00     0.009 A 
HETATM   21  C   UNL     1       5.229  35.883  62.288  1.00  0.00     0.007 A 
HETATM   22  C   UNL     1       4.257  35.787  61.286  1.00  0.00    -0.062 A 
HETATM   23  C   UNL     1       3.328  36.929  60.999  1.00  0.00     0.048 C 
HETATM   24  C   UNL     1       4.180  34.616  60.524  1.00  0.00     0.007 A 
HETATM   25  C   UNL     1       5.060  33.558  60.763  1.00  0.00     0.009 A 
ENDBRANCH  18  19
ENDBRANCH  15  18
ENDBRANCH   1  14
BRANCH   6  26
HETATM   26  C   UNL     1       6.116  26.741  55.967  1.00  0.00     0.103 C 
BRANCH  26  27
HETATM   27  S   UNL     1       5.898  25.141  55.119  1.00  0.00    -0.162 SA
BRANCH  27  28
HETATM   28  C   UNL     1       7.584  24.493  55.344  1.00  0.00     0.114 C 
BRANCH  28  29
HETATM   29  C   UNL     1       7.727  23.098  54.790  1.00  0.00    -0.027 A 
HETATM   30  C   UNL     1       7.890  22.838  53.420  1.00  0.00     0.041 A 
HETATM   31 CL   UNL     1       7.931  24.106  52.244  1.00  0.00    -0.084 Cl
HETATM   32  C   UNL     1       8.021  21.525  52.954  1.00  0.00     0.024 A 
HETATM   33  C   UNL     1       7.997  20.457  53.849  1.00  0.00     0.002 A 
HETATM   34  C   UNL     1       7.848  20.699  55.212  1.00  0.00     0.001 A 
HETATM   35  C   UNL     1       7.716  22.007  55.680  1.00  0.00     0.009 A 
ENDBRANCH  28  29
ENDBRANCH  27  28
ENDBRANCH  26  27
ENDBRANCH   6  26
TORSDOF 7
ENDMDL
MODEL 9
REMARK VINA RESULT:      -9.5      4.048      5.055
REMARK  7 active torsions:
REMARK  status: ('A' for Active; 'I' for Inactive)
REMARK    1  A    between atoms: C_5  and  C_6 
REMARK    2  A    between atoms: C_6  and  N_7 
REMARK       I    between atoms: N_7  and  C_8 
REMARK    3  A    between atoms: C_8  and  C_9 
REMARK    4  A    between atoms: C_14  and  C_15 
REMARK    5  A    between atoms: C_15  and  S_16 
REMARK    6  A    between atoms: S_16  and  C_17 
REMARK    7  A    between atoms: C_17  and  C_18 
ROOT
HETATM    1  C   UNL     1       7.466  29.248  57.824  1.00  0.00     0.034 A 
HETATM    2  C   UNL     1       7.825  27.982  57.351  1.00  0.00     0.048 A 
HETATM    3  C   UNL     1       6.963  27.296  56.499  1.00  0.00     0.057 A 
HETATM    4  C   UNL     1       5.727  27.851  56.113  1.00  0.00     0.036 A 
HETATM    5  N   UNL     1       4.818  27.117  55.330  1.00  0.00    -0.277 NA
HETATM    6  C   UNL     1       5.458  26.127  54.414  1.00  0.00     0.162 C 
HETATM    7  C   UNL     1       6.562  25.325  55.132  1.00  0.00     0.240 C 
HETATM    8  O   UNL     1       6.830  24.155  54.867  1.00  0.00    -0.271 OA
HETATM    9  N   UNL     1       7.323  26.024  56.040  1.00  0.00    -0.324 N 
HETATM   10  C   UNL     1       5.348  29.083  56.655  1.00  0.00     0.027 A 
HETATM   11  C   UNL     1       6.220  29.791  57.491  1.00  0.00     0.019 A 
HETATM   12  H   UNL     1       4.109  27.689  54.880  1.00  0.00     0.128 HD
HETATM   13  H   UNL     1       8.116  25.535  56.435  1.00  0.00     0.169 HD
ENDROOT
BRANCH   1  14
HETATM   14  C   UNL     1       8.432  29.964  58.696  1.00  0.00     0.252 C 
HETATM   15  N   UNL     1       8.087  30.077  60.023  1.00  0.00    -0.353 N 
HETATM   16  H   UNL     1       7.207  29.716  60.364  1.00  0.00     0.163 HD
HETATM   17  O   UNL     1       9.444  30.453  58.210  1.00  0.00    -0.268 OA
BRANCH  15  18
HETATM   18  C   UNL     1       8.912  30.810  60.960  1.00  0.00     0.161 C 
BRANCH  18  19
HETATM   19  C   UNL     1       8.123  31.862  61.699  1.00  0.00    -0.041 A 
HETATM   20  C   UNL     1       7.113  32.580  61.046  1.00  0.00     0.009 A 
HETATM   21  C   UNL     1       6.341  33.517  61.739  1.00  0.00     0.007 A 
HETATM   22  C   UNL     1       6.564  33.754  63.099  1.00  0.00    -0.062 A 
HETATM   23  C   UNL     1       5.726  34.739  63.860  1.00  0.00     0.048 C 
HETATM   24  C   UNL     1       7.564  33.032  63.759  1.00  0.00     0.007 A 
HETATM   25  C   UNL     1       8.331  32.091  63.068  1.00  0.00     0.009 A 
ENDBRANCH  18  19
ENDBRANCH  15  18
ENDBRANCH   1  14
BRANCH   6  26
HETATM   26  C   UNL     1       6.037  26.871  53.192  1.00  0.00     0.103 C 
BRANCH  26  27
HETATM   27  S   UNL     1       5.714  26.051  51.594  1.00  0.00    -0.162 SA
BRANCH  27  28
HETATM   28  C   UNL     1       5.311  27.533  50.616  1.00  0.00     0.114 C 
BRANCH  28  29
HETATM   29  C   UNL     1       4.162  27.286  49.672  1.00  0.00    -0.027 A 
HETATM   30  C   UNL     1       3.085  28.177  49.536  1.00  0.00     0.041 A 
HETATM   31 CL   UNL     1       2.983  29.638  50.456  1.00  0.00    -0.084 Cl
HETATM   32  C   UNL     1       2.043  27.905  48.644  1.00  0.00     0.024 A 
HETATM   33  C   UNL     1       2.064  26.744  47.872  1.00  0.00     0.002 A 
HETATM   34  C   UNL     1       3.131  25.857  47.986  1.00  0.00     0.001 A 
HETATM   35  C   UNL     1       4.172  26.125  48.875  1.00  0.00     0.009 A 
ENDBRANCH  28  29
ENDBRANCH  27  28
ENDBRANCH  26  27
ENDBRANCH   6  26
TORSDOF 7
ENDMDL
MODEL 10
REMARK VINA RESULT:      -9.5      3.492     10.223
REMARK  7 active torsions:
REMARK  status: ('A' for Active; 'I' for Inactive)
REMARK    1  A    between atoms: C_5  and  C_6 
REMARK    2  A    between atoms: C_6  and  N_7 
REMARK       I    between atoms: N_7  and  C_8 
REMARK    3  A    between atoms: C_8  and  C_9 
REMARK    4  A    between atoms: C_14  and  C_15 
REMARK    5  A    between atoms: C_15  and  S_16 
REMARK    6  A    between atoms: S_16  and  C_17 
REMARK    7  A    between atoms: C_17  and  C_18 
ROOT
HETATM    1  C   UNL     1       5.723  28.047  54.827  1.00  0.00     0.034 A 
HETATM    2  C   UNL     1       4.812  29.043  54.461  1.00  0.00     0.048 A 
HETATM    3  C   UNL     1       4.212  29.821  55.449  1.00  0.00     0.057 A 
HETATM    4  C   UNL     1       4.496  29.614  56.812  1.00  0.00     0.036 A 
HETATM    5  N   UNL     1       3.818  30.336  57.810  1.00  0.00    -0.277 NA
HETATM    6  C   UNL     1       3.372  31.696  57.387  1.00  0.00     0.162 C 
HETATM    7  C   UNL     1       2.724  31.668  55.987  1.00  0.00     0.240 C 
HETATM    8  O   UNL     1       1.813  32.420  55.648  1.00  0.00    -0.271 OA
HETATM    9  N   UNL     1       3.292  30.808  55.076  1.00  0.00    -0.324 N 
HETATM   10  C   UNL     1       5.349  28.564  57.166  1.00  0.00     0.027 A 
HETATM   11  C   UNL     1       5.977  27.794  56.180  1.00  0.00     0.019 A 
HETATM   12  H   UNL     1       4.282  30.323  58.713  1.00  0.00     0.128 HD
HETATM   13  H   UNL     1       2.943  30.861  54.128  1.00  0.00     0.169 HD
ENDROOT
BRANCH   1  14
HETATM   14  C   UNL     1       6.374  27.268  53.741  1.00  0.00     0.252 C 
HETATM   15  N   UNL     1       7.009  26.108  54.121  1.00  0.00    -0.353 N 
HETATM   16  H   UNL     1       7.050  25.832  55.092  1.00  0.00     0.163 HD
HETATM   17  O   UNL     1       6.362  27.697  52.594  1.00  0.00    -0.268 OA
BRANCH  15  18
HETATM   18  C   UNL     1       7.737  25.297  53.168  1.00  0.00     0.161 C 
BRANCH  18  19
HETATM   19  C   UNL     1       7.955  23.893  53.676  1.00  0.00    -0.041 A 
HETATM   20  C   UNL     1       7.845  22.800  52.808  1.00  0.00     0.009 A 
HETATM   21  C   UNL     1       8.100  21.502  53.258  1.00  0.00     0.007 A 
HETATM   22  C   UNL     1       8.471  21.271  54.587  1.00  0.00    -0.062 A 
HETATM   23  C   UNL     1       8.772  19.885  55.077  1.00  0.00     0.048 C 
HETATM   24  C   UNL     1       8.592  22.361  55.456  1.00  0.00     0.007 A 
HETATM   25  C   UNL     1       8.344  23.659  55.004  1.00  0.00     0.009 A 
ENDBRANCH  18  19
ENDBRANCH  15  18
ENDBRANCH   1  14
BRANCH   6  26
HETATM   26  C   UNL     1       4.583  32.653  57.403  1.00  0.00     0.103 C 
BRANCH  26  27
HETATM   27  S   UNL     1       5.026  33.273  59.060  1.00  0.00    -0.162 SA
BRANCH  27  28
HETATM   28  C   UNL     1       6.442  32.175  59.382  1.00  0.00     0.114 C 
BRANCH  28  29
HETATM   29  C   UNL     1       6.977  32.344  60.781  1.00  0.00    -0.027 A 
HETATM   30  C   UNL     1       8.190  31.776  61.204  1.00  0.00     0.041 A 
HETATM   31 CL   UNL     1       9.172  30.820  60.149  1.00  0.00    -0.084 Cl
HETATM   32  C   UNL     1       8.645  31.963  62.514  1.00  0.00     0.024 A 
HETATM   33  C   UNL     1       7.901  32.723  63.414  1.00  0.00     0.002 A 
HETATM   34  C   UNL     1       6.703  33.303  63.007  1.00  0.00     0.001 A 
HETATM   35  C   UNL     1       6.245  33.118  61.701  1.00  0.00     0.009 A 
ENDBRANCH  28  29
ENDBRANCH  27  28
ENDBRANCH  26  27
ENDBRANCH   6  26
TORSDOF 7
ENDMDL
