MODEL 1
REMARK VINA RESULT:      -8.5      0.000      0.000
REMARK  4 active torsions:
REMARK  status: ('A' for Active; 'I' for Inactive)
REMARK    1  A    between atoms: C_9  and  N_10 
REMARK    2  A    between atoms: N_10  and  C_12 
REMARK    3  A    between atoms: C_12  and  C_13 
REMARK    4  A    between atoms: C_14  and  C_15 
ROOT
HETATM    1  C   UNL     1       6.095  26.456  53.472  1.00  0.00     0.016 A 
HETATM    2  C   UNL     1       5.720  27.470  54.407  1.00  0.00     0.096 A 
HETATM    3  N   UNL     1       4.417  27.756  54.305  1.00  0.00    -0.174 NA
HETATM    4  N   UNL     1       3.982  27.036  53.266  1.00  0.00    -0.288 N 
HETATM    5  H   UNL     1       3.012  27.143  52.977  1.00  0.00     0.188 HD
HETATM    6  C   UNL     1       4.941  26.214  52.751  1.00  0.00     0.120 A 
ENDROOT
BRANCH   1   7
HETATM    7  C   UNL     1       7.412  25.781  53.314  1.00  0.00     0.277 C 
BRANCH   7   8
HETATM    8  N   UNL     1       7.410  24.311  53.699  1.00  0.00    -0.065 N 
HETATM    9  H   UNL     1       6.463  24.069  54.020  1.00  0.00     0.280 HD
HETATM   10  C   UNL     1       7.769  23.420  52.539  1.00  0.00     0.270 C 
BRANCH   8  11
HETATM   11  C   UNL     1       8.433  24.109  54.776  1.00  0.00     0.205 C 
HETATM   12  C   UNL     1       7.969  24.283  56.267  1.00  0.00     0.008 C 
HETATM   13  C   UNL     1       8.600  25.511  56.935  1.00  0.00     0.020 C 
HETATM   14  C   UNL     1       6.484  24.202  56.627  1.00  0.00     0.020 C 
HETATM   15  C   UNL     1       8.764  22.978  56.593  1.00  0.00     0.137 C 
HETATM   16  C   UNL     1       8.804  22.631  55.091  1.00  0.00     0.049 C 
HETATM   17  O   UNL     1       8.067  21.930  57.294  1.00  0.00    -0.385 OA
HETATM   18  C   UNL     1       7.841  21.442  55.031  1.00  0.00     0.035 C 
HETATM   19  C   UNL     1       7.934  20.808  56.416  1.00  0.00     0.168 C 
ENDBRANCH   8  11
ENDBRANCH   7   8
ENDBRANCH   1   7
BRANCH   2  20
HETATM   20  C   UNL     1       6.543  28.113  55.424  1.00  0.00    -0.002 A 
HETATM   21  C   UNL     1       7.810  28.606  55.101  1.00  0.00     0.053 A 
HETATM   22  C   UNL     1       8.602  29.192  56.088  1.00  0.00     0.103 A 
HETATM   23  C   UNL     1       8.142  29.278  57.404  1.00  0.00     0.102 A 
HETATM   24  O   UNL     1       9.833  29.647  55.694  1.00  0.00    -0.346 OA
HETATM   25  O   UNL     1       8.880  29.811  58.426  1.00  0.00    -0.346 OA
HETATM   26  C   UNL     1       6.865  28.823  57.723  1.00  0.00     0.040 A 
HETATM   27  C   UNL     1      10.254  29.992  58.061  1.00  0.00     0.202 C 
HETATM   28  C   UNL     1      10.375  30.563  56.656  1.00  0.00     0.202 C 
HETATM   29  C   UNL     1       6.065  28.244  56.735  1.00  0.00     0.017 A 
ENDBRANCH   2  20
TORSDOF 4
ENDMDL
MODEL 2
REMARK VINA RESULT:      -8.3      1.699      6.343
REMARK  4 active torsions:
REMARK  status: ('A' for Active; 'I' for Inactive)
REMARK    1  A    between atoms: C_9  and  N_10 
REMARK    2  A    between atoms: N_10  and  C_12 
REMARK    3  A    between atoms: C_12  and  C_13 
REMARK    4  A    between atoms: C_14  and  C_15 
ROOT
HETATM    1  C   UNL     1       6.187  27.188  52.815  1.00  0.00     0.016 A 
HETATM    2  C   UNL     1       5.926  25.784  52.760  1.00  0.00     0.096 A 
HETATM    3  N   UNL     1       5.113  25.490  51.739  1.00  0.00    -0.174 NA
HETATM    4  N   UNL     1       4.767  26.670  51.216  1.00  0.00    -0.288 N 
HETATM    5  H   UNL     1       4.102  26.681  50.446  1.00  0.00     0.188 HD
HETATM    6  C   UNL     1       5.411  27.720  51.803  1.00  0.00     0.120 A 
ENDROOT
BRANCH   1   7
HETATM    7  C   UNL     1       7.107  27.925  53.724  1.00  0.00     0.277 C 
BRANCH   7   8
HETATM    8  N   UNL     1       6.409  28.872  54.686  1.00  0.00    -0.065 N 
HETATM    9  H   UNL     1       6.845  29.799  54.589  1.00  0.00     0.280 HD
HETATM   10  C   UNL     1       4.937  28.997  54.394  1.00  0.00     0.270 C 
BRANCH   8  11
HETATM   11  C   UNL     1       6.565  28.326  56.073  1.00  0.00     0.205 C 
HETATM   12  C   UNL     1       7.993  28.382  56.726  1.00  0.00     0.008 C 
HETATM   13  C   UNL     1       8.604  26.988  56.914  1.00  0.00     0.020 C 
HETATM   14  C   UNL     1       9.052  29.343  56.182  1.00  0.00     0.020 C 
HETATM   15  C   UNL     1       7.300  28.887  58.032  1.00  0.00     0.137 C 
HETATM   16  C   UNL     1       6.033  29.230  57.222  1.00  0.00     0.049 C 
HETATM   17  O   UNL     1       7.808  30.094  58.633  1.00  0.00    -0.385 OA
HETATM   18  C   UNL     1       6.071  30.761  57.237  1.00  0.00     0.035 C 
HETATM   19  C   UNL     1       6.805  31.110  58.529  1.00  0.00     0.168 C 
ENDBRANCH   8  11
ENDBRANCH   7   8
ENDBRANCH   1   7
BRANCH   2  20
HETATM   20  C   UNL     1       6.475  24.727  53.599  1.00  0.00    -0.002 A 
HETATM   21  C   UNL     1       7.051  23.592  53.021  1.00  0.00     0.053 A 
HETATM   22  C   UNL     1       7.546  22.571  53.833  1.00  0.00     0.103 A 
HETATM   23  C   UNL     1       7.457  22.669  55.223  1.00  0.00     0.102 A 
HETATM   24  O   UNL     1       8.092  21.490  53.191  1.00  0.00    -0.346 OA
HETATM   25  O   UNL     1       7.893  21.691  56.076  1.00  0.00    -0.346 OA
HETATM   26  C   UNL     1       6.919  23.814  55.804  1.00  0.00     0.040 A 
HETATM   27  C   UNL     1       8.169  20.463  55.390  1.00  0.00     0.202 C 
HETATM   28  C   UNL     1       8.907  20.719  54.085  1.00  0.00     0.202 C 
HETATM   29  C   UNL     1       6.431  24.843  54.995  1.00  0.00     0.017 A 
ENDBRANCH   2  20
TORSDOF 4
ENDMDL
MODEL 3
REMARK VINA RESULT:      -8.2      3.966      5.778
REMARK  4 active torsions:
REMARK  status: ('A' for Active; 'I' for Inactive)
REMARK    1  A    between atoms: C_9  and  N_10 
REMARK    2  A    between atoms: N_10  and  C_12 
REMARK    3  A    between atoms: C_12  and  C_13 
REMARK    4  A    between atoms: C_14  and  C_15 
ROOT
HETATM    1  C   UNL     1       8.793  29.274  57.660  1.00  0.00     0.016 A 
HETATM    2  C   UNL     1       9.217  30.345  58.506  1.00  0.00     0.096 A 
HETATM    3  N   UNL     1      10.296  30.953  58.002  1.00  0.00    -0.174 NA
HETATM    4  N   UNL     1      10.631  30.237  56.925  1.00  0.00    -0.288 N 
HETATM    5  H   UNL     1      11.468  30.500  56.410  1.00  0.00     0.188 HD
HETATM    6  C   UNL     1       9.741  29.238  56.655  1.00  0.00     0.120 A 
ENDROOT
BRANCH   1   7
HETATM    7  C   UNL     1       7.591  28.407  57.793  1.00  0.00     0.277 C 
BRANCH   7   8
HETATM    8  N   UNL     1       7.646  27.131  56.971  1.00  0.00    -0.065 N 
HETATM    9  H   UNL     1       8.448  27.202  56.330  1.00  0.00     0.280 HD
HETATM   10  C   UNL     1       7.823  25.907  57.832  1.00  0.00     0.270 C 
BRANCH   8  11
HETATM   11  C   UNL     1       6.350  26.995  56.230  1.00  0.00     0.205 C 
HETATM   12  C   UNL     1       6.253  27.642  54.801  1.00  0.00     0.008 C 
HETATM   13  C   UNL     1       5.288  28.834  54.764  1.00  0.00     0.020 C 
HETATM   14  C   UNL     1       7.525  27.980  54.020  1.00  0.00     0.020 C 
HETATM   15  C   UNL     1       5.559  26.325  54.329  1.00  0.00     0.137 C 
HETATM   16  C   UNL     1       6.075  25.604  55.590  1.00  0.00     0.049 C 
HETATM   17  O   UNL     1       6.097  25.668  53.165  1.00  0.00    -0.385 OA
HETATM   18  C   UNL     1       7.138  24.677  54.993  1.00  0.00     0.035 C 
HETATM   19  C   UNL     1       6.656  24.414  53.569  1.00  0.00     0.168 C 
ENDBRANCH   8  11
ENDBRANCH   7   8
ENDBRANCH   1   7
BRANCH   2  20
HETATM   20  C   UNL     1       8.591  30.836  59.727  1.00  0.00    -0.002 A 
HETATM   21  C   UNL     1       7.419  31.595  59.666  1.00  0.00     0.053 A 
HETATM   22  C   UNL     1       6.845  32.088  60.838  1.00  0.00     0.103 A 
HETATM   23  C   UNL     1       7.443  31.838  62.075  1.00  0.00     0.102 A 
HETATM   24  O   UNL     1       5.700  32.826  60.694  1.00  0.00    -0.346 OA
HETATM   25  O   UNL     1       6.951  32.318  63.260  1.00  0.00    -0.346 OA
HETATM   26  C   UNL     1       8.590  31.051  62.146  1.00  0.00     0.040 A 
HETATM   27  C   UNL     1       5.951  33.324  63.058  1.00  0.00     0.202 C 
HETATM   28  C   UNL     1       4.997  32.932  61.941  1.00  0.00     0.202 C 
HETATM   29  C   UNL     1       9.162  30.548  60.975  1.00  0.00     0.017 A 
ENDBRANCH   2  20
TORSDOF 4
ENDMDL
MODEL 4
REMARK VINA RESULT:      -8.2      3.031      4.896
REMARK  4 active torsions:
REMARK  status: ('A' for Active; 'I' for Inactive)
REMARK    1  A    between atoms: C_9  and  N_10 
REMARK    2  A    between atoms: N_10  and  C_12 
REMARK    3  A    between atoms: C_12  and  C_13 
REMARK    4  A    between atoms: C_14  and  C_15 
ROOT
HETATM    1  C   UNL     1       7.689  27.355  56.539  1.00  0.00     0.016 A 
HETATM    2  C   UNL     1       7.314  28.400  55.639  1.00  0.00     0.096 A 
HETATM    3  N   UNL     1       8.187  29.411  55.690  1.00  0.00    -0.174 NA
HETATM    4  N   UNL     1       9.039  29.089  56.669  1.00  0.00    -0.288 N 
HETATM    5  H   UNL     1       9.768  29.755  56.914  1.00  0.00     0.188 HD
HETATM    6  C   UNL     1       8.805  27.849  57.188  1.00  0.00     0.120 A 
ENDROOT
BRANCH   1   7
HETATM    7  C   UNL     1       7.057  26.021  56.728  1.00  0.00     0.277 C 
BRANCH   7   8
HETATM    8  N   UNL     1       7.899  24.855  56.238  1.00  0.00    -0.065 N 
HETATM    9  H   UNL     1       8.677  25.238  55.684  1.00  0.00     0.280 HD
HETATM   10  C   UNL     1       8.467  24.047  57.375  1.00  0.00     0.270 C 
BRANCH   8  11
HETATM   11  C   UNL     1       7.022  23.956  55.420  1.00  0.00     0.205 C 
HETATM   12  C   UNL     1       6.894  24.259  53.884  1.00  0.00     0.008 C 
HETATM   13  C   UNL     1       5.488  24.739  53.498  1.00  0.00     0.020 C 
HETATM   14  C   UNL     1       7.946  25.116  53.177  1.00  0.00     0.020 C 
HETATM   15  C   UNL     1       7.066  22.727  53.638  1.00  0.00     0.137 C 
HETATM   16  C   UNL     1       7.617  22.563  55.069  1.00  0.00     0.049 C 
HETATM   17  O   UNL     1       8.077  22.311  52.700  1.00  0.00    -0.385 OA
HETATM   18  C   UNL     1       9.095  22.273  54.791  1.00  0.00     0.035 C 
HETATM   19  C   UNL     1       9.100  21.611  53.415  1.00  0.00     0.168 C 
ENDBRANCH   8  11
ENDBRANCH   7   8
ENDBRANCH   1   7
BRANCH   2  20
HETATM   20  C   UNL     1       6.201  28.428  54.699  1.00  0.00    -0.002 A 
HETATM   21  C   UNL     1       6.430  28.294  53.326  1.00  0.00     0.053 A 
HETATM   22  C   UNL     1       5.361  28.354  52.432  1.00  0.00     0.103 A 
HETATM   23  C   UNL     1       4.062  28.561  52.899  1.00  0.00     0.102 A 
HETATM   24  O   UNL     1       5.668  28.218  51.103  1.00  0.00    -0.346 OA
HETATM   25  O   UNL     1       2.973  28.663  52.074  1.00  0.00    -0.346 OA
HETATM   26  C   UNL     1       3.823  28.658  54.267  1.00  0.00     0.040 A 
HETATM   27  C   UNL     1       3.351  28.826  50.702  1.00  0.00     0.202 C 
HETATM   28  C   UNL     1       4.498  27.897  50.336  1.00  0.00     0.202 C 
HETATM   29  C   UNL     1       4.889  28.589  55.167  1.00  0.00     0.017 A 
ENDBRANCH   2  20
TORSDOF 4
ENDMDL
MODEL 5
REMARK VINA RESULT:      -8.1      3.943      5.696
REMARK  4 active torsions:
REMARK  status: ('A' for Active; 'I' for Inactive)
REMARK    1  A    between atoms: C_9  and  N_10 
REMARK    2  A    between atoms: N_10  and  C_12 
REMARK    3  A    between atoms: C_12  and  C_13 
REMARK    4  A    between atoms: C_14  and  C_15 
ROOT
HETATM    1  C   UNL     1       8.860  29.282  57.801  1.00  0.00     0.016 A 
HETATM    2  C   UNL     1       9.093  30.531  58.457  1.00  0.00     0.096 A 
HETATM    3  N   UNL     1      10.198  31.119  57.985  1.00  0.00    -0.174 NA
HETATM    4  N   UNL     1      10.728  30.236  57.133  1.00  0.00    -0.288 N 
HETATM    5  H   UNL     1      11.615  30.464  56.691  1.00  0.00     0.188 HD
HETATM    6  C   UNL     1       9.946  29.131  56.961  1.00  0.00     0.120 A 
ENDROOT
BRANCH   1   7
HETATM    7  C   UNL     1       7.704  28.358  57.951  1.00  0.00     0.277 C 
BRANCH   7   8
HETATM    8  N   UNL     1       6.921  28.123  56.670  1.00  0.00    -0.065 N 
HETATM    9  H   UNL     1       5.961  27.860  56.930  1.00  0.00     0.280 HD
HETATM   10  C   UNL     1       6.866  29.354  55.804  1.00  0.00     0.270 C 
BRANCH   8  11
HETATM   11  C   UNL     1       7.606  27.038  55.896  1.00  0.00     0.205 C 
HETATM   12  C   UNL     1       7.329  25.550  56.320  1.00  0.00     0.008 C 
HETATM   13  C   UNL     1       8.569  24.875  56.920  1.00  0.00     0.020 C 
HETATM   14  C   UNL     1       6.094  25.203  57.153  1.00  0.00     0.020 C 
HETATM   15  C   UNL     1       7.173  25.220  54.801  1.00  0.00     0.137 C 
HETATM   16  C   UNL     1       7.007  26.722  54.495  1.00  0.00     0.049 C 
HETATM   17  O   UNL     1       5.979  24.527  54.389  1.00  0.00    -0.385 OA
HETATM   18  C   UNL     1       5.522  26.792  54.128  1.00  0.00     0.035 C 
HETATM   19  C   UNL     1       5.203  25.408  53.571  1.00  0.00     0.168 C 
ENDBRANCH   8  11
ENDBRANCH   7   8
ENDBRANCH   1   7
BRANCH   2  20
HETATM   20  C   UNL     1       8.267  31.197  59.456  1.00  0.00    -0.002 A 
HETATM   21  C   UNL     1       8.683  31.262  60.789  1.00  0.00     0.053 A 
HETATM   22  C   UNL     1       7.871  31.874  61.743  1.00  0.00     0.103 A 
HETATM   23  C   UNL     1       6.635  32.413  61.378  1.00  0.00     0.102 A 
HETATM   24  O   UNL     1       8.346  31.894  63.028  1.00  0.00    -0.346 OA
HETATM   25  O   UNL     1       5.776  32.998  62.269  1.00  0.00    -0.346 OA
HETATM   26  C   UNL     1       6.233  32.384  60.045  1.00  0.00     0.040 A 
HETATM   27  C   UNL     1       6.148  32.734  63.627  1.00  0.00     0.202 C 
HETATM   28  C   UNL     1       7.651  32.869  63.819  1.00  0.00     0.202 C 
HETATM   29  C   UNL     1       7.048  31.780  59.084  1.00  0.00     0.017 A 
ENDBRANCH   2  20
TORSDOF 4
ENDMDL
MODEL 6
REMARK VINA RESULT:      -8.0      3.340      5.316
REMARK  4 active torsions:
REMARK  status: ('A' for Active; 'I' for Inactive)
REMARK    1  A    between atoms: C_9  and  N_10 
REMARK    2  A    between atoms: N_10  and  C_12 
REMARK    3  A    between atoms: C_12  and  C_13 
REMARK    4  A    between atoms: C_14  and  C_15 
ROOT
HETATM    1  C   UNL     1       6.131  27.007  54.455  1.00  0.00     0.016 A 
HETATM    2  C   UNL     1       5.136  27.675  53.675  1.00  0.00     0.096 A 
HETATM    3  N   UNL     1       4.125  28.091  54.445  1.00  0.00    -0.174 NA
HETATM    4  N   UNL     1       4.395  27.615  55.665  1.00  0.00    -0.288 N 
HETATM    5  H   UNL     1       3.718  27.776  56.407  1.00  0.00     0.188 HD
HETATM    6  C   UNL     1       5.604  26.987  55.733  1.00  0.00     0.120 A 
ENDROOT
BRANCH   1   7
HETATM    7  C   UNL     1       7.451  26.478  54.018  1.00  0.00     0.277 C 
BRANCH   7   8
HETATM    8  N   UNL     1       7.419  25.039  53.534  1.00  0.00    -0.065 N 
HETATM    9  H   UNL     1       6.479  24.664  53.718  1.00  0.00     0.280 HD
HETATM   10  C   UNL     1       7.702  24.929  52.059  1.00  0.00     0.270 C 
BRANCH   8  11
HETATM   11  C   UNL     1       8.478  24.275  54.270  1.00  0.00     0.205 C 
HETATM   12  C   UNL     1       8.113  23.695  55.685  1.00  0.00     0.008 C 
HETATM   13  C   UNL     1       8.882  24.390  56.816  1.00  0.00     0.020 C 
HETATM   14  C   UNL     1       6.648  23.514  56.088  1.00  0.00     0.020 C 
HETATM   15  C   UNL     1       8.810  22.369  55.245  1.00  0.00     0.137 C 
HETATM   16  C   UNL     1       8.738  22.824  53.773  1.00  0.00     0.049 C 
HETATM   17  O   UNL     1       8.065  21.144  55.389  1.00  0.00    -0.385 OA
HETATM   18  C   UNL     1       7.675  21.873  53.215  1.00  0.00     0.035 C 
HETATM   19  C   UNL     1       7.789  20.624  54.085  1.00  0.00     0.168 C 
ENDBRANCH   8  11
ENDBRANCH   7   8
ENDBRANCH   1   7
BRANCH   2  20
HETATM   20  C   UNL     1       5.157  27.980  52.250  1.00  0.00    -0.002 A 
HETATM   21  C   UNL     1       4.836  26.995  51.311  1.00  0.00     0.053 A 
HETATM   22  C   UNL     1       4.890  27.288  49.948  1.00  0.00     0.103 A 
HETATM   23  C   UNL     1       5.274  28.558  49.514  1.00  0.00     0.102 A 
HETATM   24  O   UNL     1       4.566  26.269  49.091  1.00  0.00    -0.346 OA
HETATM   25  O   UNL     1       5.379  28.903  48.193  1.00  0.00    -0.346 OA
HETATM   26  C   UNL     1       5.558  29.554  50.446  1.00  0.00     0.040 A 
HETATM   27  C   UNL     1       5.338  27.756  47.334  1.00  0.00     0.202 C 
HETATM   28  C   UNL     1       4.267  26.774  47.782  1.00  0.00     0.202 C 
HETATM   29  C   UNL     1       5.497  29.267  51.812  1.00  0.00     0.017 A 
ENDBRANCH   2  20
TORSDOF 4
ENDMDL
MODEL 7
REMARK VINA RESULT:      -8.0      4.516      7.034
REMARK  4 active torsions:
REMARK  status: ('A' for Active; 'I' for Inactive)
REMARK    1  A    between atoms: C_9  and  N_10 
REMARK    2  A    between atoms: N_10  and  C_12 
REMARK    3  A    between atoms: C_12  and  C_13 
REMARK    4  A    between atoms: C_14  and  C_15 
ROOT
HETATM    1  C   UNL     1       8.909  30.110  58.323  1.00  0.00     0.016 A 
HETATM    2  C   UNL     1       9.183  31.298  59.069  1.00  0.00     0.096 A 
HETATM    3  N   UNL     1      10.192  31.984  58.523  1.00  0.00    -0.174 NA
HETATM    4  N   UNL     1      10.635  31.217  57.522  1.00  0.00    -0.288 N 
HETATM    5  H   UNL     1      11.446  31.531  56.994  1.00  0.00     0.188 HD
HETATM    6  C   UNL     1       9.878  30.097  57.337  1.00  0.00     0.120 A 
ENDROOT
BRANCH   1   7
HETATM    7  C   UNL     1       7.817  29.119  58.523  1.00  0.00     0.277 C 
BRANCH   7   8
HETATM    8  N   UNL     1       7.342  28.446  57.247  1.00  0.00    -0.065 N 
HETATM    9  H   UNL     1       7.682  29.001  56.451  1.00  0.00     0.280 HD
HETATM   10  C   UNL     1       7.868  27.041  57.116  1.00  0.00     0.270 C 
BRANCH   8  11
HETATM   11  C   UNL     1       5.845  28.381  57.283  1.00  0.00     0.205 C 
HETATM   12  C   UNL     1       5.046  29.658  56.835  1.00  0.00     0.008 C 
HETATM   13  C   UNL     1       4.300  30.319  58.000  1.00  0.00     0.020 C 
HETATM   14  C   UNL     1       5.724  30.730  55.979  1.00  0.00     0.020 C 
HETATM   15  C   UNL     1       4.114  28.705  56.021  1.00  0.00     0.137 C 
HETATM   16  C   UNL     1       5.171  27.587  56.127  1.00  0.00     0.049 C 
HETATM   17  O   UNL     1       3.899  29.010  54.630  1.00  0.00    -0.385 OA
HETATM   18  C   UNL     1       5.681  27.516  54.685  1.00  0.00     0.035 C 
HETATM   19  C   UNL     1       4.495  27.976  53.841  1.00  0.00     0.168 C 
ENDBRANCH   8  11
ENDBRANCH   7   8
ENDBRANCH   1   7
BRANCH   2  20
HETATM   20  C   UNL     1       8.474  31.821  60.231  1.00  0.00    -0.002 A 
HETATM   21  C   UNL     1       7.195  32.367  60.093  1.00  0.00     0.053 A 
HETATM   22  C   UNL     1       6.538  32.893  61.206  1.00  0.00     0.103 A 
HETATM   23  C   UNL     1       7.157  32.890  62.458  1.00  0.00     0.102 A 
HETATM   24  O   UNL     1       5.290  33.414  60.989  1.00  0.00    -0.346 OA
HETATM   25  O   UNL     1       6.583  33.418  63.583  1.00  0.00    -0.346 OA
HETATM   26  C   UNL     1       8.416  32.313  62.608  1.00  0.00     0.040 A 
HETATM   27  C   UNL     1       5.435  34.219  63.275  1.00  0.00     0.202 C 
HETATM   28  C   UNL     1       4.567  33.549  62.221  1.00  0.00     0.202 C 
HETATM   29  C   UNL     1       9.073  31.776  61.498  1.00  0.00     0.017 A 
ENDBRANCH   2  20
TORSDOF 4
ENDMDL
MODEL 8
REMARK VINA RESULT:      -7.6      3.478      7.693
REMARK  4 active torsions:
REMARK  status: ('A' for Active; 'I' for Inactive)
REMARK    1  A    between atoms: C_9  and  N_10 
REMARK    2  A    between atoms: N_10  and  C_12 
REMARK    3  A    between atoms: C_12  and  C_13 
REMARK    4  A    between atoms: C_14  and  C_15 
ROOT
HETATM    1  C   UNL     1       5.821  27.453  53.565  1.00  0.00     0.016 A 
HETATM    2  C   UNL     1       6.911  26.722  54.132  1.00  0.00     0.096 A 
HETATM    3  N   UNL     1       7.614  27.488  54.974  1.00  0.00    -0.174 NA
HETATM    4  N   UNL     1       7.070  28.705  54.876  1.00  0.00    -0.288 N 
HETATM    5  H   UNL     1       7.491  29.466  55.404  1.00  0.00     0.188 HD
HETATM    6  C   UNL     1       5.970  28.731  54.070  1.00  0.00     0.120 A 
ENDROOT
BRANCH   1   7
HETATM    7  C   UNL     1       4.744  26.962  52.664  1.00  0.00     0.277 C 
BRANCH   7   8
HETATM    8  N   UNL     1       4.977  27.255  51.192  1.00  0.00    -0.065 N 
HETATM    9  H   UNL     1       5.887  27.727  51.104  1.00  0.00     0.280 HD
HETATM   10  C   UNL     1       5.001  26.000  50.359  1.00  0.00     0.270 C 
BRANCH   8  11
HETATM   11  C   UNL     1       3.853  28.118  50.703  1.00  0.00     0.205 C 
HETATM   12  C   UNL     1       4.056  29.676  50.741  1.00  0.00     0.008 C 
HETATM   13  C   UNL     1       3.142  30.359  51.765  1.00  0.00     0.020 C 
HETATM   14  C   UNL     1       5.465  30.267  50.826  1.00  0.00     0.020 C 
HETATM   15  C   UNL     1       3.445  29.720  49.304  1.00  0.00     0.137 C 
HETATM   16  C   UNL     1       3.684  28.204  49.159  1.00  0.00     0.049 C 
HETATM   17  O   UNL     1       4.192  30.408  48.282  1.00  0.00    -0.385 OA
HETATM   18  C   UNL     1       4.826  28.175  48.139  1.00  0.00     0.035 C 
HETATM   19  C   UNL     1       4.633  29.447  47.318  1.00  0.00     0.168 C 
ENDBRANCH   8  11
ENDBRANCH   7   8
ENDBRANCH   1   7
BRANCH   2  20
HETATM   20  C   UNL     1       7.253  25.318  53.945  1.00  0.00    -0.002 A 
HETATM   21  C   UNL     1       7.283  24.445  55.037  1.00  0.00     0.053 A 
HETATM   22  C   UNL     1       7.643  23.110  54.853  1.00  0.00     0.103 A 
HETATM   23  C   UNL     1       7.987  22.641  53.584  1.00  0.00     0.102 A 
HETATM   24  O   UNL     1       7.652  22.320  55.973  1.00  0.00    -0.346 OA
HETATM   25  O   UNL     1       8.380  21.352  53.339  1.00  0.00    -0.346 OA
HETATM   26  C   UNL     1       7.923  23.496  52.487  1.00  0.00     0.040 A 
HETATM   27  C   UNL     1       8.676  20.641  54.548  1.00  0.00     0.202 C 
HETATM   28  C   UNL     1       7.637  20.929  55.620  1.00  0.00     0.202 C 
HETATM   29  C   UNL     1       7.554  24.831  52.665  1.00  0.00     0.017 A 
ENDBRANCH   2  20
TORSDOF 4
ENDMDL
MODEL 9
REMARK VINA RESULT:      -7.5      9.017     12.730
REMARK  4 active torsions:
REMARK  status: ('A' for Active; 'I' for Inactive)
REMARK    1  A    between atoms: C_9  and  N_10 
REMARK    2  A    between atoms: N_10  and  C_12 
REMARK    3  A    between atoms: C_12  and  C_13 
REMARK    4  A    between atoms: C_14  and  C_15 
ROOT
HETATM    1  C   UNL     1       5.092  32.955  60.780  1.00  0.00     0.016 A 
HETATM    2  C   UNL     1       6.075  32.561  61.741  1.00  0.00     0.096 A 
HETATM    3  N   UNL     1       6.979  31.743  61.191  1.00  0.00    -0.174 NA
HETATM    4  N   UNL     1       6.541  31.523  59.947  1.00  0.00    -0.288 N 
HETATM    5  H   UNL     1       7.063  30.877  59.359  1.00  0.00     0.188 HD
HETATM    6  C   UNL     1       5.431  32.254  59.639  1.00  0.00     0.120 A 
ENDROOT
BRANCH   1   7
HETATM    7  C   UNL     1       3.973  33.923  60.942  1.00  0.00     0.277 C 
BRANCH   7   8
HETATM    8  N   UNL     1       4.139  35.209  60.150  1.00  0.00    -0.065 N 
HETATM    9  H   UNL     1       5.144  35.352  59.985  1.00  0.00     0.280 HD
HETATM   10  C   UNL     1       3.436  35.151  58.819  1.00  0.00     0.270 C 
BRANCH   8  11
HETATM   11  C   UNL     1       3.539  36.328  60.945  1.00  0.00     0.205 C 
HETATM   12  C   UNL     1       4.327  36.832  62.209  1.00  0.00     0.008 C 
HETATM   13  C   UNL     1       3.598  36.507  63.519  1.00  0.00     0.020 C 
HETATM   14  C   UNL     1       5.820  36.529  62.357  1.00  0.00     0.020 C 
HETATM   15  C   UNL     1       4.028  38.288  61.729  1.00  0.00     0.137 C 
HETATM   16  C   UNL     1       3.675  37.750  60.327  1.00  0.00     0.049 C 
HETATM   17  O   UNL     1       5.142  39.194  61.612  1.00  0.00    -0.385 OA
HETATM   18  C   UNL     1       4.866  38.249  59.504  1.00  0.00     0.035 C 
HETATM   19  C   UNL     1       5.325  39.512  60.229  1.00  0.00     0.168 C 
ENDBRANCH   8  11
ENDBRANCH   7   8
ENDBRANCH   1   7
BRANCH   2  20
HETATM   20  C   UNL     1       6.209  32.989  63.127  1.00  0.00    -0.002 A 
HETATM   21  C   UNL     1       5.074  33.190  63.919  1.00  0.00     0.053 A 
HETATM   22  C   UNL     1       5.212  33.630  65.236  1.00  0.00     0.103 A 
HETATM   23  C   UNL     1       6.479  33.886  65.765  1.00  0.00     0.102 A 
HETATM   24  O   UNL     1       4.053  33.807  65.945  1.00  0.00    -0.346 OA
HETATM   25  O   UNL     1       6.683  34.350  67.037  1.00  0.00    -0.346 OA
HETATM   26  C   UNL     1       7.614  33.652  64.993  1.00  0.00     0.040 A 
HETATM   27  C   UNL     1       5.469  34.813  67.642  1.00  0.00     0.202 C 
HETATM   28  C   UNL     1       4.317  33.863  67.355  1.00  0.00     0.202 C 
HETATM   29  C   UNL     1       7.480  33.202  63.677  1.00  0.00     0.017 A 
ENDBRANCH   2  20
TORSDOF 4
ENDMDL
MODEL 10
REMARK VINA RESULT:      -7.5      4.091      8.091
REMARK  4 active torsions:
REMARK  status: ('A' for Active; 'I' for Inactive)
REMARK    1  A    between atoms: C_9  and  N_10 
REMARK    2  A    between atoms: N_10  and  C_12 
REMARK    3  A    between atoms: C_12  and  C_13 
REMARK    4  A    between atoms: C_14  and  C_15 
ROOT
HETATM    1  C   UNL     1       4.637  27.263  52.827  1.00  0.00     0.016 A 
HETATM    2  C   UNL     1       5.337  26.572  53.864  1.00  0.00     0.096 A 
HETATM    3  N   UNL     1       5.009  27.056  55.067  1.00  0.00    -0.174 NA
HETATM    4  N   UNL     1       4.209  28.098  54.818  1.00  0.00    -0.288 N 
HETATM    5  H   UNL     1       3.878  28.651  55.605  1.00  0.00     0.188 HD
HETATM    6  C   UNL     1       3.927  28.245  53.491  1.00  0.00     0.120 A 
ENDROOT
BRANCH   1   7
HETATM    7  C   UNL     1       4.633  26.984  51.365  1.00  0.00     0.277 C 
BRANCH   7   8
HETATM    8  N   UNL     1       4.485  28.218  50.493  1.00  0.00    -0.065 N 
HETATM    9  H   UNL     1       3.611  28.691  50.760  1.00  0.00     0.280 HD
HETATM   10  C   UNL     1       5.628  29.182  50.673  1.00  0.00     0.270 C 
BRANCH   8  11
HETATM   11  C   UNL     1       4.467  27.779  49.060  1.00  0.00     0.205 C 
HETATM   12  C   UNL     1       3.080  27.386  48.433  1.00  0.00     0.008 C 
HETATM   13  C   UNL     1       2.987  25.888  48.114  1.00  0.00     0.020 C 
HETATM   14  C   UNL     1       1.778  27.860  49.082  1.00  0.00     0.020 C 
HETATM   15  C   UNL     1       3.492  28.217  47.176  1.00  0.00     0.137 C 
HETATM   16  C   UNL     1       4.595  28.911  48.001  1.00  0.00     0.049 C 
HETATM   17  O   UNL     1       2.567  29.216  46.705  1.00  0.00    -0.385 OA
HETATM   18  C   UNL     1       4.024  30.325  48.139  1.00  0.00     0.035 C 
HETATM   19  C   UNL     1       3.154  30.506  46.897  1.00  0.00     0.168 C 
ENDBRANCH   8  11
ENDBRANCH   7   8
ENDBRANCH   1   7
BRANCH   2  20
HETATM   20  C   UNL     1       6.245  25.438  53.744  1.00  0.00    -0.002 A 
HETATM   21  C   UNL     1       6.331  24.489  54.768  1.00  0.00     0.053 A 
HETATM   22  C   UNL     1       7.226  23.425  54.657  1.00  0.00     0.103 A 
HETATM   23  C   UNL     1       8.046  23.306  53.534  1.00  0.00     0.102 A 
HETATM   24  O   UNL     1       7.255  22.540  55.704  1.00  0.00    -0.346 OA
HETATM   25  O   UNL     1       8.968  22.305  53.376  1.00  0.00    -0.346 OA
HETATM   26  C   UNL     1       7.937  24.226  52.494  1.00  0.00     0.040 A 
HETATM   27  C   UNL     1       9.194  21.587  54.596  1.00  0.00     0.202 C 
HETATM   28  C   UNL     1       7.886  21.310  55.319  1.00  0.00     0.202 C 
HETATM   29  C   UNL     1       7.036  25.289  52.597  1.00  0.00     0.017 A 
ENDBRANCH   2  20
TORSDOF 4
ENDMDL
