MODEL 1
REMARK VINA RESULT:     -10.0      0.000      0.000
REMARK  3 active torsions:
REMARK  status: ('A' for Active; 'I' for Inactive)
REMARK    1  A    between atoms: C_3  and  N_4 
REMARK       I    between atoms: N_4  and  C_5 
REMARK    2  A    between atoms: C_5  and  C_6 
REMARK    3  A    between atoms: C_6  and  N_7 
ROOT
HETATM    1  N   UNL     1       6.722  25.725  56.165  1.00  0.00    -0.367 N 
HETATM    2  C   UNL     1       6.673  25.261  54.930  1.00  0.00     0.108 C 
HETATM    3  C   UNL     1       7.223  23.915  54.630  1.00  0.00     0.014 A 
HETATM    4  C   UNL     1       7.516  23.581  53.292  1.00  0.00    -0.042 A 
HETATM    5  C   UNL     1       8.047  22.327  52.970  1.00  0.00     0.008 A 
HETATM    6  C   UNL     1       8.253  21.380  53.969  1.00  0.00     0.001 A 
HETATM    7  C   UNL     1       7.935  21.681  55.289  1.00  0.00     0.001 A 
HETATM    8  C   UNL     1       7.423  22.938  55.620  1.00  0.00     0.016 A 
HETATM    9  C   UNL     1       7.278  24.611  52.217  1.00  0.00     0.069 C 
HETATM   10  C   UNL     1       6.052  25.488  52.539  1.00  0.00     0.028 C 
HETATM   11  C   UNL     1       6.054  26.727  51.637  1.00  0.00     0.038 C 
HETATM   12  C   UNL     1       4.728  24.733  52.372  1.00  0.00     0.038 C 
HETATM   13  N   UNL     1       6.125  25.967  53.947  1.00  0.00    -0.367 N 
HETATM   14  H   UNL     1       5.767  26.888  54.147  1.00  0.00     0.162 HD
HETATM   15  H   UNL     1       7.297  25.217  56.837  1.00  0.00     0.161 HD
ENDROOT
BRANCH   1  16
HETATM   16  C   UNL     1       6.114  26.963  56.675  1.00  0.00     0.224 C 
BRANCH  16  17
HETATM   17  C   UNL     1       7.180  27.674  57.503  1.00  0.00     0.239 C 
HETATM   18  N   UNL     1       7.147  29.052  57.410  1.00  0.00    -0.325 N 
HETATM   19  H   UNL     1       6.328  29.488  57.007  1.00  0.00     0.169 HD
HETATM   20  O   UNL     1       7.899  27.007  58.243  1.00  0.00    -0.271 OA
BRANCH  18  21
HETATM   21  C   UNL     1       8.093  29.952  57.960  1.00  0.00     0.040 A 
HETATM   22  C   UNL     1       9.335  30.125  57.311  1.00  0.00    -0.035 A 
HETATM   23  C   UNL     1       9.674  29.459  56.005  1.00  0.00     0.050 C 
HETATM   24  C   UNL     1      10.306  30.954  57.899  1.00  0.00     0.009 A 
HETATM   25  C   UNL     1      10.052  31.614  59.100  1.00  0.00     0.001 A 
HETATM   26  C   UNL     1       8.823  31.455  59.727  1.00  0.00     0.002 A 
HETATM   27  C   UNL     1       7.848  30.630  59.161  1.00  0.00     0.030 A 
ENDBRANCH  18  21
ENDBRANCH  16  17
ENDBRANCH   1  16
TORSDOF 3
ENDMDL
MODEL 2
REMARK VINA RESULT:      -9.5      4.687      7.823
REMARK  3 active torsions:
REMARK  status: ('A' for Active; 'I' for Inactive)
REMARK    1  A    between atoms: C_3  and  N_4 
REMARK       I    between atoms: N_4  and  C_5 
REMARK    2  A    between atoms: C_5  and  C_6 
REMARK    3  A    between atoms: C_6  and  N_7 
ROOT
HETATM    1  N   UNL     1       5.818  26.062  50.819  1.00  0.00    -0.367 N 
HETATM    2  C   UNL     1       5.083  27.032  50.309  1.00  0.00     0.108 C 
HETATM    3  C   UNL     1       4.201  26.752  49.148  1.00  0.00     0.014 A 
HETATM    4  C   UNL     1       3.721  27.832  48.380  1.00  0.00    -0.042 A 
HETATM    5  C   UNL     1       2.897  27.608  47.270  1.00  0.00     0.008 A 
HETATM    6  C   UNL     1       2.512  26.313  46.939  1.00  0.00     0.001 A 
HETATM    7  C   UNL     1       2.948  25.239  47.709  1.00  0.00     0.001 A 
HETATM    8  C   UNL     1       3.786  25.454  48.805  1.00  0.00     0.016 A 
HETATM    9  C   UNL     1       4.137  29.232  48.755  1.00  0.00     0.069 C 
HETATM   10  C   UNL     1       4.292  29.383  50.281  1.00  0.00     0.028 C 
HETATM   11  C   UNL     1       5.049  30.678  50.595  1.00  0.00     0.038 C 
HETATM   12  C   UNL     1       2.944  29.386  51.012  1.00  0.00     0.038 C 
HETATM   13  N   UNL     1       5.099  28.257  50.824  1.00  0.00    -0.367 N 
HETATM   14  H   UNL     1       5.711  28.452  51.602  1.00  0.00     0.162 HD
HETATM   15  H   UNL     1       5.891  25.196  50.285  1.00  0.00     0.161 HD
ENDROOT
BRANCH   1  16
HETATM   16  C   UNL     1       6.639  26.114  52.038  1.00  0.00     0.224 C 
BRANCH  16  17
HETATM   17  C   UNL     1       6.422  24.799  52.778  1.00  0.00     0.239 C 
HETATM   18  N   UNL     1       7.586  24.167  53.171  1.00  0.00    -0.325 N 
HETATM   19  H   UNL     1       8.450  24.694  53.149  1.00  0.00     0.169 HD
HETATM   20  O   UNL     1       5.275  24.455  53.051  1.00  0.00    -0.271 OA
BRANCH  18  21
HETATM   21  C   UNL     1       7.687  22.879  53.751  1.00  0.00     0.040 A 
HETATM   22  C   UNL     1       7.614  22.750  55.155  1.00  0.00    -0.035 A 
HETATM   23  C   UNL     1       7.345  23.914  56.070  1.00  0.00     0.050 C 
HETATM   24  C   UNL     1       7.797  21.483  55.737  1.00  0.00     0.009 A 
HETATM   25  C   UNL     1       8.033  20.360  54.948  1.00  0.00     0.001 A 
HETATM   26  C   UNL     1       8.089  20.487  53.566  1.00  0.00     0.002 A 
HETATM   27  C   UNL     1       7.915  21.739  52.970  1.00  0.00     0.030 A 
ENDBRANCH  18  21
ENDBRANCH  16  17
ENDBRANCH   1  16
TORSDOF 3
ENDMDL
MODEL 3
REMARK VINA RESULT:      -9.5      3.878      7.413
REMARK  3 active torsions:
REMARK  status: ('A' for Active; 'I' for Inactive)
REMARK    1  A    between atoms: C_3  and  N_4 
REMARK       I    between atoms: N_4  and  C_5 
REMARK    2  A    between atoms: C_5  and  C_6 
REMARK    3  A    between atoms: C_6  and  N_7 
ROOT
HETATM    1  N   UNL     1       7.133  24.419  52.589  1.00  0.00    -0.367 N 
HETATM    2  C   UNL     1       7.376  24.031  53.827  1.00  0.00     0.108 C 
HETATM    3  C   UNL     1       7.786  22.628  54.088  1.00  0.00     0.014 A 
HETATM    4  C   UNL     1       7.676  22.118  55.398  1.00  0.00    -0.042 A 
HETATM    5  C   UNL     1       8.041  20.797  55.683  1.00  0.00     0.008 A 
HETATM    6  C   UNL     1       8.556  19.985  54.677  1.00  0.00     0.001 A 
HETATM    7  C   UNL     1       8.704  20.484  53.386  1.00  0.00     0.001 A 
HETATM    8  C   UNL     1       8.323  21.795  53.092  1.00  0.00     0.016 A 
HETATM    9  C   UNL     1       7.128  23.011  56.482  1.00  0.00     0.069 C 
HETATM   10  C   UNL     1       7.537  24.481  56.262  1.00  0.00     0.028 C 
HETATM   11  C   UNL     1       6.683  25.392  57.151  1.00  0.00     0.038 C 
HETATM   12  C   UNL     1       9.023  24.727  56.549  1.00  0.00     0.038 C 
HETATM   13  N   UNL     1       7.278  24.874  54.849  1.00  0.00    -0.367 N 
HETATM   14  H   UNL     1       6.983  25.823  54.674  1.00  0.00     0.162 HD
HETATM   15  H   UNL     1       7.061  23.696  51.874  1.00  0.00     0.161 HD
ENDROOT
BRANCH   1  16
HETATM   16  C   UNL     1       6.851  25.786  52.125  1.00  0.00     0.224 C 
BRANCH  16  17
HETATM   17  C   UNL     1       5.511  25.741  51.398  1.00  0.00     0.239 C 
HETATM   18  N   UNL     1       5.457  26.515  50.255  1.00  0.00    -0.325 N 
HETATM   19  H   UNL     1       6.326  26.862  49.868  1.00  0.00     0.169 HD
HETATM   20  O   UNL     1       4.641  24.974  51.804  1.00  0.00    -0.271 OA
BRANCH  18  21
HETATM   21  C   UNL     1       4.309  26.765  49.464  1.00  0.00     0.040 A 
HETATM   22  C   UNL     1       3.610  27.980  49.632  1.00  0.00    -0.035 A 
HETATM   23  C   UNL     1       4.078  29.071  50.558  1.00  0.00     0.050 C 
HETATM   24  C   UNL     1       2.424  28.195  48.908  1.00  0.00     0.009 A 
HETATM   25  C   UNL     1       1.943  27.234  48.021  1.00  0.00     0.001 A 
HETATM   26  C   UNL     1       2.641  26.046  47.846  1.00  0.00     0.002 A 
HETATM   27  C   UNL     1       3.819  25.813  48.561  1.00  0.00     0.030 A 
ENDBRANCH  18  21
ENDBRANCH  16  17
ENDBRANCH   1  16
TORSDOF 3
ENDMDL
MODEL 4
REMARK VINA RESULT:      -9.4      1.240      1.883
REMARK  3 active torsions:
REMARK  status: ('A' for Active; 'I' for Inactive)
REMARK    1  A    between atoms: C_3  and  N_4 
REMARK       I    between atoms: N_4  and  C_5 
REMARK    2  A    between atoms: C_5  and  C_6 
REMARK    3  A    between atoms: C_6  and  N_7 
ROOT
HETATM    1  N   UNL     1       7.328  26.844  55.776  1.00  0.00    -0.367 N 
HETATM    2  C   UNL     1       7.105  26.095  54.712  1.00  0.00     0.108 C 
HETATM    3  C   UNL     1       7.721  24.747  54.623  1.00  0.00     0.014 A 
HETATM    4  C   UNL     1       7.804  24.117  53.365  1.00  0.00    -0.042 A 
HETATM    5  C   UNL     1       8.388  22.851  53.237  1.00  0.00     0.008 A 
HETATM    6  C   UNL     1       8.858  22.185  54.364  1.00  0.00     0.001 A 
HETATM    7  C   UNL     1       8.752  22.778  55.618  1.00  0.00     0.001 A 
HETATM    8  C   UNL     1       8.188  24.049  55.750  1.00  0.00     0.016 A 
HETATM    9  C   UNL     1       7.280  24.845  52.152  1.00  0.00     0.069 C 
HETATM   10  C   UNL     1       6.052  25.708  52.500  1.00  0.00     0.028 C 
HETATM   11  C   UNL     1       5.774  26.693  51.358  1.00  0.00     0.038 C 
HETATM   12  C   UNL     1       4.799  24.867  52.769  1.00  0.00     0.038 C 
HETATM   13  N   UNL     1       6.327  26.515  53.721  1.00  0.00    -0.367 N 
HETATM   14  H   UNL     1       5.922  27.437  53.774  1.00  0.00     0.162 HD
HETATM   15  H   UNL     1       8.059  26.544  56.420  1.00  0.00     0.161 HD
ENDROOT
BRANCH   1  16
HETATM   16  C   UNL     1       6.703  28.135  56.101  1.00  0.00     0.224 C 
BRANCH  16  17
HETATM   17  C   UNL     1       7.283  28.587  57.437  1.00  0.00     0.239 C 
HETATM   18  N   UNL     1       7.081  29.923  57.724  1.00  0.00    -0.325 N 
HETATM   19  H   UNL     1       6.405  30.436  57.173  1.00  0.00     0.169 HD
HETATM   20  O   UNL     1       7.781  27.745  58.182  1.00  0.00    -0.271 OA
BRANCH  18  21
HETATM   21  C   UNL     1       7.622  30.637  58.821  1.00  0.00     0.040 A 
HETATM   22  C   UNL     1       6.901  31.727  59.354  1.00  0.00    -0.035 A 
HETATM   23  C   UNL     1       5.532  32.119  58.866  1.00  0.00     0.050 C 
HETATM   24  C   UNL     1       7.474  32.488  60.389  1.00  0.00     0.009 A 
HETATM   25  C   UNL     1       8.731  32.170  60.899  1.00  0.00     0.001 A 
HETATM   26  C   UNL     1       9.431  31.087  60.384  1.00  0.00     0.002 A 
HETATM   27  C   UNL     1       8.880  30.324  59.352  1.00  0.00     0.030 A 
ENDBRANCH  18  21
ENDBRANCH  16  17
ENDBRANCH   1  16
TORSDOF 3
ENDMDL
MODEL 5
REMARK VINA RESULT:      -9.4      2.010      7.484
REMARK  3 active torsions:
REMARK  status: ('A' for Active; 'I' for Inactive)
REMARK    1  A    between atoms: C_3  and  N_4 
REMARK       I    between atoms: N_4  and  C_5 
REMARK    2  A    between atoms: C_5  and  C_6 
REMARK    3  A    between atoms: C_6  and  N_7 
ROOT
HETATM    1  N   UNL     1       7.797  27.718  54.254  1.00  0.00    -0.367 N 
HETATM    2  C   UNL     1       7.322  28.518  55.192  1.00  0.00     0.108 C 
HETATM    3  C   UNL     1       8.261  29.196  56.120  1.00  0.00     0.014 A 
HETATM    4  C   UNL     1       7.762  29.727  57.327  1.00  0.00    -0.042 A 
HETATM    5  C   UNL     1       8.617  30.364  58.234  1.00  0.00     0.008 A 
HETATM    6  C   UNL     1       9.967  30.513  57.932  1.00  0.00     0.001 A 
HETATM    7  C   UNL     1      10.469  30.025  56.730  1.00  0.00     0.001 A 
HETATM    8  C   UNL     1       9.625  29.372  55.829  1.00  0.00     0.016 A 
HETATM    9  C   UNL     1       6.295  29.571  57.638  1.00  0.00     0.069 C 
HETATM   10  C   UNL     1       5.438  29.633  56.358  1.00  0.00     0.028 C 
HETATM   11  C   UNL     1       4.026  29.117  56.659  1.00  0.00     0.038 C 
HETATM   12  C   UNL     1       5.355  31.047  55.773  1.00  0.00     0.038 C 
HETATM   13  N   UNL     1       6.019  28.744  55.314  1.00  0.00    -0.367 N 
HETATM   14  H   UNL     1       5.380  28.271  54.694  1.00  0.00     0.162 HD
HETATM   15  H   UNL     1       8.780  27.454  54.313  1.00  0.00     0.161 HD
ENDROOT
BRANCH   1  16
HETATM   16  C   UNL     1       7.041  27.074  53.170  1.00  0.00     0.224 C 
BRANCH  16  17
HETATM   17  C   UNL     1       6.735  25.651  53.626  1.00  0.00     0.239 C 
HETATM   18  N   UNL     1       7.844  24.832  53.717  1.00  0.00    -0.325 N 
HETATM   19  H   UNL     1       8.761  25.259  53.699  1.00  0.00     0.169 HD
HETATM   20  O   UNL     1       5.588  25.370  53.964  1.00  0.00    -0.271 OA
BRANCH  18  21
HETATM   21  C   UNL     1       7.840  23.441  53.984  1.00  0.00     0.040 A 
HETATM   22  C   UNL     1       7.923  22.996  55.321  1.00  0.00    -0.035 A 
HETATM   23  C   UNL     1       7.931  23.938  56.495  1.00  0.00     0.050 C 
HETATM   24  C   UNL     1       8.002  21.617  55.582  1.00  0.00     0.009 A 
HETATM   25  C   UNL     1       7.984  20.690  54.542  1.00  0.00     0.001 A 
HETATM   26  C   UNL     1       7.886  21.129  53.229  1.00  0.00     0.002 A 
HETATM   27  C   UNL     1       7.812  22.496  52.950  1.00  0.00     0.030 A 
ENDBRANCH  18  21
ENDBRANCH  16  17
ENDBRANCH   1  16
TORSDOF 3
ENDMDL
MODEL 6
REMARK VINA RESULT:      -9.3      3.614      7.936
REMARK  3 active torsions:
REMARK  status: ('A' for Active; 'I' for Inactive)
REMARK    1  A    between atoms: C_3  and  N_4 
REMARK       I    between atoms: N_4  and  C_5 
REMARK    2  A    between atoms: C_5  and  C_6 
REMARK    3  A    between atoms: C_6  and  N_7 
ROOT
HETATM    1  N   UNL     1       6.115  26.917  52.313  1.00  0.00    -0.367 N 
HETATM    2  C   UNL     1       6.325  26.421  53.518  1.00  0.00     0.108 C 
HETATM    3  C   UNL     1       6.872  25.048  53.661  1.00  0.00     0.014 A 
HETATM    4  C   UNL     1       6.741  24.388  54.900  1.00  0.00    -0.042 A 
HETATM    5  C   UNL     1       7.233  23.088  55.072  1.00  0.00     0.008 A 
HETATM    6  C   UNL     1       7.893  22.450  54.026  1.00  0.00     0.001 A 
HETATM    7  C   UNL     1       8.061  23.101  52.808  1.00  0.00     0.001 A 
HETATM    8  C   UNL     1       7.556  24.390  52.625  1.00  0.00     0.016 A 
HETATM    9  C   UNL     1       6.035  25.095  56.029  1.00  0.00     0.069 C 
HETATM   10  C   UNL     1       6.291  26.614  55.991  1.00  0.00     0.028 C 
HETATM   11  C   UNL     1       5.291  27.328  56.907  1.00  0.00     0.038 C 
HETATM   12  C   UNL     1       7.721  26.980  56.407  1.00  0.00     0.038 C 
HETATM   13  N   UNL     1       6.075  27.132  54.612  1.00  0.00    -0.367 N 
HETATM   14  H   UNL     1       5.688  28.058  54.515  1.00  0.00     0.162 HD
HETATM   15  H   UNL     1       6.166  26.273  51.523  1.00  0.00     0.161 HD
ENDROOT
BRANCH   1  16
HETATM   16  C   UNL     1       5.712  28.290  51.974  1.00  0.00     0.224 C 
BRANCH  16  17
HETATM   17  C   UNL     1       5.137  28.248  50.562  1.00  0.00     0.239 C 
HETATM   18  N   UNL     1       3.991  27.487  50.435  1.00  0.00    -0.325 N 
HETATM   19  H   UNL     1       3.504  27.207  51.277  1.00  0.00     0.169 HD
HETATM   20  O   UNL     1       5.651  28.947  49.691  1.00  0.00    -0.271 OA
BRANCH  18  21
HETATM   21  C   UNL     1       3.326  27.166  49.227  1.00  0.00     0.040 A 
HETATM   22  C   UNL     1       2.165  27.885  48.869  1.00  0.00    -0.035 A 
HETATM   23  C   UNL     1       1.642  29.044  49.673  1.00  0.00     0.050 C 
HETATM   24  C   UNL     1       1.457  27.513  47.713  1.00  0.00     0.009 A 
HETATM   25  C   UNL     1       1.895  26.459  46.913  1.00  0.00     0.001 A 
HETATM   26  C   UNL     1       3.046  25.764  47.259  1.00  0.00     0.002 A 
HETATM   27  C   UNL     1       3.759  26.116  48.407  1.00  0.00     0.030 A 
ENDBRANCH  18  21
ENDBRANCH  16  17
ENDBRANCH   1  16
TORSDOF 3
ENDMDL
MODEL 7
REMARK VINA RESULT:      -9.1      1.887      7.735
REMARK  3 active torsions:
REMARK  status: ('A' for Active; 'I' for Inactive)
REMARK    1  A    between atoms: C_3  and  N_4 
REMARK       I    between atoms: N_4  and  C_5 
REMARK    2  A    between atoms: C_5  and  C_6 
REMARK    3  A    between atoms: C_6  and  N_7 
ROOT
HETATM    1  N   UNL     1       6.320  28.184  57.233  1.00  0.00    -0.367 N 
HETATM    2  C   UNL     1       6.345  29.426  57.681  1.00  0.00     0.108 C 
HETATM    3  C   UNL     1       7.649  30.072  57.976  1.00  0.00     0.014 A 
HETATM    4  C   UNL     1       7.672  31.221  58.792  1.00  0.00    -0.042 A 
HETATM    5  C   UNL     1       8.882  31.853  59.103  1.00  0.00     0.008 A 
HETATM    6  C   UNL     1      10.075  31.371  58.573  1.00  0.00     0.001 A 
HETATM    7  C   UNL     1      10.066  30.259  57.737  1.00  0.00     0.001 A 
HETATM    8  C   UNL     1       8.864  29.613  57.438  1.00  0.00     0.016 A 
HETATM    9  C   UNL     1       6.371  31.741  59.351  1.00  0.00     0.069 C 
HETATM   10  C   UNL     1       5.207  31.521  58.366  1.00  0.00     0.028 C 
HETATM   11  C   UNL     1       3.872  31.720  59.094  1.00  0.00     0.038 C 
HETATM   12  C   UNL     1       5.276  32.457  57.154  1.00  0.00     0.038 C 
HETATM   13  N   UNL     1       5.227  30.121  57.859  1.00  0.00    -0.367 N 
HETATM   14  H   UNL     1       4.341  29.676  57.675  1.00  0.00     0.162 HD
HETATM   15  H   UNL     1       7.188  27.650  57.275  1.00  0.00     0.161 HD
ENDROOT
BRANCH   1  16
HETATM   16  C   UNL     1       5.147  27.432  56.763  1.00  0.00     0.224 C 
BRANCH  16  17
HETATM   17  C   UNL     1       5.614  26.007  56.486  1.00  0.00     0.239 C 
HETATM   18  N   UNL     1       6.712  25.920  55.653  1.00  0.00    -0.325 N 
HETATM   19  H   UNL     1       7.247  26.759  55.472  1.00  0.00     0.169 HD
HETATM   20  O   UNL     1       5.068  25.079  57.079  1.00  0.00    -0.271 OA
BRANCH  18  21
HETATM   21  C   UNL     1       7.271  24.730  55.125  1.00  0.00     0.040 A 
HETATM   22  C   UNL     1       8.305  24.082  55.835  1.00  0.00    -0.035 A 
HETATM   23  C   UNL     1       8.788  24.548  57.182  1.00  0.00     0.050 C 
HETATM   24  C   UNL     1       8.917  22.948  55.272  1.00  0.00     0.009 A 
HETATM   25  C   UNL     1       8.508  22.453  54.036  1.00  0.00     0.001 A 
HETATM   26  C   UNL     1       7.480  23.084  53.347  1.00  0.00     0.002 A 
HETATM   27  C   UNL     1       6.863  24.215  53.888  1.00  0.00     0.030 A 
ENDBRANCH  18  21
ENDBRANCH  16  17
ENDBRANCH   1  16
TORSDOF 3
ENDMDL
MODEL 8
REMARK VINA RESULT:      -9.0      4.657      7.575
REMARK  3 active torsions:
REMARK  status: ('A' for Active; 'I' for Inactive)
REMARK    1  A    between atoms: C_3  and  N_4 
REMARK       I    between atoms: N_4  and  C_5 
REMARK    2  A    between atoms: C_5  and  C_6 
REMARK    3  A    between atoms: C_6  and  N_7 
ROOT
HETATM    1  N   UNL     1       5.926  26.285  52.113  1.00  0.00    -0.367 N 
HETATM    2  C   UNL     1       5.266  26.947  51.181  1.00  0.00     0.108 C 
HETATM    3  C   UNL     1       4.543  28.193  51.540  1.00  0.00     0.014 A 
HETATM    4  C   UNL     1       3.549  28.680  50.666  1.00  0.00    -0.042 A 
HETATM    5  C   UNL     1       2.837  29.845  50.975  1.00  0.00     0.008 A 
HETATM    6  C   UNL     1       3.133  30.557  52.133  1.00  0.00     0.001 A 
HETATM    7  C   UNL     1       4.135  30.108  52.988  1.00  0.00     0.001 A 
HETATM    8  C   UNL     1       4.836  28.936  52.696  1.00  0.00     0.016 A 
HETATM    9  C   UNL     1       3.245  27.908  49.408  1.00  0.00     0.069 C 
HETATM   10  C   UNL     1       4.512  27.242  48.836  1.00  0.00     0.028 C 
HETATM   11  C   UNL     1       4.116  26.192  47.792  1.00  0.00     0.038 C 
HETATM   12  C   UNL     1       5.476  28.255  48.205  1.00  0.00     0.038 C 
HETATM   13  N   UNL     1       5.247  26.532  49.919  1.00  0.00    -0.367 N 
HETATM   14  H   UNL     1       5.724  25.677  49.678  1.00  0.00     0.162 HD
HETATM   15  H   UNL     1       5.769  26.555  53.084  1.00  0.00     0.161 HD
ENDROOT
BRANCH   1  16
HETATM   16  C   UNL     1       6.804  25.120  51.923  1.00  0.00     0.224 C 
BRANCH  16  17
HETATM   17  C   UNL     1       6.775  24.326  53.225  1.00  0.00     0.239 C 
HETATM   18  N   UNL     1       7.903  23.561  53.450  1.00  0.00    -0.325 N 
HETATM   19  H   UNL     1       8.726  23.740  52.888  1.00  0.00     0.169 HD
HETATM   20  O   UNL     1       5.836  24.491  54.000  1.00  0.00    -0.271 OA
BRANCH  18  21
HETATM   21  C   UNL     1       8.090  22.630  54.501  1.00  0.00     0.040 A 
HETATM   22  C   UNL     1       8.038  21.249  54.213  1.00  0.00    -0.035 A 
HETATM   23  C   UNL     1       7.880  20.711  52.816  1.00  0.00     0.050 C 
HETATM   24  C   UNL     1       8.141  20.324  55.267  1.00  0.00     0.009 A 
HETATM   25  C   UNL     1       8.305  20.753  56.583  1.00  0.00     0.001 A 
HETATM   26  C   UNL     1       8.371  22.112  56.861  1.00  0.00     0.002 A 
HETATM   27  C   UNL     1       8.266  23.046  55.827  1.00  0.00     0.030 A 
ENDBRANCH  18  21
ENDBRANCH  16  17
ENDBRANCH   1  16
TORSDOF 3
ENDMDL
MODEL 9
REMARK VINA RESULT:      -9.0      5.214     10.170
REMARK  3 active torsions:
REMARK  status: ('A' for Active; 'I' for Inactive)
REMARK    1  A    between atoms: C_3  and  N_4 
REMARK       I    between atoms: N_4  and  C_5 
REMARK    2  A    between atoms: C_5  and  C_6 
REMARK    3  A    between atoms: C_6  and  N_7 
ROOT
HETATM    1  N   UNL     1       5.381  31.977  60.462  1.00  0.00    -0.367 N 
HETATM    2  C   UNL     1       4.994  32.834  61.389  1.00  0.00     0.108 C 
HETATM    3  C   UNL     1       5.822  33.018  62.608  1.00  0.00     0.014 A 
HETATM    4  C   UNL     1       5.241  33.621  63.742  1.00  0.00    -0.042 A 
HETATM    5  C   UNL     1       5.984  33.802  64.914  1.00  0.00     0.008 A 
HETATM    6  C   UNL     1       7.322  33.422  64.956  1.00  0.00     0.001 A 
HETATM    7  C   UNL     1       7.921  32.858  63.833  1.00  0.00     0.001 A 
HETATM    8  C   UNL     1       7.179  32.657  62.667  1.00  0.00     0.016 A 
HETATM    9  C   UNL     1       3.794  34.040  63.681  1.00  0.00     0.069 C 
HETATM   10  C   UNL     1       3.406  34.524  62.270  1.00  0.00     0.028 C 
HETATM   11  C   UNL     1       1.879  34.593  62.151  1.00  0.00     0.038 C 
HETATM   12  C   UNL     1       4.011  35.891  61.930  1.00  0.00     0.038 C 
HETATM   13  N   UNL     1       3.885  33.551  61.250  1.00  0.00    -0.367 N 
HETATM   14  H   UNL     1       3.314  33.413  60.430  1.00  0.00     0.162 HD
HETATM   15  H   UNL     1       6.143  31.340  60.697  1.00  0.00     0.161 HD
ENDROOT
BRANCH   1  16
HETATM   16  C   UNL     1       4.772  31.761  59.141  1.00  0.00     0.224 C 
BRANCH  16  17
HETATM   17  C   UNL     1       5.901  31.389  58.186  1.00  0.00     0.239 C 
HETATM   18  N   UNL     1       6.957  30.728  58.782  1.00  0.00    -0.325 N 
HETATM   19  H   UNL     1       6.825  30.350  59.712  1.00  0.00     0.169 HD
HETATM   20  O   UNL     1       5.756  31.603  56.985  1.00  0.00    -0.271 OA
BRANCH  18  21
HETATM   21  C   UNL     1       8.186  30.385  58.169  1.00  0.00     0.040 A 
HETATM   22  C   UNL     1       9.358  31.078  58.543  1.00  0.00    -0.035 A 
HETATM   23  C   UNL     1       9.381  32.114  59.634  1.00  0.00     0.050 C 
HETATM   24  C   UNL     1      10.564  30.797  57.876  1.00  0.00     0.009 A 
HETATM   25  C   UNL     1      10.617  29.838  56.867  1.00  0.00     0.001 A 
HETATM   26  C   UNL     1       9.466  29.146  56.512  1.00  0.00     0.002 A 
HETATM   27  C   UNL     1       8.258  29.416  57.160  1.00  0.00     0.030 A 
ENDBRANCH  18  21
ENDBRANCH  16  17
ENDBRANCH   1  16
TORSDOF 3
ENDMDL
MODEL 10
REMARK VINA RESULT:      -8.3      3.904      9.646
REMARK  3 active torsions:
REMARK  status: ('A' for Active; 'I' for Inactive)
REMARK    1  A    between atoms: C_3  and  N_4 
REMARK       I    between atoms: N_4  and  C_5 
REMARK    2  A    between atoms: C_5  and  C_6 
REMARK    3  A    between atoms: C_6  and  N_7 
ROOT
HETATM    1  N   UNL     1       5.197  31.612  59.345  1.00  0.00    -0.367 N 
HETATM    2  C   UNL     1       5.074  32.422  60.380  1.00  0.00     0.108 C 
HETATM    3  C   UNL     1       6.139  32.457  61.415  1.00  0.00     0.014 A 
HETATM    4  C   UNL     1       5.846  33.014  62.676  1.00  0.00    -0.042 A 
HETATM    5  C   UNL     1       6.819  33.054  63.682  1.00  0.00     0.008 A 
HETATM    6  C   UNL     1       8.102  32.578  63.429  1.00  0.00     0.001 A 
HETATM    7  C   UNL     1       8.417  32.058  62.178  1.00  0.00     0.001 A 
HETATM    8  C   UNL     1       7.445  31.997  61.176  1.00  0.00     0.016 A 
HETATM    9  C   UNL     1       4.456  33.537  62.934  1.00  0.00     0.069 C 
HETATM   10  C   UNL     1       3.839  34.151  61.662  1.00  0.00     0.028 C 
HETATM   11  C   UNL     1       2.330  34.336  61.859  1.00  0.00     0.038 C 
HETATM   12  C   UNL     1       4.478  35.493  61.287  1.00  0.00     0.038 C 
HETATM   13  N   UNL     1       4.023  33.224  60.511  1.00  0.00    -0.367 N 
HETATM   14  H   UNL     1       3.292  33.189  59.817  1.00  0.00     0.162 HD
HETATM   15  H   UNL     1       5.933  30.907  59.383  1.00  0.00     0.161 HD
ENDROOT
BRANCH   1  16
HETATM   16  C   UNL     1       4.322  31.538  58.165  1.00  0.00     0.224 C 
BRANCH  16  17
HETATM   17  C   UNL     1       4.906  30.471  57.246  1.00  0.00     0.239 C 
HETATM   18  N   UNL     1       5.097  29.242  57.848  1.00  0.00    -0.325 N 
HETATM   19  H   UNL     1       4.655  29.070  58.742  1.00  0.00     0.169 HD
HETATM   20  O   UNL     1       5.064  30.735  56.056  1.00  0.00    -0.271 OA
BRANCH  18  21
HETATM   21  C   UNL     1       5.742  28.119  57.276  1.00  0.00     0.040 A 
HETATM   22  C   UNL     1       7.145  28.001  57.385  1.00  0.00    -0.035 A 
HETATM   23  C   UNL     1       7.988  28.976  58.162  1.00  0.00     0.050 C 
HETATM   24  C   UNL     1       7.795  26.930  56.747  1.00  0.00     0.009 A 
HETATM   25  C   UNL     1       7.073  25.982  56.026  1.00  0.00     0.001 A 
HETATM   26  C   UNL     1       5.692  26.091  55.933  1.00  0.00     0.002 A 
HETATM   27  C   UNL     1       5.029  27.151  56.556  1.00  0.00     0.030 A 
ENDBRANCH  18  21
ENDBRANCH  16  17
ENDBRANCH   1  16
TORSDOF 3
ENDMDL
