MODEL 1
REMARK VINA RESULT:      -9.7      0.000      0.000
REMARK  5 active torsions:
REMARK  status: ('A' for Active; 'I' for Inactive)
REMARK    1  A    between atoms: C_5  and  O_6 
REMARK    2  A    between atoms: O_6  and  C_7 
REMARK    3  A    between atoms: C_7  and  C_8 
REMARK       I    between atoms: C_8  and  N_9 
REMARK    4  A    between atoms: N_9  and  N_10 
REMARK       I    between atoms: N_10  and  C_11 
REMARK    5  A    between atoms: C_11  and  C_12 
ROOT
HETATM    1  N   UNL     1       7.406  26.864  55.158  1.00  0.00    -0.263 N 
HETATM    2  C   UNL     1       6.481  25.837  55.154  1.00  0.00     0.276 C 
HETATM    3  O   UNL     1       5.407  25.918  55.748  1.00  0.00    -0.266 OA
HETATM    4  H   UNL     1       8.337  26.735  54.754  1.00  0.00     0.190 HD
ENDROOT
BRANCH   1   5
HETATM    5  N   UNL     1       7.185  27.991  55.950  1.00  0.00    -0.265 N 
HETATM    6  C   UNL     1       7.843  28.100  57.156  1.00  0.00     0.260 C 
HETATM    7  O   UNL     1       8.685  27.289  57.542  1.00  0.00    -0.269 OA
HETATM    8  H   UNL     1       6.414  28.608  55.694  1.00  0.00     0.190 HD
BRANCH   6   9
HETATM    9  C   UNL     1       7.379  29.270  58.017  1.00  0.00     0.280 C 
BRANCH   9  10
HETATM   10  O   UNL     1       8.495  30.012  58.500  1.00  0.00    -0.342 OA
BRANCH  10  11
HETATM   11  C   UNL     1       8.284  30.701  59.664  1.00  0.00     0.069 A 
HETATM   12  C   UNL     1       9.209  30.454  60.679  1.00  0.00     0.037 A 
HETATM   13  C   UNL     1       9.100  31.105  61.911  1.00  0.00     0.009 A 
HETATM   14  C   UNL     1       8.065  32.017  62.139  1.00  0.00    -0.062 A 
HETATM   15  C   UNL     1       7.964  32.748  63.445  1.00  0.00     0.048 C 
HETATM   16  C   UNL     1       7.160  32.288  61.106  1.00  0.00     0.009 A 
HETATM   17  C   UNL     1       7.266  31.631  59.875  1.00  0.00     0.037 A 
ENDBRANCH  10  11
ENDBRANCH   9  10
ENDBRANCH   6   9
ENDBRANCH   1   5
BRANCH   2  18
HETATM   18  C   UNL     1       6.875  24.664  54.393  1.00  0.00     0.107 A 
HETATM   19  C   UNL     1       7.368  23.471  54.889  1.00  0.00     0.169 A 
HETATM   20  N   UNL     1       7.622  22.651  53.784  1.00  0.00    -0.219 N 
HETATM   21  N   UNL     1       7.603  23.060  56.175  1.00  0.00    -0.233 NA
HETATM   22  C   UNL     1       8.156  21.364  53.959  1.00  0.00     0.036 A 
HETATM   23  N   UNL     1       7.290  23.270  52.626  1.00  0.00    -0.170 NA
HETATM   24  C   UNL     1       8.437  20.515  52.757  1.00  0.00     0.070 C 
HETATM   25  C   UNL     1       8.411  20.925  55.205  1.00  0.00     0.053 A 
HETATM   26  C   UNL     1       8.090  21.862  56.326  1.00  0.00     0.035 A 
HETATM   27  C   UNL     1       8.347  21.377  57.730  1.00  0.00     0.070 C 
HETATM   28  C   UNL     1       6.842  24.476  52.988  1.00  0.00     0.071 A 
HETATM   29  C   UNL     1       6.385  25.437  51.950  1.00  0.00     0.073 C 
ENDBRANCH   2  18
TORSDOF 5
ENDMDL
MODEL 2
REMARK VINA RESULT:      -9.5      1.715      3.337
REMARK  5 active torsions:
REMARK  status: ('A' for Active; 'I' for Inactive)
REMARK    1  A    between atoms: C_5  and  O_6 
REMARK    2  A    between atoms: O_6  and  C_7 
REMARK    3  A    between atoms: C_7  and  C_8 
REMARK       I    between atoms: C_8  and  N_9 
REMARK    4  A    between atoms: N_9  and  N_10 
REMARK       I    between atoms: N_10  and  C_11 
REMARK    5  A    between atoms: C_11  and  C_12 
ROOT
HETATM    1  N   UNL     1       8.752  27.915  56.993  1.00  0.00    -0.263 N 
HETATM    2  C   UNL     1       7.595  27.173  56.852  1.00  0.00     0.276 C 
HETATM    3  O   UNL     1       6.511  27.555  57.292  1.00  0.00    -0.266 OA
HETATM    4  H   UNL     1       9.660  27.531  56.719  1.00  0.00     0.190 HD
ENDROOT
BRANCH   1   5
HETATM    5  N   UNL     1       8.736  29.083  57.756  1.00  0.00    -0.265 N 
HETATM    6  C   UNL     1       9.664  30.067  57.490  1.00  0.00     0.260 C 
HETATM    7  O   UNL     1      10.461  30.009  56.554  1.00  0.00    -0.269 OA
HETATM    8  H   UNL     1       8.158  29.094  58.596  1.00  0.00     0.190 HD
BRANCH   6   9
HETATM    9  C   UNL     1       9.675  31.205  58.506  1.00  0.00     0.280 C 
BRANCH   9  10
HETATM   10  O   UNL     1       8.354  31.683  58.740  1.00  0.00    -0.342 OA
BRANCH  10  11
HETATM   11  C   UNL     1       8.066  31.999  60.040  1.00  0.00     0.069 A 
HETATM   12  C   UNL     1       9.111  31.811  60.946  1.00  0.00     0.037 A 
HETATM   13  C   UNL     1       8.938  32.109  62.300  1.00  0.00     0.009 A 
HETATM   14  C   UNL     1       7.715  32.603  62.764  1.00  0.00    -0.062 A 
HETATM   15  C   UNL     1       7.533  32.960  64.210  1.00  0.00     0.048 C 
HETATM   16  C   UNL     1       6.681  32.823  61.846  1.00  0.00     0.009 A 
HETATM   17  C   UNL     1       6.854  32.519  60.492  1.00  0.00     0.037 A 
ENDBRANCH  10  11
ENDBRANCH   9  10
ENDBRANCH   6   9
ENDBRANCH   1   5
BRANCH   2  18
HETATM   18  C   UNL     1       7.758  25.916  56.142  1.00  0.00     0.107 A 
HETATM   19  C   UNL     1       7.396  25.639  54.837  1.00  0.00     0.169 A 
HETATM   20  N   UNL     1       7.730  24.301  54.602  1.00  0.00    -0.219 N 
HETATM   21  N   UNL     1       6.821  26.429  53.876  1.00  0.00    -0.233 NA
HETATM   22  C   UNL     1       7.463  23.706  53.359  1.00  0.00     0.036 A 
HETATM   23  N   UNL     1       8.302  23.738  55.694  1.00  0.00    -0.170 NA
HETATM   24  C   UNL     1       7.812  22.265  53.142  1.00  0.00     0.070 C 
HETATM   25  C   UNL     1       6.890  24.443  52.390  1.00  0.00     0.053 A 
HETATM   26  C   UNL     1       6.586  25.870  52.724  1.00  0.00     0.035 A 
HETATM   27  C   UNL     1       5.967  26.718  51.642  1.00  0.00     0.070 C 
HETATM   28  C   UNL     1       8.320  24.705  56.618  1.00  0.00     0.071 A 
HETATM   29  C   UNL     1       8.891  24.430  57.963  1.00  0.00     0.073 C 
ENDBRANCH   2  18
TORSDOF 5
ENDMDL
MODEL 3
REMARK VINA RESULT:      -9.3      2.733     10.438
REMARK  5 active torsions:
REMARK  status: ('A' for Active; 'I' for Inactive)
REMARK    1  A    between atoms: C_5  and  O_6 
REMARK    2  A    between atoms: O_6  and  C_7 
REMARK    3  A    between atoms: C_7  and  C_8 
REMARK       I    between atoms: C_8  and  N_9 
REMARK    4  A    between atoms: N_9  and  N_10 
REMARK       I    between atoms: N_10  and  C_11 
REMARK    5  A    between atoms: C_11  and  C_12 
ROOT
HETATM    1  N   UNL     1       7.572  29.052  58.532  1.00  0.00    -0.263 N 
HETATM    2  C   UNL     1       8.422  30.075  58.903  1.00  0.00     0.276 C 
HETATM    3  O   UNL     1       9.536  30.219  58.401  1.00  0.00    -0.266 OA
HETATM    4  H   UNL     1       6.698  28.883  59.038  1.00  0.00     0.190 HD
ENDROOT
BRANCH   1   5
HETATM    5  N   UNL     1       8.016  28.070  57.645  1.00  0.00    -0.265 N 
HETATM    6  C   UNL     1       7.089  27.252  57.035  1.00  0.00     0.260 C 
HETATM    7  O   UNL     1       5.874  27.393  57.166  1.00  0.00    -0.269 OA
HETATM    8  H   UNL     1       9.017  27.875  57.615  1.00  0.00     0.190 HD
BRANCH   6   9
HETATM    9  C   UNL     1       7.700  26.100  56.243  1.00  0.00     0.280 C 
BRANCH   9  10
HETATM   10  O   UNL     1       6.729  25.513  55.382  1.00  0.00    -0.342 OA
BRANCH  10  11
HETATM   11  C   UNL     1       7.134  24.381  54.726  1.00  0.00     0.069 A 
HETATM   12  C   UNL     1       7.291  23.250  55.529  1.00  0.00     0.037 A 
HETATM   13  C   UNL     1       7.693  22.035  54.969  1.00  0.00     0.009 A 
HETATM   14  C   UNL     1       7.937  21.935  53.596  1.00  0.00    -0.062 A 
HETATM   15  C   UNL     1       8.333  20.625  52.983  1.00  0.00     0.048 C 
HETATM   16  C   UNL     1       7.745  23.063  52.790  1.00  0.00     0.009 A 
HETATM   17  C   UNL     1       7.348  24.281  53.352  1.00  0.00     0.037 A 
ENDBRANCH  10  11
ENDBRANCH   9  10
ENDBRANCH   6   9
ENDBRANCH   1   5
BRANCH   2  18
HETATM   18  C   UNL     1       7.896  30.966  59.922  1.00  0.00     0.107 A 
HETATM   19  C   UNL     1       6.866  31.879  59.787  1.00  0.00     0.169 A 
HETATM   20  N   UNL     1       6.729  32.517  61.024  1.00  0.00    -0.219 N 
HETATM   21  N   UNL     1       6.072  32.185  58.713  1.00  0.00    -0.233 NA
HETATM   22  C   UNL     1       5.769  33.525  61.204  1.00  0.00     0.036 A 
HETATM   23  N   UNL     1       7.611  32.030  61.929  1.00  0.00    -0.170 NA
HETATM   24  C   UNL     1       5.657  34.207  62.533  1.00  0.00     0.070 C 
HETATM   25  C   UNL     1       4.974  33.864  60.172  1.00  0.00     0.053 A 
HETATM   26  C   UNL     1       5.179  33.115  58.894  1.00  0.00     0.035 A 
HETATM   27  C   UNL     1       4.280  33.464  57.734  1.00  0.00     0.070 C 
HETATM   28  C   UNL     1       8.311  31.100  61.271  1.00  0.00     0.071 A 
HETATM   29  C   UNL     1       9.385  30.349  61.974  1.00  0.00     0.073 C 
ENDBRANCH   2  18
TORSDOF 5
ENDMDL
MODEL 4
REMARK VINA RESULT:      -9.2      2.637      9.896
REMARK  5 active torsions:
REMARK  status: ('A' for Active; 'I' for Inactive)
REMARK    1  A    between atoms: C_5  and  O_6 
REMARK    2  A    between atoms: O_6  and  C_7 
REMARK    3  A    between atoms: C_7  and  C_8 
REMARK       I    between atoms: C_8  and  N_9 
REMARK    4  A    between atoms: N_9  and  N_10 
REMARK       I    between atoms: N_10  and  C_11 
REMARK    5  A    between atoms: C_11  and  C_12 
ROOT
HETATM    1  N   UNL     1       5.934  29.151  57.807  1.00  0.00    -0.263 N 
HETATM    2  C   UNL     1       6.005  30.459  57.370  1.00  0.00     0.276 C 
HETATM    3  O   UNL     1       6.152  30.749  56.184  1.00  0.00    -0.266 OA
HETATM    4  H   UNL     1       5.925  28.929  58.806  1.00  0.00     0.190 HD
ENDROOT
BRANCH   1   5
HETATM    5  N   UNL     1       6.149  28.107  56.905  1.00  0.00    -0.265 N 
HETATM    6  C   UNL     1       7.321  27.386  56.986  1.00  0.00     0.260 C 
HETATM    7  O   UNL     1       8.161  27.559  57.869  1.00  0.00    -0.269 OA
HETATM    8  H   UNL     1       5.516  28.029  56.110  1.00  0.00     0.190 HD
BRANCH   6   9
HETATM    9  C   UNL     1       7.530  26.405  55.837  1.00  0.00     0.280 C 
BRANCH   9  10
HETATM   10  O   UNL     1       6.879  25.168  56.107  1.00  0.00    -0.342 OA
BRANCH  10  11
HETATM   11  C   UNL     1       7.201  24.138  55.264  1.00  0.00     0.069 A 
HETATM   12  C   UNL     1       7.509  22.929  55.890  1.00  0.00     0.037 A 
HETATM   13  C   UNL     1       7.845  21.805  55.131  1.00  0.00     0.009 A 
HETATM   14  C   UNL     1       7.871  21.876  53.735  1.00  0.00    -0.062 A 
HETATM   15  C   UNL     1       8.194  20.663  52.913  1.00  0.00     0.048 C 
HETATM   16  C   UNL     1       7.527  23.081  53.112  1.00  0.00     0.009 A 
HETATM   17  C   UNL     1       7.197  24.208  53.872  1.00  0.00     0.037 A 
ENDBRANCH  10  11
ENDBRANCH   9  10
ENDBRANCH   6   9
ENDBRANCH   1   5
BRANCH   2  18
HETATM   18  C   UNL     1       5.889  31.459  58.417  1.00  0.00     0.107 A 
HETATM   19  C   UNL     1       6.684  31.592  59.541  1.00  0.00     0.169 A 
HETATM   20  N   UNL     1       6.183  32.680  60.262  1.00  0.00    -0.219 N 
HETATM   21  N   UNL     1       7.765  30.866  59.967  1.00  0.00    -0.233 NA
HETATM   22  C   UNL     1       6.769  33.060  61.480  1.00  0.00     0.036 A 
HETATM   23  N   UNL     1       5.126  33.245  59.629  1.00  0.00    -0.170 NA
HETATM   24  C   UNL     1       6.200  34.217  62.242  1.00  0.00     0.070 C 
HETATM   25  C   UNL     1       7.828  32.369  61.940  1.00  0.00     0.053 A 
HETATM   26  C   UNL     1       8.307  31.233  61.093  1.00  0.00     0.035 A 
HETATM   27  C   UNL     1       9.508  30.463  61.581  1.00  0.00     0.070 C 
HETATM   28  C   UNL     1       4.949  32.515  58.523  1.00  0.00     0.071 A 
HETATM   29  C   UNL     1       3.855  32.861  57.578  1.00  0.00     0.073 C 
ENDBRANCH   2  18
TORSDOF 5
ENDMDL
MODEL 5
REMARK VINA RESULT:      -9.2      3.438     10.760
REMARK  5 active torsions:
REMARK  status: ('A' for Active; 'I' for Inactive)
REMARK    1  A    between atoms: C_5  and  O_6 
REMARK    2  A    between atoms: O_6  and  C_7 
REMARK    3  A    between atoms: C_7  and  C_8 
REMARK       I    between atoms: C_8  and  N_9 
REMARK    4  A    between atoms: N_9  and  N_10 
REMARK       I    between atoms: N_10  and  C_11 
REMARK    5  A    between atoms: C_11  and  C_12 
ROOT
HETATM    1  N   UNL     1       7.094  30.558  59.109  1.00  0.00    -0.263 N 
HETATM    2  C   UNL     1       6.887  31.885  59.437  1.00  0.00     0.276 C 
HETATM    3  O   UNL     1       6.525  32.718  58.608  1.00  0.00    -0.266 OA
HETATM    4  H   UNL     1       7.501  29.907  59.785  1.00  0.00     0.190 HD
ENDROOT
BRANCH   1   5
HETATM    5  N   UNL     1       7.008  30.153  57.777  1.00  0.00    -0.265 N 
HETATM    6  C   UNL     1       7.521  28.925  57.418  1.00  0.00     0.260 C 
HETATM    7  O   UNL     1       7.983  28.123  58.229  1.00  0.00    -0.269 OA
HETATM    8  H   UNL     1       6.730  30.850  57.085  1.00  0.00     0.190 HD
BRANCH   6   9
HETATM    9  C   UNL     1       7.545  28.675  55.913  1.00  0.00     0.280 C 
BRANCH   9  10
HETATM   10  O   UNL     1       6.453  27.846  55.525  1.00  0.00    -0.342 OA
BRANCH  10  11
HETATM   11  C   UNL     1       6.798  26.640  54.977  1.00  0.00     0.069 A 
HETATM   12  C   UNL     1       7.292  26.696  53.673  1.00  0.00     0.037 A 
HETATM   13  C   UNL     1       7.684  25.529  53.012  1.00  0.00     0.009 A 
HETATM   14  C   UNL     1       7.591  24.290  53.653  1.00  0.00    -0.062 A 
HETATM   15  C   UNL     1       8.045  23.037  52.964  1.00  0.00     0.048 C 
HETATM   16  C   UNL     1       7.127  24.242  54.972  1.00  0.00     0.009 A 
HETATM   17  C   UNL     1       6.729  25.410  55.631  1.00  0.00     0.037 A 
ENDBRANCH  10  11
ENDBRANCH   9  10
ENDBRANCH   6   9
ENDBRANCH   1   5
BRANCH   2  18
HETATM   18  C   UNL     1       7.124  32.213  60.832  1.00  0.00     0.107 A 
HETATM   19  C   UNL     1       6.199  32.667  61.754  1.00  0.00     0.169 A 
HETATM   20  N   UNL     1       6.890  32.863  62.955  1.00  0.00    -0.219 N 
HETATM   21  N   UNL     1       4.856  32.913  61.635  1.00  0.00    -0.233 NA
HETATM   22  C   UNL     1       6.224  33.347  64.091  1.00  0.00     0.036 A 
HETATM   23  N   UNL     1       8.198  32.532  62.828  1.00  0.00    -0.170 NA
HETATM   24  C   UNL     1       6.993  33.567  65.358  1.00  0.00     0.070 C 
HETATM   25  C   UNL     1       4.907  33.611  64.015  1.00  0.00     0.053 A 
HETATM   26  C   UNL     1       4.246  33.353  62.697  1.00  0.00     0.035 A 
HETATM   27  C   UNL     1       2.766  33.620  62.600  1.00  0.00     0.070 C 
HETATM   28  C   UNL     1       8.340  32.142  61.557  1.00  0.00     0.071 A 
HETATM   29  C   UNL     1       9.672  31.702  61.063  1.00  0.00     0.073 C 
ENDBRANCH   2  18
TORSDOF 5
ENDMDL
MODEL 6
REMARK VINA RESULT:      -9.0      2.175      4.297
REMARK  5 active torsions:
REMARK  status: ('A' for Active; 'I' for Inactive)
REMARK    1  A    between atoms: C_5  and  O_6 
REMARK    2  A    between atoms: O_6  and  C_7 
REMARK    3  A    between atoms: C_7  and  C_8 
REMARK       I    between atoms: C_8  and  N_9 
REMARK    4  A    between atoms: N_9  and  N_10 
REMARK       I    between atoms: N_10  and  C_11 
REMARK    5  A    between atoms: C_11  and  C_12 
ROOT
HETATM    1  N   UNL     1       7.851  28.413  56.973  1.00  0.00    -0.263 N 
HETATM    2  C   UNL     1       7.664  27.060  57.185  1.00  0.00     0.276 C 
HETATM    3  O   UNL     1       7.927  26.520  58.258  1.00  0.00    -0.266 OA
HETATM    4  H   UNL     1       7.733  28.821  56.042  1.00  0.00     0.190 HD
ENDROOT
BRANCH   1   5
HETATM    5  N   UNL     1       8.465  29.189  57.957  1.00  0.00    -0.265 N 
HETATM    6  C   UNL     1       7.799  30.291  58.450  1.00  0.00     0.260 C 
HETATM    7  O   UNL     1       6.649  30.586  58.126  1.00  0.00    -0.269 OA
HETATM    8  H   UNL     1       9.451  29.018  58.150  1.00  0.00     0.190 HD
BRANCH   6   9
HETATM    9  C   UNL     1       8.640  31.166  59.373  1.00  0.00     0.280 C 
BRANCH   9  10
HETATM   10  O   UNL     1       7.947  32.368  59.695  1.00  0.00    -0.342 OA
BRANCH  10  11
HETATM   11  C   UNL     1       7.777  32.608  61.032  1.00  0.00     0.069 A 
HETATM   12  C   UNL     1       6.710  33.447  61.357  1.00  0.00     0.037 A 
HETATM   13  C   UNL     1       6.433  33.757  62.691  1.00  0.00     0.009 A 
HETATM   14  C   UNL     1       7.220  33.226  63.718  1.00  0.00    -0.062 A 
HETATM   15  C   UNL     1       6.906  33.525  65.154  1.00  0.00     0.048 C 
HETATM   16  C   UNL     1       8.267  32.358  63.389  1.00  0.00     0.009 A 
HETATM   17  C   UNL     1       8.547  32.052  62.053  1.00  0.00     0.037 A 
ENDBRANCH  10  11
ENDBRANCH   9  10
ENDBRANCH   6   9
ENDBRANCH   1   5
BRANCH   2  18
HETATM   18  C   UNL     1       7.132  26.332  56.046  1.00  0.00     0.107 A 
HETATM   19  C   UNL     1       6.193  26.776  55.133  1.00  0.00     0.169 A 
HETATM   20  N   UNL     1       5.980  25.728  54.232  1.00  0.00    -0.219 N 
HETATM   21  N   UNL     1       5.535  27.974  55.030  1.00  0.00    -0.233 NA
HETATM   22  C   UNL     1       5.054  25.862  53.186  1.00  0.00     0.036 A 
HETATM   23  N   UNL     1       6.758  24.659  54.529  1.00  0.00    -0.170 NA
HETATM   24  C   UNL     1       4.831  24.716  52.247  1.00  0.00     0.070 C 
HETATM   25  C   UNL     1       4.379  27.019  53.054  1.00  0.00     0.053 A 
HETATM   26  C   UNL     1       4.685  28.091  54.051  1.00  0.00     0.035 A 
HETATM   27  C   UNL     1       3.957  29.403  53.904  1.00  0.00     0.070 C 
HETATM   28  C   UNL     1       7.449  25.019  55.616  1.00  0.00     0.071 A 
HETATM   29  C   UNL     1       8.418  24.069  56.224  1.00  0.00     0.073 C 
ENDBRANCH   2  18
TORSDOF 5
ENDMDL
MODEL 7
REMARK VINA RESULT:      -9.0      2.152      3.266
REMARK  5 active torsions:
REMARK  status: ('A' for Active; 'I' for Inactive)
REMARK    1  A    between atoms: C_5  and  O_6 
REMARK    2  A    between atoms: O_6  and  C_7 
REMARK    3  A    between atoms: C_7  and  C_8 
REMARK       I    between atoms: C_8  and  N_9 
REMARK    4  A    between atoms: N_9  and  N_10 
REMARK       I    between atoms: N_10  and  C_11 
REMARK    5  A    between atoms: C_11  and  C_12 
ROOT
HETATM    1  N   UNL     1       7.316  29.024  57.360  1.00  0.00    -0.263 N 
HETATM    2  C   UNL     1       6.136  28.555  56.815  1.00  0.00     0.276 C 
HETATM    3  O   UNL     1       5.038  28.807  57.309  1.00  0.00    -0.266 OA
HETATM    4  H   UNL     1       8.223  28.712  57.001  1.00  0.00     0.190 HD
ENDROOT
BRANCH   1   5
HETATM    5  N   UNL     1       7.293  29.710  58.575  1.00  0.00    -0.265 N 
HETATM    6  C   UNL     1       8.468  30.237  59.067  1.00  0.00     0.260 C 
HETATM    7  O   UNL     1       9.532  30.207  58.450  1.00  0.00    -0.269 OA
HETATM    8  H   UNL     1       6.447  29.646  59.141  1.00  0.00     0.190 HD
BRANCH   6   9
HETATM    9  C   UNL     1       8.358  30.792  60.483  1.00  0.00     0.280 C 
BRANCH   9  10
HETATM   10  O   UNL     1       7.140  31.513  60.647  1.00  0.00    -0.342 OA
BRANCH  10  11
HETATM   11  C   UNL     1       6.944  32.061  61.886  1.00  0.00     0.069 A 
HETATM   12  C   UNL     1       8.106  32.319  62.615  1.00  0.00     0.037 A 
HETATM   13  C   UNL     1       8.031  32.885  63.890  1.00  0.00     0.009 A 
HETATM   14  C   UNL     1       6.790  33.204  64.450  1.00  0.00    -0.062 A 
HETATM   15  C   UNL     1       6.704  33.846  65.803  1.00  0.00     0.048 C 
HETATM   16  C   UNL     1       5.630  32.975  63.702  1.00  0.00     0.009 A 
HETATM   17  C   UNL     1       5.705  32.403  62.427  1.00  0.00     0.037 A 
ENDBRANCH  10  11
ENDBRANCH   9  10
ENDBRANCH   6   9
ENDBRANCH   1   5
BRANCH   2  18
HETATM   18  C   UNL     1       6.295  27.750  55.617  1.00  0.00     0.107 A 
HETATM   19  C   UNL     1       6.942  26.533  55.505  1.00  0.00     0.169 A 
HETATM   20  N   UNL     1       6.854  26.152  54.162  1.00  0.00    -0.219 N 
HETATM   21  N   UNL     1       7.577  25.763  56.444  1.00  0.00    -0.233 NA
HETATM   22  C   UNL     1       7.441  24.956  53.719  1.00  0.00     0.036 A 
HETATM   23  N   UNL     1       6.164  27.065  53.437  1.00  0.00    -0.170 NA
HETATM   24  C   UNL     1       7.349  24.582  52.271  1.00  0.00     0.070 C 
HETATM   25  C   UNL     1       8.083  24.174  54.607  1.00  0.00     0.053 A 
HETATM   26  C   UNL     1       8.110  24.652  56.024  1.00  0.00     0.035 A 
HETATM   27  C   UNL     1       8.804  23.776  57.037  1.00  0.00     0.070 C 
HETATM   28  C   UNL     1       5.827  28.023  54.307  1.00  0.00     0.071 A 
HETATM   29  C   UNL     1       5.049  29.201  53.843  1.00  0.00     0.073 C 
ENDBRANCH   2  18
TORSDOF 5
ENDMDL
MODEL 8
REMARK VINA RESULT:      -8.9      3.304     10.160
REMARK  5 active torsions:
REMARK  status: ('A' for Active; 'I' for Inactive)
REMARK    1  A    between atoms: C_5  and  O_6 
REMARK    2  A    between atoms: O_6  and  C_7 
REMARK    3  A    between atoms: C_7  and  C_8 
REMARK       I    between atoms: C_8  and  N_9 
REMARK    4  A    between atoms: N_9  and  N_10 
REMARK       I    between atoms: N_10  and  C_11 
REMARK    5  A    between atoms: C_11  and  C_12 
ROOT
HETATM    1  N   UNL     1       5.249  30.513  58.498  1.00  0.00    -0.263 N 
HETATM    2  C   UNL     1       5.617  31.844  58.440  1.00  0.00     0.276 C 
HETATM    3  O   UNL     1       5.814  32.426  57.374  1.00  0.00    -0.266 OA
HETATM    4  H   UNL     1       5.199  30.019  59.393  1.00  0.00     0.190 HD
ENDROOT
BRANCH   1   5
HETATM    5  N   UNL     1       5.206  29.755  57.327  1.00  0.00    -0.265 N 
HETATM    6  C   UNL     1       6.242  28.887  57.056  1.00  0.00     0.260 C 
HETATM    7  O   UNL     1       7.173  28.681  57.835  1.00  0.00    -0.269 OA
HETATM    8  H   UNL     1       4.503  29.997  56.630  1.00  0.00     0.190 HD
BRANCH   6   9
HETATM    9  C   UNL     1       6.183  28.261  55.666  1.00  0.00     0.280 C 
BRANCH   9  10
HETATM   10  O   UNL     1       7.476  27.824  55.257  1.00  0.00    -0.342 OA
BRANCH  10  11
HETATM   11  C   UNL     1       7.539  26.542  54.782  1.00  0.00     0.069 A 
HETATM   12  C   UNL     1       7.610  26.423  53.393  1.00  0.00     0.037 A 
HETATM   13  C   UNL     1       7.686  25.164  52.792  1.00  0.00     0.009 A 
HETATM   14  C   UNL     1       7.698  24.006  53.577  1.00  0.00    -0.062 A 
HETATM   15  C   UNL     1       7.818  22.653  52.941  1.00  0.00     0.048 C 
HETATM   16  C   UNL     1       7.662  24.132  54.970  1.00  0.00     0.009 A 
HETATM   17  C   UNL     1       7.579  25.393  55.571  1.00  0.00     0.037 A 
ENDBRANCH  10  11
ENDBRANCH   9  10
ENDBRANCH   6   9
ENDBRANCH   1   5
BRANCH   2  18
HETATM   18  C   UNL     1       5.747  32.498  59.730  1.00  0.00     0.107 A 
HETATM   19  C   UNL     1       6.670  32.219  60.722  1.00  0.00     0.169 A 
HETATM   20  N   UNL     1       6.397  33.089  61.783  1.00  0.00    -0.219 N 
HETATM   21  N   UNL     1       7.688  31.303  60.770  1.00  0.00    -0.233 NA
HETATM   22  C   UNL     1       7.157  33.037  62.961  1.00  0.00     0.036 A 
HETATM   23  N   UNL     1       5.360  33.910  61.490  1.00  0.00    -0.170 NA
HETATM   24  C   UNL     1       6.830  33.966  64.090  1.00  0.00     0.070 C 
HETATM   25  C   UNL     1       8.161  32.146  63.054  1.00  0.00     0.053 A 
HETATM   26  C   UNL     1       8.393  31.270  61.864  1.00  0.00     0.035 A 
HETATM   27  C   UNL     1       9.529  30.282  61.941  1.00  0.00     0.070 C 
HETATM   28  C   UNL     1       4.970  33.558  60.260  1.00  0.00     0.071 A 
HETATM   29  C   UNL     1       3.833  34.267  59.615  1.00  0.00     0.073 C 
ENDBRANCH   2  18
TORSDOF 5
ENDMDL
MODEL 9
REMARK VINA RESULT:      -8.7      4.792      9.076
REMARK  5 active torsions:
REMARK  status: ('A' for Active; 'I' for Inactive)
REMARK    1  A    between atoms: C_5  and  O_6 
REMARK    2  A    between atoms: O_6  and  C_7 
REMARK    3  A    between atoms: C_7  and  C_8 
REMARK       I    between atoms: C_8  and  N_9 
REMARK    4  A    between atoms: N_9  and  N_10 
REMARK       I    between atoms: N_10  and  C_11 
REMARK    5  A    between atoms: C_11  and  C_12 
ROOT
HETATM    1  N   UNL     1       4.209  26.785  53.630  1.00  0.00    -0.263 N 
HETATM    2  C   UNL     1       4.885  27.532  52.685  1.00  0.00     0.276 C 
HETATM    3  O   UNL     1       6.090  27.397  52.479  1.00  0.00    -0.266 OA
HETATM    4  H   UNL     1       3.234  26.990  53.864  1.00  0.00     0.190 HD
ENDROOT
BRANCH   1   5
HETATM    5  N   UNL     1       4.919  25.927  54.471  1.00  0.00    -0.265 N 
HETATM    6  C   UNL     1       5.389  26.409  55.674  1.00  0.00     0.260 C 
HETATM    7  O   UNL     1       5.148  27.542  56.089  1.00  0.00    -0.269 OA
HETATM    8  H   UNL     1       5.216  25.028  54.092  1.00  0.00     0.190 HD
BRANCH   6   9
HETATM    9  C   UNL     1       6.310  25.444  56.415  1.00  0.00     0.280 C 
BRANCH   9  10
HETATM   10  O   UNL     1       7.531  25.268  55.703  1.00  0.00    -0.342 OA
BRANCH  10  11
HETATM   11  C   UNL     1       7.680  24.056  55.084  1.00  0.00     0.069 A 
HETATM   12  C   UNL     1       7.895  24.113  53.706  1.00  0.00     0.037 A 
HETATM   13  C   UNL     1       8.070  22.940  52.968  1.00  0.00     0.009 A 
HETATM   14  C   UNL     1       8.037  21.694  53.602  1.00  0.00    -0.062 A 
HETATM   15  C   UNL     1       8.261  20.432  52.821  1.00  0.00     0.048 C 
HETATM   16  C   UNL     1       7.855  21.644  54.988  1.00  0.00     0.009 A 
HETATM   17  C   UNL     1       7.674  22.819  55.726  1.00  0.00     0.037 A 
ENDBRANCH  10  11
ENDBRANCH   9  10
ENDBRANCH   6   9
ENDBRANCH   1   5
BRANCH   2  18
HETATM   18  C   UNL     1       4.063  28.480  51.953  1.00  0.00     0.107 A 
HETATM   19  C   UNL     1       3.666  28.399  50.631  1.00  0.00     0.169 A 
HETATM   20  N   UNL     1       2.905  29.543  50.368  1.00  0.00    -0.219 N 
HETATM   21  N   UNL     1       3.908  27.445  49.677  1.00  0.00    -0.233 NA
HETATM   22  C   UNL     1       2.371  29.766  49.089  1.00  0.00     0.036 A 
HETATM   23  N   UNL     1       2.792  30.322  51.471  1.00  0.00    -0.170 NA
HETATM   24  C   UNL     1       1.577  31.010  48.829  1.00  0.00     0.070 C 
HETATM   25  C   UNL     1       2.592  28.859  48.120  1.00  0.00     0.053 A 
HETATM   26  C   UNL     1       3.401  27.658  48.497  1.00  0.00     0.035 A 
HETATM   27  C   UNL     1       3.637  26.619  47.430  1.00  0.00     0.070 C 
HETATM   28  C   UNL     1       3.484  29.686  52.422  1.00  0.00     0.071 A 
HETATM   29  C   UNL     1       3.572  30.270  53.786  1.00  0.00     0.073 C 
ENDBRANCH   2  18
TORSDOF 5
ENDMDL
MODEL 10
REMARK VINA RESULT:      -8.7      1.258      1.947
REMARK  5 active torsions:
REMARK  status: ('A' for Active; 'I' for Inactive)
REMARK    1  A    between atoms: C_5  and  O_6 
REMARK    2  A    between atoms: O_6  and  C_7 
REMARK    3  A    between atoms: C_7  and  C_8 
REMARK       I    between atoms: C_8  and  N_9 
REMARK    4  A    between atoms: N_9  and  N_10 
REMARK       I    between atoms: N_10  and  C_11 
REMARK    5  A    between atoms: C_11  and  C_12 
ROOT
HETATM    1  N   UNL     1       6.303  26.693  54.890  1.00  0.00    -0.263 N 
HETATM    2  C   UNL     1       7.407  25.940  55.239  1.00  0.00     0.276 C 
HETATM    3  O   UNL     1       8.180  26.279  56.133  1.00  0.00    -0.266 OA
HETATM    4  H   UNL     1       5.737  26.453  54.072  1.00  0.00     0.190 HD
ENDROOT
BRANCH   1   5
HETATM    5  N   UNL     1       6.103  27.942  55.482  1.00  0.00    -0.265 N 
HETATM    6  C   UNL     1       5.285  28.033  56.587  1.00  0.00     0.260 C 
HETATM    7  O   UNL     1       4.779  27.055  57.137  1.00  0.00    -0.269 OA
HETATM    8  H   UNL     1       6.425  28.765  54.974  1.00  0.00     0.190 HD
BRANCH   6   9
HETATM    9  C   UNL     1       4.989  29.464  57.027  1.00  0.00     0.280 C 
BRANCH   9  10
HETATM   10  O   UNL     1       6.126  30.297  56.827  1.00  0.00    -0.342 OA
BRANCH  10  11
HETATM   11  C   UNL     1       6.831  30.611  57.957  1.00  0.00     0.069 A 
HETATM   12  C   UNL     1       6.351  31.710  58.672  1.00  0.00     0.037 A 
HETATM   13  C   UNL     1       6.983  32.121  59.848  1.00  0.00     0.009 A 
HETATM   14  C   UNL     1       8.102  31.433  60.327  1.00  0.00    -0.062 A 
HETATM   15  C   UNL     1       8.764  31.845  61.609  1.00  0.00     0.048 C 
HETATM   16  C   UNL     1       8.559  30.311  59.625  1.00  0.00     0.009 A 
HETATM   17  C   UNL     1       7.928  29.903  58.444  1.00  0.00     0.037 A 
ENDBRANCH  10  11
ENDBRANCH   9  10
ENDBRANCH   6   9
ENDBRANCH   1   5
BRANCH   2  18
HETATM   18  C   UNL     1       7.579  24.719  54.471  1.00  0.00     0.107 A 
HETATM   19  C   UNL     1       7.826  23.449  54.961  1.00  0.00     0.169 A 
HETATM   20  N   UNL     1       7.934  22.603  53.851  1.00  0.00    -0.219 N 
HETATM   21  N   UNL     1       7.961  22.992  56.245  1.00  0.00    -0.233 NA
HETATM   22  C   UNL     1       8.208  21.237  54.020  1.00  0.00     0.036 A 
HETATM   23  N   UNL     1       7.744  23.284  52.695  1.00  0.00    -0.170 NA
HETATM   24  C   UNL     1       8.338  20.358  52.813  1.00  0.00     0.070 C 
HETATM   25  C   UNL     1       8.356  20.748  55.264  1.00  0.00     0.053 A 
HETATM   26  C   UNL     1       8.206  21.721  56.390  1.00  0.00     0.035 A 
HETATM   27  C   UNL     1       8.345  21.186  57.793  1.00  0.00     0.070 C 
HETATM   28  C   UNL     1       7.531  24.551  53.064  1.00  0.00     0.071 A 
HETATM   29  C   UNL     1       7.281  25.589  52.030  1.00  0.00     0.073 C 
ENDBRANCH   2  18
TORSDOF 5
ENDMDL
