MODEL 1
REMARK VINA RESULT:     -10.4      0.000      0.000
REMARK  7 active torsions:
REMARK  status: ('A' for Active; 'I' for Inactive)
REMARK    1  A    between atoms: C_8  and  C_9 
REMARK    2  A    between atoms: C_9  and  C_10 
REMARK       I    between atoms: C_10  and  N_11 
REMARK    3  A    between atoms: N_11  and  C_12 
REMARK    4  A    between atoms: N_11  and  C_27 
REMARK    5  A    between atoms: C_12  and  C_13 
REMARK    6  A    between atoms: C_12  and  C_22 
REMARK       I    between atoms: C_13  and  N_14 
REMARK    7  A    between atoms: N_14  and  C_15 
ROOT
HETATM    1  C   UNL     1       8.377  25.974  57.302  1.00  0.00     0.229 C 
HETATM    2  N   UNL     1       7.643  27.015  56.722  1.00  0.00    -0.299 N 
HETATM    3  O   UNL     1       8.345  25.798  58.525  1.00  0.00    -0.273 OA
ENDROOT
BRANCH   2   4
HETATM    4  C   UNL     1       7.073  28.120  57.550  1.00  0.00     0.225 C 
BRANCH   4   5
HETATM    5  C   UNL     1       7.996  29.263  58.070  1.00  0.00     0.246 C 
HETATM    6  N   UNL     1       7.588  29.944  59.200  1.00  0.00    -0.354 N 
HETATM    7  H   UNL     1       7.091  29.374  59.883  1.00  0.00     0.162 HD
HETATM    8  O   UNL     1       9.030  29.575  57.471  1.00  0.00    -0.271 OA
BRANCH   6   9
HETATM    9  C   UNL     1       8.309  31.112  59.692  1.00  0.00     0.084 C 
HETATM   10  C   UNL     1       7.327  32.164  60.225  1.00  0.00     0.025 C 
HETATM   11  C   UNL     1       6.753  31.808  61.595  1.00  0.00     0.002 C 
HETATM   12  C   UNL     1       7.857  31.510  62.603  1.00  0.00     0.000 C 
HETATM   13  C   UNL     1       8.783  30.407  62.100  1.00  0.00     0.002 C 
HETATM   14  C   UNL     1       9.375  30.749  60.734  1.00  0.00     0.025 C 
ENDBRANCH   6   9
ENDBRANCH   4   5
BRANCH   4  15
HETATM   15  C   UNL     1       5.781  28.664  56.974  1.00  0.00     0.015 A 
HETATM   16  S   UNL     1       5.764  30.274  56.350  1.00  0.00    -0.104 SA
HETATM   17  C   UNL     1       4.120  30.173  55.917  1.00  0.00     0.050 A 
HETATM   18  C   UNL     1       3.578  28.949  56.234  1.00  0.00     0.008 A 
HETATM   19  C   UNL     1       4.537  28.078  56.831  1.00  0.00     0.017 A 
ENDBRANCH   4  15
ENDBRANCH   2   4
BRANCH   2  20
HETATM   20  C   UNL     1       7.209  26.988  55.362  1.00  0.00     0.041 A 
HETATM   21  C   UNL     1       6.355  25.968  54.920  1.00  0.00     0.069 A 
HETATM   22  C   UNL     1       5.973  25.971  53.595  1.00  0.00     0.107 A 
HETATM   23  C   UNL     1       6.417  26.928  52.713  1.00  0.00     0.105 A 
HETATM   24  O   UNL     1       5.143  25.068  53.007  1.00  0.00    -0.323 OA
HETATM   25  O   UNL     1       5.922  26.747  51.461  1.00  0.00    -0.323 OA
HETATM   26  C   UNL     1       7.269  27.936  53.107  1.00  0.00     0.042 A 
HETATM   27  C   UNL     1       5.121  25.562  51.652  1.00  0.00     0.352 A 
HETATM   28  C   UNL     1       7.673  27.961  54.446  1.00  0.00     0.032 A 
ENDBRANCH   2  20
BRANCH   1  29
HETATM   29  C   UNL     1       9.111  24.999  56.382  1.00  0.00     0.144 C 
BRANCH  29  30
HETATM   30  C   UNL     1       8.647  23.569  56.260  1.00  0.00    -0.021 A 
HETATM   31  C   UNL     1       8.370  22.710  55.136  1.00  0.00    -0.001 A 
HETATM   32  C   UNL     1       8.379  22.842  53.731  1.00  0.00     0.014 A 
HETATM   33  C   UNL     1       8.028  21.451  55.648  1.00  0.00     0.042 A 
HETATM   34  C   UNL     1       8.046  21.753  52.911  1.00  0.00     0.001 A 
HETATM   35  C   UNL     1       7.712  20.523  53.463  1.00  0.00     0.002 A 
HETATM   36  C   UNL     1       7.701  20.349  54.845  1.00  0.00     0.030 A 
HETATM   37  N   UNL     1       8.092  21.530  57.016  1.00  0.00    -0.365 N 
HETATM   38  H   UNL     1       7.906  20.760  57.644  1.00  0.00     0.165 HD
HETATM   39  C   UNL     1       8.463  22.785  57.393  1.00  0.00     0.097 A 
ENDBRANCH  29  30
ENDBRANCH   1  29
TORSDOF 7
ENDMDL
MODEL 2
REMARK VINA RESULT:     -10.0      2.779      6.693
REMARK  7 active torsions:
REMARK  status: ('A' for Active; 'I' for Inactive)
REMARK    1  A    between atoms: C_8  and  C_9 
REMARK    2  A    between atoms: C_9  and  C_10 
REMARK       I    between atoms: C_10  and  N_11 
REMARK    3  A    between atoms: N_11  and  C_12 
REMARK    4  A    between atoms: N_11  and  C_27 
REMARK    5  A    between atoms: C_12  and  C_13 
REMARK    6  A    between atoms: C_12  and  C_22 
REMARK       I    between atoms: C_13  and  N_14 
REMARK    7  A    between atoms: N_14  and  C_15 
ROOT
HETATM    1  C   UNL     1       5.617  26.338  54.142  1.00  0.00     0.229 C 
HETATM    2  N   UNL     1       5.769  27.664  54.564  1.00  0.00    -0.299 N 
HETATM    3  O   UNL     1       5.011  26.085  53.096  1.00  0.00    -0.273 OA
ENDROOT
BRANCH   2   4
HETATM    4  C   UNL     1       4.957  28.768  53.968  1.00  0.00     0.225 C 
BRANCH   4   5
HETATM    5  C   UNL     1       3.994  28.475  52.778  1.00  0.00     0.246 C 
HETATM    6  N   UNL     1       4.530  28.502  51.506  1.00  0.00    -0.354 N 
HETATM    7  H   UNL     1       5.492  28.173  51.443  1.00  0.00     0.162 HD
HETATM    8  O   UNL     1       2.792  28.266  52.963  1.00  0.00    -0.271 OA
BRANCH   6   9
HETATM    9  C   UNL     1       3.693  28.372  50.319  1.00  0.00     0.084 C 
HETATM   10  C   UNL     1       3.202  29.749  49.854  1.00  0.00     0.025 C 
HETATM   11  C   UNL     1       4.279  30.560  49.136  1.00  0.00     0.002 C 
HETATM   12  C   UNL     1       4.901  29.770  47.990  1.00  0.00     0.000 C 
HETATM   13  C   UNL     1       5.459  28.436  48.475  1.00  0.00     0.002 C 
HETATM   14  C   UNL     1       4.393  27.606  49.188  1.00  0.00     0.025 C 
ENDBRANCH   6   9
ENDBRANCH   4   5
BRANCH   4  15
HETATM   15  C   UNL     1       4.294  29.631  55.023  1.00  0.00     0.015 A 
HETATM   16  S   UNL     1       4.242  31.340  54.783  1.00  0.00    -0.104 SA
HETATM   17  C   UNL     1       3.413  31.600  56.248  1.00  0.00     0.050 A 
HETATM   18  C   UNL     1       3.175  30.424  56.920  1.00  0.00     0.008 A 
HETATM   19  C   UNL     1       3.671  29.290  56.209  1.00  0.00     0.017 A 
ENDBRANCH   4  15
ENDBRANCH   2   4
BRANCH   2  20
HETATM   20  C   UNL     1       6.834  28.085  55.416  1.00  0.00     0.041 A 
HETATM   21  C   UNL     1       7.948  28.740  54.873  1.00  0.00     0.069 A 
HETATM   22  C   UNL     1       8.962  29.114  55.729  1.00  0.00     0.107 A 
HETATM   23  C   UNL     1       8.908  28.852  57.077  1.00  0.00     0.105 A 
HETATM   24  O   UNL     1      10.101  29.767  55.372  1.00  0.00    -0.323 OA
HETATM   25  O   UNL     1      10.006  29.304  57.737  1.00  0.00    -0.323 OA
HETATM   26  C   UNL     1       7.837  28.197  57.645  1.00  0.00     0.042 A 
HETATM   27  C   UNL     1      10.762  29.877  56.650  1.00  0.00     0.352 A 
HETATM   28  C   UNL     1       6.792  27.805  56.802  1.00  0.00     0.032 A 
ENDBRANCH   2  20
BRANCH   1  29
HETATM   29  C   UNL     1       6.317  25.236  54.937  1.00  0.00     0.144 C 
BRANCH  29  30
HETATM   30  C   UNL     1       7.077  24.146  54.224  1.00  0.00    -0.021 A 
HETATM   31  C   UNL     1       7.497  22.821  54.603  1.00  0.00    -0.001 A 
HETATM   32  C   UNL     1       7.412  22.021  55.763  1.00  0.00     0.014 A 
HETATM   33  C   UNL     1       8.123  22.247  53.488  1.00  0.00     0.042 A 
HETATM   34  C   UNL     1       7.946  20.724  55.776  1.00  0.00     0.001 A 
HETATM   35  C   UNL     1       8.559  20.197  54.646  1.00  0.00     0.002 A 
HETATM   36  C   UNL     1       8.655  20.949  53.478  1.00  0.00     0.030 A 
HETATM   37  N   UNL     1       8.088  23.170  52.474  1.00  0.00    -0.365 N 
HETATM   38  H   UNL     1       8.459  23.017  51.547  1.00  0.00     0.165 HD
HETATM   39  C   UNL     1       7.466  24.304  52.899  1.00  0.00     0.097 A 
ENDBRANCH  29  30
ENDBRANCH   1  29
TORSDOF 7
ENDMDL
MODEL 3
REMARK VINA RESULT:     -10.0      2.825      5.356
REMARK  7 active torsions:
REMARK  status: ('A' for Active; 'I' for Inactive)
REMARK    1  A    between atoms: C_8  and  C_9 
REMARK    2  A    between atoms: C_9  and  C_10 
REMARK       I    between atoms: C_10  and  N_11 
REMARK    3  A    between atoms: N_11  and  C_12 
REMARK    4  A    between atoms: N_11  and  C_27 
REMARK    5  A    between atoms: C_12  and  C_13 
REMARK    6  A    between atoms: C_12  and  C_22 
REMARK       I    between atoms: C_13  and  N_14 
REMARK    7  A    between atoms: N_14  and  C_15 
ROOT
HETATM    1  C   UNL     1       5.517  25.988  54.566  1.00  0.00     0.229 C 
HETATM    2  N   UNL     1       5.488  27.320  54.996  1.00  0.00    -0.299 N 
HETATM    3  O   UNL     1       4.835  25.633  53.598  1.00  0.00    -0.273 OA
ENDROOT
BRANCH   2   4
HETATM    4  C   UNL     1       4.425  28.263  54.534  1.00  0.00     0.225 C 
BRANCH   4   5
HETATM    5  C   UNL     1       4.057  29.508  55.397  1.00  0.00     0.246 C 
HETATM    6  N   UNL     1       4.353  30.752  54.875  1.00  0.00    -0.354 N 
HETATM    7  H   UNL     1       4.263  30.821  53.863  1.00  0.00     0.162 HD
HETATM    8  O   UNL     1       3.558  29.386  56.519  1.00  0.00    -0.271 OA
BRANCH   6   9
HETATM    9  C   UNL     1       4.171  31.972  55.653  1.00  0.00     0.084 C 
HETATM   10  C   UNL     1       5.031  33.107  55.082  1.00  0.00     0.025 C 
HETATM   11  C   UNL     1       4.455  33.710  53.803  1.00  0.00     0.002 C 
HETATM   12  C   UNL     1       3.007  34.146  53.994  1.00  0.00     0.000 C 
HETATM   13  C   UNL     1       2.141  32.990  54.486  1.00  0.00     0.002 C 
HETATM   14  C   UNL     1       2.696  32.379  55.771  1.00  0.00     0.025 C 
ENDBRANCH   6   9
ENDBRANCH   4   5
BRANCH   4  15
HETATM   15  C   UNL     1       4.569  28.623  53.069  1.00  0.00     0.015 A 
HETATM   16  S   UNL     1       3.142  28.923  52.145  1.00  0.00    -0.104 SA
HETATM   17  C   UNL     1       4.033  29.242  50.727  1.00  0.00     0.050 A 
HETATM   18  C   UNL     1       5.387  29.125  50.934  1.00  0.00     0.008 A 
HETATM   19  C   UNL     1       5.696  28.781  52.283  1.00  0.00     0.017 A 
ENDBRANCH   4  15
ENDBRANCH   2   4
BRANCH   2  20
HETATM   20  C   UNL     1       6.563  27.921  55.716  1.00  0.00     0.041 A 
HETATM   21  C   UNL     1       7.654  28.465  55.022  1.00  0.00     0.069 A 
HETATM   22  C   UNL     1       8.678  29.021  55.757  1.00  0.00     0.107 A 
HETATM   23  C   UNL     1       8.658  29.042  57.132  1.00  0.00     0.105 A 
HETATM   24  O   UNL     1       9.797  29.601  55.246  1.00  0.00    -0.323 OA
HETATM   25  O   UNL     1       9.761  29.635  57.657  1.00  0.00    -0.323 OA
HETATM   26  C   UNL     1       7.612  28.504  57.849  1.00  0.00     0.042 A 
HETATM   27  C   UNL     1      10.484  29.981  56.457  1.00  0.00     0.352 A 
HETATM   28  C   UNL     1       6.556  27.933  57.131  1.00  0.00     0.032 A 
ENDBRANCH   2  20
BRANCH   1  29
HETATM   29  C   UNL     1       6.496  25.027  55.239  1.00  0.00     0.144 C 
BRANCH  29  30
HETATM   30  C   UNL     1       7.214  23.977  54.429  1.00  0.00    -0.021 A 
HETATM   31  C   UNL     1       7.642  22.630  54.709  1.00  0.00    -0.001 A 
HETATM   32  C   UNL     1       7.604  21.764  55.822  1.00  0.00     0.014 A 
HETATM   33  C   UNL     1       8.212  22.120  53.534  1.00  0.00     0.042 A 
HETATM   34  C   UNL     1       8.129  20.466  55.734  1.00  0.00     0.001 A 
HETATM   35  C   UNL     1       8.686  20.004  54.548  1.00  0.00     0.002 A 
HETATM   36  C   UNL     1       8.734  20.824  53.423  1.00  0.00     0.030 A 
HETATM   37  N   UNL     1       8.138  23.102  52.579  1.00  0.00    -0.365 N 
HETATM   38  H   UNL     1       8.465  23.002  51.628  1.00  0.00     0.165 HD
HETATM   39  C   UNL     1       7.544  24.212  53.099  1.00  0.00     0.097 A 
ENDBRANCH  29  30
ENDBRANCH   1  29
TORSDOF 7
ENDMDL
MODEL 4
REMARK VINA RESULT:      -9.8      2.772      6.294
REMARK  7 active torsions:
REMARK  status: ('A' for Active; 'I' for Inactive)
REMARK    1  A    between atoms: C_8  and  C_9 
REMARK    2  A    between atoms: C_9  and  C_10 
REMARK       I    between atoms: C_10  and  N_11 
REMARK    3  A    between atoms: N_11  and  C_12 
REMARK    4  A    between atoms: N_11  and  C_27 
REMARK    5  A    between atoms: C_12  and  C_13 
REMARK    6  A    between atoms: C_12  and  C_22 
REMARK       I    between atoms: C_13  and  N_14 
REMARK    7  A    between atoms: N_14  and  C_15 
ROOT
HETATM    1  C   UNL     1       5.429  27.863  56.202  1.00  0.00     0.229 C 
HETATM    2  N   UNL     1       6.043  29.117  56.107  1.00  0.00    -0.299 N 
HETATM    3  O   UNL     1       4.338  27.662  55.657  1.00  0.00    -0.273 OA
ENDROOT
BRANCH   2   4
HETATM    4  C   UNL     1       5.288  30.320  55.641  1.00  0.00     0.225 C 
BRANCH   4   5
HETATM    5  C   UNL     1       4.288  30.202  54.452  1.00  0.00     0.246 C 
HETATM    6  N   UNL     1       4.787  29.754  53.245  1.00  0.00    -0.354 N 
HETATM    7  H   UNL     1       5.531  29.061  53.323  1.00  0.00     0.162 HD
HETATM    8  O   UNL     1       3.105  30.534  54.572  1.00  0.00    -0.271 OA
BRANCH   6   9
HETATM    9  C   UNL     1       3.969  29.731  52.038  1.00  0.00     0.084 C 
HETATM   10  C   UNL     1       4.270  30.955  51.162  1.00  0.00     0.025 C 
HETATM   11  C   UNL     1       5.587  30.836  50.399  1.00  0.00     0.002 C 
HETATM   12  C   UNL     1       5.653  29.542  49.596  1.00  0.00     0.000 C 
HETATM   13  C   UNL     1       5.433  28.325  50.489  1.00  0.00     0.002 C 
HETATM   14  C   UNL     1       4.114  28.420  51.254  1.00  0.00     0.025 C 
ENDBRANCH   6   9
ENDBRANCH   4   5
BRANCH   4  15
HETATM   15  C   UNL     1       4.697  31.111  56.790  1.00  0.00     0.015 A 
HETATM   16  S   UNL     1       4.813  32.834  56.757  1.00  0.00    -0.104 SA
HETATM   17  C   UNL     1       3.993  32.996  58.242  1.00  0.00     0.050 A 
HETATM   18  C   UNL     1       3.633  31.777  58.766  1.00  0.00     0.008 A 
HETATM   19  C   UNL     1       4.028  30.694  57.926  1.00  0.00     0.017 A 
ENDBRANCH   4  15
ENDBRANCH   2   4
BRANCH   2  20
HETATM   20  C   UNL     1       7.453  29.297  56.234  1.00  0.00     0.041 A 
HETATM   21  C   UNL     1       7.984  29.868  57.400  1.00  0.00     0.069 A 
HETATM   22  C   UNL     1       9.350  30.038  57.474  1.00  0.00     0.107 A 
HETATM   23  C   UNL     1      10.185  29.678  56.443  1.00  0.00     0.105 A 
HETATM   24  O   UNL     1      10.028  30.560  58.532  1.00  0.00    -0.323 OA
HETATM   25  O   UNL     1      11.490  29.930  56.720  1.00  0.00    -0.323 OA
HETATM   26  C   UNL     1       9.699  29.129  55.276  1.00  0.00     0.042 A 
HETATM   27  C   UNL     1      11.384  30.496  58.043  1.00  0.00     0.352 A 
HETATM   28  C   UNL     1       8.317  28.943  55.171  1.00  0.00     0.032 A 
ENDBRANCH   2  20
BRANCH   1  29
HETATM   29  C   UNL     1       6.192  26.728  56.885  1.00  0.00     0.144 C 
BRANCH  29  30
HETATM   30  C   UNL     1       6.737  25.579  56.075  1.00  0.00    -0.021 A 
HETATM   31  C   UNL     1       7.005  25.396  54.671  1.00  0.00    -0.001 A 
HETATM   32  C   UNL     1       6.848  26.165  53.499  1.00  0.00     0.014 A 
HETATM   33  C   UNL     1       7.571  24.123  54.517  1.00  0.00     0.042 A 
HETATM   34  C   UNL     1       7.236  25.653  52.252  1.00  0.00     0.001 A 
HETATM   35  C   UNL     1       7.793  24.384  52.147  1.00  0.00     0.002 A 
HETATM   36  C   UNL     1       7.974  23.597  53.281  1.00  0.00     0.030 A 
HETATM   37  N   UNL     1       7.650  23.552  55.762  1.00  0.00    -0.365 N 
HETATM   38  H   UNL     1       8.032  22.636  55.949  1.00  0.00     0.165 HD
HETATM   39  C   UNL     1       7.159  24.410  56.699  1.00  0.00     0.097 A 
ENDBRANCH  29  30
ENDBRANCH   1  29
TORSDOF 7
ENDMDL
MODEL 5
REMARK VINA RESULT:      -9.7      2.605      4.457
REMARK  7 active torsions:
REMARK  status: ('A' for Active; 'I' for Inactive)
REMARK    1  A    between atoms: C_8  and  C_9 
REMARK    2  A    between atoms: C_9  and  C_10 
REMARK       I    between atoms: C_10  and  N_11 
REMARK    3  A    between atoms: N_11  and  C_12 
REMARK    4  A    between atoms: N_11  and  C_27 
REMARK    5  A    between atoms: C_12  and  C_13 
REMARK    6  A    between atoms: C_12  and  C_22 
REMARK       I    between atoms: C_13  and  N_14 
REMARK    7  A    between atoms: N_14  and  C_15 
ROOT
HETATM    1  C   UNL     1       5.583  26.892  55.969  1.00  0.00     0.229 C 
HETATM    2  N   UNL     1       5.837  27.842  54.973  1.00  0.00    -0.299 N 
HETATM    3  O   UNL     1       5.341  27.254  57.125  1.00  0.00    -0.273 OA
ENDROOT
BRANCH   2   4
HETATM    4  C   UNL     1       6.140  29.264  55.313  1.00  0.00     0.225 C 
BRANCH   4   5
HETATM    5  C   UNL     1       4.985  30.239  55.695  1.00  0.00     0.246 C 
HETATM    6  N   UNL     1       5.099  31.551  55.281  1.00  0.00    -0.354 N 
HETATM    7  H   UNL     1       5.559  31.675  54.380  1.00  0.00     0.162 HD
HETATM    8  O   UNL     1       4.027  29.863  56.376  1.00  0.00    -0.271 OA
BRANCH   6   9
HETATM    9  C   UNL     1       4.143  32.571  55.696  1.00  0.00     0.084 C 
HETATM   10  C   UNL     1       4.859  33.902  55.965  1.00  0.00     0.025 C 
HETATM   11  C   UNL     1       5.254  34.639  54.688  1.00  0.00     0.002 C 
HETATM   12  C   UNL     1       4.060  34.823  53.758  1.00  0.00     0.000 C 
HETATM   13  C   UNL     1       3.402  33.487  53.430  1.00  0.00     0.002 C 
HETATM   14  C   UNL     1       2.990  32.738  54.696  1.00  0.00     0.025 C 
ENDBRANCH   6   9
ENDBRANCH   4   5
BRANCH   4  15
HETATM   15  C   UNL     1       7.315  29.394  56.260  1.00  0.00     0.015 A 
HETATM   16  S   UNL     1       7.063  30.135  57.799  1.00  0.00    -0.104 SA
HETATM   17  C   UNL     1       8.692  29.928  58.254  1.00  0.00     0.050 A 
HETATM   18  C   UNL     1       9.427  29.313  57.268  1.00  0.00     0.008 A 
HETATM   19  C   UNL     1       8.633  28.994  56.127  1.00  0.00     0.017 A 
ENDBRANCH   4  15
ENDBRANCH   2   4
BRANCH   2  20
HETATM   20  C   UNL     1       5.617  27.582  53.586  1.00  0.00     0.041 A 
HETATM   21  C   UNL     1       4.578  28.235  52.907  1.00  0.00     0.069 A 
HETATM   22  C   UNL     1       4.391  27.943  51.573  1.00  0.00     0.107 A 
HETATM   23  C   UNL     1       5.179  27.032  50.911  1.00  0.00     0.105 A 
HETATM   24  O   UNL     1       3.444  28.493  50.767  1.00  0.00    -0.323 OA
HETATM   25  O   UNL     1       4.827  26.893  49.607  1.00  0.00    -0.323 OA
HETATM   26  C   UNL     1       6.199  26.359  51.548  1.00  0.00     0.042 A 
HETATM   27  C   UNL     1       3.721  27.817  49.523  1.00  0.00     0.352 A 
HETATM   28  C   UNL     1       6.415  26.635  52.902  1.00  0.00     0.032 A 
ENDBRANCH   2  20
BRANCH   1  29
HETATM   29  C   UNL     1       5.494  25.420  55.567  1.00  0.00     0.144 C 
BRANCH  29  30
HETATM   30  C   UNL     1       6.686  24.511  55.727  1.00  0.00    -0.021 A 
HETATM   31  C   UNL     1       7.341  23.573  54.851  1.00  0.00    -0.001 A 
HETATM   32  C   UNL     1       7.137  23.096  53.539  1.00  0.00     0.014 A 
HETATM   33  C   UNL     1       8.449  23.062  55.541  1.00  0.00     0.042 A 
HETATM   34  C   UNL     1       8.009  22.149  52.980  1.00  0.00     0.001 A 
HETATM   35  C   UNL     1       9.095  21.670  53.702  1.00  0.00     0.002 A 
HETATM   36  C   UNL     1       9.337  22.122  54.997  1.00  0.00     0.030 A 
HETATM   37  N   UNL     1       8.477  23.657  56.777  1.00  0.00    -0.365 N 
HETATM   38  H   UNL     1       9.181  23.483  57.481  1.00  0.00     0.165 HD
HETATM   39  C   UNL     1       7.434  24.524  56.899  1.00  0.00     0.097 A 
ENDBRANCH  29  30
ENDBRANCH   1  29
TORSDOF 7
ENDMDL
MODEL 6
REMARK VINA RESULT:      -9.6      2.311      4.229
REMARK  7 active torsions:
REMARK  status: ('A' for Active; 'I' for Inactive)
REMARK    1  A    between atoms: C_8  and  C_9 
REMARK    2  A    between atoms: C_9  and  C_10 
REMARK       I    between atoms: C_10  and  N_11 
REMARK    3  A    between atoms: N_11  and  C_12 
REMARK    4  A    between atoms: N_11  and  C_27 
REMARK    5  A    between atoms: C_12  and  C_13 
REMARK    6  A    between atoms: C_12  and  C_22 
REMARK       I    between atoms: C_13  and  N_14 
REMARK    7  A    between atoms: N_14  and  C_15 
ROOT
HETATM    1  C   UNL     1       5.646  27.172  56.999  1.00  0.00     0.229 C 
HETATM    2  N   UNL     1       6.020  28.520  56.950  1.00  0.00    -0.299 N 
HETATM    3  O   UNL     1       4.514  26.829  56.642  1.00  0.00    -0.273 OA
ENDROOT
BRANCH   2   4
HETATM    4  C   UNL     1       5.006  29.604  56.785  1.00  0.00     0.225 C 
BRANCH   4   5
HETATM    5  C   UNL     1       5.240  30.999  57.438  1.00  0.00     0.246 C 
HETATM    6  N   UNL     1       4.874  31.151  58.760  1.00  0.00    -0.354 N 
HETATM    7  H   UNL     1       5.003  30.320  59.335  1.00  0.00     0.162 HD
HETATM    8  O   UNL     1       5.697  31.943  56.787  1.00  0.00    -0.271 OA
BRANCH   6   9
HETATM    9  C   UNL     1       4.929  32.447  59.427  1.00  0.00     0.084 C 
HETATM   10  C   UNL     1       3.694  32.647  60.315  1.00  0.00     0.025 C 
HETATM   11  C   UNL     1       3.758  31.854  61.619  1.00  0.00     0.002 C 
HETATM   12  C   UNL     1       5.048  32.136  62.381  1.00  0.00     0.000 C 
HETATM   13  C   UNL     1       6.274  31.858  61.516  1.00  0.00     0.002 C 
HETATM   14  C   UNL     1       6.233  32.650  60.211  1.00  0.00     0.025 C 
ENDBRANCH   6   9
ENDBRANCH   4   5
BRANCH   4  15
HETATM   15  C   UNL     1       4.525  29.731  55.353  1.00  0.00     0.015 A 
HETATM   16  S   UNL     1       3.249  30.841  55.003  1.00  0.00    -0.104 SA
HETATM   17  C   UNL     1       3.269  30.460  53.342  1.00  0.00     0.050 A 
HETATM   18  C   UNL     1       4.218  29.511  53.043  1.00  0.00     0.008 A 
HETATM   19  C   UNL     1       4.948  29.100  54.198  1.00  0.00     0.017 A 
ENDBRANCH   4  15
ENDBRANCH   2   4
BRANCH   2  20
HETATM   20  C   UNL     1       7.381  28.939  56.839  1.00  0.00     0.041 A 
HETATM   21  C   UNL     1       8.032  29.506  57.943  1.00  0.00     0.069 A 
HETATM   22  C   UNL     1       9.340  29.912  57.787  1.00  0.00     0.107 A 
HETATM   23  C   UNL     1      10.002  29.785  56.589  1.00  0.00     0.105 A 
HETATM   24  O   UNL     1      10.119  30.466  58.754  1.00  0.00    -0.323 OA
HETATM   25  O   UNL     1      11.278  30.244  56.651  1.00  0.00    -0.323 OA
HETATM   26  C   UNL     1       9.390  29.247  55.477  1.00  0.00     0.042 A 
HETATM   27  C   UNL     1      11.345  30.682  58.024  1.00  0.00     0.352 A 
HETATM   28  C   UNL     1       8.063  28.825  55.605  1.00  0.00     0.032 A 
ENDBRANCH   2  20
BRANCH   1  29
HETATM   29  C   UNL     1       6.702  26.136  57.384  1.00  0.00     0.144 C 
BRANCH  29  30
HETATM   30  C   UNL     1       7.173  25.117  56.377  1.00  0.00    -0.021 A 
HETATM   31  C   UNL     1       7.291  25.123  54.941  1.00  0.00    -0.001 A 
HETATM   32  C   UNL     1       6.998  26.033  53.903  1.00  0.00     0.014 A 
HETATM   33  C   UNL     1       7.856  23.898  54.563  1.00  0.00     0.042 A 
HETATM   34  C   UNL     1       7.257  25.697  52.566  1.00  0.00     0.001 A 
HETATM   35  C   UNL     1       7.817  24.468  52.238  1.00  0.00     0.002 A 
HETATM   36  C   UNL     1       8.130  23.546  53.234  1.00  0.00     0.030 A 
HETATM   37  N   UNL     1       8.076  23.174  55.707  1.00  0.00    -0.365 N 
HETATM   38  H   UNL     1       8.489  22.252  55.731  1.00  0.00     0.165 HD
HETATM   39  C   UNL     1       7.676  23.890  56.795  1.00  0.00     0.097 A 
ENDBRANCH  29  30
ENDBRANCH   1  29
TORSDOF 7
ENDMDL
MODEL 7
REMARK VINA RESULT:      -9.3      3.611      7.988
REMARK  7 active torsions:
REMARK  status: ('A' for Active; 'I' for Inactive)
REMARK    1  A    between atoms: C_8  and  C_9 
REMARK    2  A    between atoms: C_9  and  C_10 
REMARK       I    between atoms: C_10  and  N_11 
REMARK    3  A    between atoms: N_11  and  C_12 
REMARK    4  A    between atoms: N_11  and  C_27 
REMARK    5  A    between atoms: C_12  and  C_13 
REMARK    6  A    between atoms: C_12  and  C_22 
REMARK       I    between atoms: C_13  and  N_14 
REMARK    7  A    between atoms: N_14  and  C_15 
ROOT
HETATM    1  C   UNL     1       5.246  26.293  51.684  1.00  0.00     0.229 C 
HETATM    2  N   UNL     1       5.387  27.616  52.118  1.00  0.00    -0.299 N 
HETATM    3  O   UNL     1       5.327  26.022  50.481  1.00  0.00    -0.273 OA
ENDROOT
BRANCH   2   4
HETATM    4  C   UNL     1       5.317  28.761  51.160  1.00  0.00     0.225 C 
BRANCH   4   5
HETATM    5  C   UNL     1       5.096  28.495  49.640  1.00  0.00     0.246 C 
HETATM    6  N   UNL     1       3.818  28.168  49.233  1.00  0.00    -0.354 N 
HETATM    7  H   UNL     1       3.074  28.624  49.758  1.00  0.00     0.162 HD
HETATM    8  O   UNL     1       6.034  28.537  48.839  1.00  0.00    -0.271 OA
BRANCH   6   9
HETATM    9  C   UNL     1       3.530  27.773  47.859  1.00  0.00     0.084 C 
HETATM   10  C   UNL     1       2.484  26.651  47.830  1.00  0.00     0.025 C 
HETATM   11  C   UNL     1       1.064  27.148  48.098  1.00  0.00     0.002 C 
HETATM   12  C   UNL     1       0.687  28.290  47.162  1.00  0.00     0.000 C 
HETATM   13  C   UNL     1       1.689  29.436  47.255  1.00  0.00     0.002 C 
HETATM   14  C   UNL     1       3.114  28.962  46.981  1.00  0.00     0.025 C 
ENDBRANCH   6   9
ENDBRANCH   4   5
BRANCH   4  15
HETATM   15  C   UNL     1       4.433  29.883  51.665  1.00  0.00     0.015 A 
HETATM   16  S   UNL     1       4.853  31.511  51.271  1.00  0.00    -0.104 SA
HETATM   17  C   UNL     1       3.509  32.143  52.107  1.00  0.00     0.050 A 
HETATM   18  C   UNL     1       2.748  31.151  52.680  1.00  0.00     0.008 A 
HETATM   19  C   UNL     1       3.272  29.851  52.416  1.00  0.00     0.017 A 
ENDBRANCH   4  15
ENDBRANCH   2   4
BRANCH   2  20
HETATM   20  C   UNL     1       5.815  27.953  53.438  1.00  0.00     0.041 A 
HETATM   21  C   UNL     1       7.165  28.241  53.685  1.00  0.00     0.069 A 
HETATM   22  C   UNL     1       7.537  28.545  54.977  1.00  0.00     0.107 A 
HETATM   23  C   UNL     1       6.630  28.561  56.009  1.00  0.00     0.105 A 
HETATM   24  O   UNL     1       8.795  28.860  55.386  1.00  0.00    -0.323 OA
HETATM   25  O   UNL     1       7.203  28.885  57.198  1.00  0.00    -0.323 OA
HETATM   26  C   UNL     1       5.298  28.269  55.808  1.00  0.00     0.042 A 
HETATM   27  C   UNL     1       8.578  29.066  56.797  1.00  0.00     0.352 A 
HETATM   28  C   UNL     1       4.889  27.957  54.508  1.00  0.00     0.032 A 
ENDBRANCH   2  20
BRANCH   1  29
HETATM   29  C   UNL     1       5.112  25.192  52.735  1.00  0.00     0.144 C 
BRANCH  29  30
HETATM   30  C   UNL     1       6.340  24.521  53.298  1.00  0.00    -0.021 A 
HETATM   31  C   UNL     1       6.891  24.417  54.626  1.00  0.00    -0.001 A 
HETATM   32  C   UNL     1       6.552  24.903  55.907  1.00  0.00     0.014 A 
HETATM   33  C   UNL     1       8.032  23.607  54.542  1.00  0.00     0.042 A 
HETATM   34  C   UNL     1       7.343  24.586  57.022  1.00  0.00     0.001 A 
HETATM   35  C   UNL     1       8.466  23.780  56.890  1.00  0.00     0.002 A 
HETATM   36  C   UNL     1       8.830  23.272  55.645  1.00  0.00     0.030 A 
HETATM   37  N   UNL     1       8.176  23.231  53.231  1.00  0.00    -0.365 N 
HETATM   38  H   UNL     1       8.912  22.632  52.884  1.00  0.00     0.165 HD
HETATM   39  C   UNL     1       7.173  23.767  52.481  1.00  0.00     0.097 A 
ENDBRANCH  29  30
ENDBRANCH   1  29
TORSDOF 7
ENDMDL
MODEL 8
REMARK VINA RESULT:      -8.8      3.428      7.891
REMARK  7 active torsions:
REMARK  status: ('A' for Active; 'I' for Inactive)
REMARK    1  A    between atoms: C_8  and  C_9 
REMARK    2  A    between atoms: C_9  and  C_10 
REMARK       I    between atoms: C_10  and  N_11 
REMARK    3  A    between atoms: N_11  and  C_12 
REMARK    4  A    between atoms: N_11  and  C_27 
REMARK    5  A    between atoms: C_12  and  C_13 
REMARK    6  A    between atoms: C_12  and  C_22 
REMARK       I    between atoms: C_13  and  N_14 
REMARK    7  A    between atoms: N_14  and  C_15 
ROOT
HETATM    1  C   UNL     1       5.133  26.871  52.120  1.00  0.00     0.229 C 
HETATM    2  N   UNL     1       5.112  28.221  52.488  1.00  0.00    -0.299 N 
HETATM    3  O   UNL     1       5.600  26.532  51.027  1.00  0.00    -0.273 OA
ENDROOT
BRANCH   2   4
HETATM    4  C   UNL     1       5.340  29.304  51.484  1.00  0.00     0.225 C 
BRANCH   4   5
HETATM    5  C   UNL     1       5.467  28.953  49.971  1.00  0.00     0.246 C 
HETATM    6  N   UNL     1       4.346  28.452  49.340  1.00  0.00    -0.354 N 
HETATM    7  H   UNL     1       3.463  28.832  49.676  1.00  0.00     0.162 HD
HETATM    8  O   UNL     1       6.538  29.080  49.371  1.00  0.00    -0.271 OA
BRANCH   6   9
HETATM    9  C   UNL     1       4.393  27.970  47.964  1.00  0.00     0.084 C 
HETATM   10  C   UNL     1       4.572  26.447  47.934  1.00  0.00     0.025 C 
HETATM   11  C   UNL     1       3.291  25.686  48.270  1.00  0.00     0.002 C 
HETATM   12  C   UNL     1       2.130  26.131  47.388  1.00  0.00     0.000 C 
HETATM   13  C   UNL     1       1.906  27.637  47.485  1.00  0.00     0.002 C 
HETATM   14  C   UNL     1       3.174  28.417  47.144  1.00  0.00     0.025 C 
ENDBRANCH   6   9
ENDBRANCH   4   5
BRANCH   4  15
HETATM   15  C   UNL     1       4.433  30.497  51.706  1.00  0.00     0.015 A 
HETATM   16  S   UNL     1       2.747  30.331  51.370  1.00  0.00    -0.104 SA
HETATM   17  C   UNL     1       2.417  31.939  51.826  1.00  0.00     0.050 A 
HETATM   18  C   UNL     1       3.553  32.603  52.226  1.00  0.00     0.008 A 
HETATM   19  C   UNL     1       4.710  31.771  52.168  1.00  0.00     0.017 A 
ENDBRANCH   4  15
ENDBRANCH   2   4
BRANCH   2  20
HETATM   20  C   UNL     1       5.089  28.649  53.849  1.00  0.00     0.041 A 
HETATM   21  C   UNL     1       6.287  28.972  54.503  1.00  0.00     0.069 A 
HETATM   22  C   UNL     1       6.221  29.365  55.822  1.00  0.00     0.107 A 
HETATM   23  C   UNL     1       5.027  29.433  56.501  1.00  0.00     0.105 A 
HETATM   24  O   UNL     1       7.279  29.724  56.597  1.00  0.00    -0.323 OA
HETATM   25  O   UNL     1       5.185  29.842  57.786  1.00  0.00    -0.323 OA
HETATM   26  C   UNL     1       3.832  29.109  55.897  1.00  0.00     0.042 A 
HETATM   27  C   UNL     1       6.616  30.018  57.844  1.00  0.00     0.352 A 
HETATM   28  C   UNL     1       3.866  28.707  54.558  1.00  0.00     0.032 A 
ENDBRANCH   2  20
BRANCH   1  29
HETATM   29  C   UNL     1       4.682  25.830  53.144  1.00  0.00     0.144 C 
BRANCH  29  30
HETATM   30  C   UNL     1       5.686  25.173  54.058  1.00  0.00    -0.021 A 
HETATM   31  C   UNL     1       6.722  24.192  53.850  1.00  0.00    -0.001 A 
HETATM   32  C   UNL     1       7.199  23.435  52.758  1.00  0.00     0.014 A 
HETATM   33  C   UNL     1       7.379  24.013  55.074  1.00  0.00     0.042 A 
HETATM   34  C   UNL     1       8.271  22.545  52.922  1.00  0.00     0.001 A 
HETATM   35  C   UNL     1       8.891  22.400  54.156  1.00  0.00     0.002 A 
HETATM   36  C   UNL     1       8.458  23.136  55.256  1.00  0.00     0.030 A 
HETATM   37  N   UNL     1       6.780  24.842  55.989  1.00  0.00    -0.365 N 
HETATM   38  H   UNL     1       7.063  24.927  56.956  1.00  0.00     0.165 HD
HETATM   39  C   UNL     1       5.773  25.539  55.396  1.00  0.00     0.097 A 
ENDBRANCH  29  30
ENDBRANCH   1  29
TORSDOF 7
ENDMDL
MODEL 9
REMARK VINA RESULT:      -8.6      5.039      8.300
REMARK  7 active torsions:
REMARK  status: ('A' for Active; 'I' for Inactive)
REMARK    1  A    between atoms: C_8  and  C_9 
REMARK    2  A    between atoms: C_9  and  C_10 
REMARK       I    between atoms: C_10  and  N_11 
REMARK    3  A    between atoms: N_11  and  C_12 
REMARK    4  A    between atoms: N_11  and  C_27 
REMARK    5  A    between atoms: C_12  and  C_13 
REMARK    6  A    between atoms: C_12  and  C_22 
REMARK       I    between atoms: C_13  and  N_14 
REMARK    7  A    between atoms: N_14  and  C_15 
ROOT
HETATM    1  C   UNL     1       4.225  28.979  52.986  1.00  0.00     0.229 C 
HETATM    2  N   UNL     1       4.413  29.389  51.661  1.00  0.00    -0.299 N 
HETATM    3  O   UNL     1       4.109  29.817  53.886  1.00  0.00    -0.273 OA
ENDROOT
BRANCH   2   4
HETATM    4  C   UNL     1       4.797  30.794  51.329  1.00  0.00     0.225 C 
BRANCH   4   5
HETATM    5  C   UNL     1       5.397  31.130  49.931  1.00  0.00     0.246 C 
HETATM    6  N   UNL     1       4.533  31.615  48.969  1.00  0.00    -0.354 N 
HETATM    7  H   UNL     1       3.784  32.204  49.328  1.00  0.00     0.162 HD
HETATM    8  O   UNL     1       6.589  30.933  49.680  1.00  0.00    -0.271 OA
BRANCH   6   9
HETATM    9  C   UNL     1       4.964  31.836  47.594  1.00  0.00     0.084 C 
HETATM   10  C   UNL     1       4.675  30.598  46.734  1.00  0.00     0.025 C 
HETATM   11  C   UNL     1       3.201  30.456  46.362  1.00  0.00     0.002 C 
HETATM   12  C   UNL     1       2.665  31.727  45.712  1.00  0.00     0.000 C 
HETATM   13  C   UNL     1       2.884  32.942  46.608  1.00  0.00     0.002 C 
HETATM   14  C   UNL     1       4.355  33.106  46.984  1.00  0.00     0.025 C 
ENDBRANCH   6   9
ENDBRANCH   4   5
BRANCH   4  15
HETATM   15  C   UNL     1       3.733  31.795  51.735  1.00  0.00     0.015 A 
HETATM   16  S   UNL     1       4.215  33.222  52.579  1.00  0.00    -0.104 SA
HETATM   17  C   UNL     1       2.616  33.800  52.675  1.00  0.00     0.050 A 
HETATM   18  C   UNL     1       1.721  32.938  52.085  1.00  0.00     0.008 A 
HETATM   19  C   UNL     1       2.365  31.791  51.534  1.00  0.00     0.017 A 
ENDBRANCH   4  15
ENDBRANCH   2   4
BRANCH   2  20
HETATM   20  C   UNL     1       4.051  28.578  50.544  1.00  0.00     0.041 A 
HETATM   21  C   UNL     1       2.767  28.683  49.988  1.00  0.00     0.069 A 
HETATM   22  C   UNL     1       2.454  27.869  48.921  1.00  0.00     0.107 A 
HETATM   23  C   UNL     1       3.354  26.966  48.407  1.00  0.00     0.105 A 
HETATM   24  O   UNL     1       1.267  27.852  48.259  1.00  0.00    -0.323 OA
HETATM   25  O   UNL     1       2.846  26.266  47.360  1.00  0.00    -0.323 OA
HETATM   26  C   UNL     1       4.618  26.823  48.936  1.00  0.00     0.042 A 
HETATM   27  C   UNL     1       1.519  26.827  47.275  1.00  0.00     0.352 A 
HETATM   28  C   UNL     1       4.966  27.635  50.020  1.00  0.00     0.032 A 
ENDBRANCH   2  20
BRANCH   1  29
HETATM   29  C   UNL     1       4.046  27.487  53.268  1.00  0.00     0.144 C 
BRANCH  29  30
HETATM   30  C   UNL     1       5.107  26.719  54.015  1.00  0.00    -0.021 A 
HETATM   31  C   UNL     1       6.028  25.678  53.637  1.00  0.00    -0.001 A 
HETATM   32  C   UNL     1       6.299  24.938  52.465  1.00  0.00     0.014 A 
HETATM   33  C   UNL     1       6.824  25.397  54.755  1.00  0.00     0.042 A 
HETATM   34  C   UNL     1       7.311  23.967  52.453  1.00  0.00     0.001 A 
HETATM   35  C   UNL     1       8.075  23.722  53.587  1.00  0.00     0.002 A 
HETATM   36  C   UNL     1       7.847  24.437  54.760  1.00  0.00     0.030 A 
HETATM   37  N   UNL     1       6.416  26.224  55.771  1.00  0.00    -0.365 N 
HETATM   38  H   UNL     1       6.828  26.245  56.693  1.00  0.00     0.165 HD
HETATM   39  C   UNL     1       5.396  27.018  55.342  1.00  0.00     0.097 A 
ENDBRANCH  29  30
ENDBRANCH   1  29
TORSDOF 7
ENDMDL
MODEL 10
REMARK VINA RESULT:      -8.4      2.737      8.884
REMARK  7 active torsions:
REMARK  status: ('A' for Active; 'I' for Inactive)
REMARK    1  A    between atoms: C_8  and  C_9 
REMARK    2  A    between atoms: C_9  and  C_10 
REMARK       I    between atoms: C_10  and  N_11 
REMARK    3  A    between atoms: N_11  and  C_12 
REMARK    4  A    between atoms: N_11  and  C_27 
REMARK    5  A    between atoms: C_12  and  C_13 
REMARK    6  A    between atoms: C_12  and  C_22 
REMARK       I    between atoms: C_13  and  N_14 
REMARK    7  A    between atoms: N_14  and  C_15 
ROOT
HETATM    1  C   UNL     1       6.654  31.113  59.061  1.00  0.00     0.229 C 
HETATM    2  N   UNL     1       6.210  30.275  58.031  1.00  0.00    -0.299 N 
HETATM    3  O   UNL     1       7.784  30.963  59.539  1.00  0.00    -0.273 OA
ENDROOT
BRANCH   2   4
HETATM    4  C   UNL     1       6.921  29.004  57.700  1.00  0.00     0.225 C 
BRANCH   4   5
HETATM    5  C   UNL     1       6.126  27.789  57.134  1.00  0.00     0.246 C 
HETATM    6  N   UNL     1       6.758  27.000  56.193  1.00  0.00    -0.354 N 
HETATM    7  H   UNL     1       7.763  26.901  56.327  1.00  0.00     0.162 HD
HETATM    8  O   UNL     1       4.963  27.564  57.483  1.00  0.00    -0.271 OA
BRANCH   6   9
HETATM    9  C   UNL     1       6.059  25.920  55.506  1.00  0.00     0.084 C 
HETATM   10  C   UNL     1       6.147  26.106  53.985  1.00  0.00     0.025 C 
HETATM   11  C   UNL     1       7.512  25.731  53.412  1.00  0.00     0.002 C 
HETATM   12  C   UNL     1       7.925  24.324  53.830  1.00  0.00     0.000 C 
HETATM   13  C   UNL     1       7.913  24.171  55.347  1.00  0.00     0.002 C 
HETATM   14  C   UNL     1       6.552  24.532  55.938  1.00  0.00     0.025 C 
ENDBRANCH   6   9
ENDBRANCH   4   5
BRANCH   4  15
HETATM   15  C   UNL     1       8.201  29.243  56.926  1.00  0.00     0.015 A 
HETATM   16  S   UNL     1       9.645  29.604  57.801  1.00  0.00    -0.104 SA
HETATM   17  C   UNL     1      10.572  29.725  56.377  1.00  0.00     0.050 A 
HETATM   18  C   UNL     1       9.816  29.501  55.250  1.00  0.00     0.008 A 
HETATM   19  C   UNL     1       8.455  29.212  55.567  1.00  0.00     0.017 A 
ENDBRANCH   4  15
ENDBRANCH   2   4
BRANCH   2  20
HETATM   20  C   UNL     1       5.200  30.667  57.100  1.00  0.00     0.041 A 
HETATM   21  C   UNL     1       5.551  31.378  55.945  1.00  0.00     0.069 A 
HETATM   22  C   UNL     1       4.544  31.751  55.081  1.00  0.00     0.107 A 
HETATM   23  C   UNL     1       3.225  31.454  55.333  1.00  0.00     0.105 A 
HETATM   24  O   UNL     1       4.709  32.430  53.915  1.00  0.00    -0.323 OA
HETATM   25  O   UNL     1       2.396  31.911  54.358  1.00  0.00    -0.323 OA
HETATM   26  C   UNL     1       2.840  30.770  56.465  1.00  0.00     0.042 A 
HETATM   27  C   UNL     1       3.342  32.535  53.465  1.00  0.00     0.352 A 
HETATM   28  C   UNL     1       3.840  30.378  57.360  1.00  0.00     0.032 A 
ENDBRANCH   2  20
BRANCH   1  29
HETATM   29  C   UNL     1       5.764  32.280  59.486  1.00  0.00     0.144 C 
BRANCH  29  30
HETATM   30  C   UNL     1       5.393  32.467  60.936  1.00  0.00    -0.021 A 
HETATM   31  C   UNL     1       6.161  32.689  62.135  1.00  0.00    -0.001 A 
HETATM   32  C   UNL     1       7.532  32.789  62.458  1.00  0.00     0.014 A 
HETATM   33  C   UNL     1       5.253  32.850  63.189  1.00  0.00     0.042 A 
HETATM   34  C   UNL     1       7.937  33.024  63.780  1.00  0.00     0.001 A 
HETATM   35  C   UNL     1       6.999  33.177  64.794  1.00  0.00     0.002 A 
HETATM   36  C   UNL     1       5.638  33.096  64.515  1.00  0.00     0.030 A 
HETATM   37  N   UNL     1       3.990  32.735  62.667  1.00  0.00    -0.365 N 
HETATM   38  H   UNL     1       3.138  32.822  63.204  1.00  0.00     0.165 HD
HETATM   39  C   UNL     1       4.059  32.510  61.326  1.00  0.00     0.097 A 
ENDBRANCH  29  30
ENDBRANCH   1  29
TORSDOF 7
ENDMDL
