MODEL 1
REMARK VINA RESULT:      -8.9      0.000      0.000
REMARK  6 active torsions:
REMARK  status: ('A' for Active; 'I' for Inactive)
REMARK    1  A    between atoms: C_2  and  C_3 
REMARK    2  A    between atoms: C_3  and  C_4 
REMARK    3  A    between atoms: C_3  and  C_10 
REMARK    4  A    between atoms: C_10  and  C_11 
REMARK       I    between atoms: C_11  and  N_12 
REMARK    5  A    between atoms: N_12  and  C_13 
REMARK    6  A    between atoms: C_15  and  C_16 
ROOT
HETATM    1  C   UNL     1       7.157  27.983  55.458  1.00  0.00     0.223 C 
HETATM    2  N   UNL     1       8.351  27.946  56.158  1.00  0.00    -0.327 N 
HETATM    3  O   UNL     1       6.451  28.971  55.278  1.00  0.00    -0.273 OA
HETATM    4  H   UNL     1       8.912  27.110  56.061  1.00  0.00     0.169 HD
ENDROOT
BRANCH   2   5
HETATM    5  C   UNL     1       8.911  28.976  56.945  1.00  0.00     0.035 A 
HETATM    6  C   UNL     1       8.399  29.372  58.186  1.00  0.00     0.042 A 
HETATM    7  C   UNL     1       9.016  30.382  58.947  1.00  0.00    -0.021 A 
HETATM    8  C   UNL     1      10.163  30.996  58.427  1.00  0.00     0.012 A 
HETATM    9  C   UNL     1      10.684  30.608  57.192  1.00  0.00     0.003 A 
HETATM   10  C   UNL     1      10.063  29.599  56.457  1.00  0.00     0.029 A 
BRANCH   7  11
HETATM   11  C   UNL     1       8.467  30.755  60.247  1.00  0.00     0.010 A 
HETATM   12  C   UNL     1       8.986  30.582  61.557  1.00  0.00     0.152 A 
HETATM   13  N   UNL     1       8.186  31.074  62.507  1.00  0.00    -0.187 NA
HETATM   14  N   UNL     1       7.148  31.565  61.817  1.00  0.00    -0.289 N 
HETATM   15  H   UNL     1       6.392  32.001  62.332  1.00  0.00     0.188 HD
HETATM   16  C   UNL     1       7.267  31.402  60.466  1.00  0.00     0.123 A 
ENDBRANCH   7  11
ENDBRANCH   2   5
BRANCH   1  17
HETATM   17  C   UNL     1       6.774  26.636  54.872  1.00  0.00     0.116 C 
BRANCH  17  18
HETATM   18  C   UNL     1       7.229  25.468  55.769  1.00  0.00     0.049 C 
BRANCH  18  19
HETATM   19  C   UNL     1       6.339  25.114  56.948  1.00  0.00    -0.027 C 
HETATM   20  C   UNL     1       5.018  25.300  57.074  1.00  0.00     0.007 C 
ENDBRANCH  18  19
BRANCH  18  21
HETATM   21  C   UNL     1       7.481  24.235  54.906  1.00  0.00    -0.050 A 
HETATM   22  C   UNL     1       7.653  24.344  53.516  1.00  0.00     0.008 A 
HETATM   23  C   UNL     1       7.885  23.209  52.737  1.00  0.00     0.001 A 
HETATM   24  C   UNL     1       7.952  21.954  53.337  1.00  0.00     0.000 A 
HETATM   25  C   UNL     1       7.787  21.830  54.714  1.00  0.00     0.001 A 
HETATM   26  C   UNL     1       7.552  22.963  55.496  1.00  0.00     0.008 A 
ENDBRANCH  18  21
ENDBRANCH  17  18
ENDBRANCH   1  17
TORSDOF 6
ENDMDL
MODEL 2
REMARK VINA RESULT:      -8.9      4.889      7.877
REMARK  6 active torsions:
REMARK  status: ('A' for Active; 'I' for Inactive)
REMARK    1  A    between atoms: C_2  and  C_3 
REMARK    2  A    between atoms: C_3  and  C_4 
REMARK    3  A    between atoms: C_3  and  C_10 
REMARK    4  A    between atoms: C_10  and  C_11 
REMARK       I    between atoms: C_11  and  N_12 
REMARK    5  A    between atoms: N_12  and  C_13 
REMARK    6  A    between atoms: C_15  and  C_16 
ROOT
HETATM    1  C   UNL     1       6.197  25.875  54.682  1.00  0.00     0.223 C 
HETATM    2  N   UNL     1       4.964  25.995  54.063  1.00  0.00    -0.327 N 
HETATM    3  O   UNL     1       7.143  26.649  54.574  1.00  0.00    -0.273 OA
HETATM    4  H   UNL     1       4.226  25.388  54.395  1.00  0.00     0.169 HD
ENDROOT
BRANCH   2   5
HETATM    5  C   UNL     1       4.599  26.919  53.060  1.00  0.00     0.035 A 
HETATM    6  C   UNL     1       4.934  26.771  51.708  1.00  0.00     0.042 A 
HETATM    7  C   UNL     1       4.516  27.705  50.742  1.00  0.00    -0.021 A 
HETATM    8  C   UNL     1       3.755  28.802  51.167  1.00  0.00     0.012 A 
HETATM    9  C   UNL     1       3.413  28.958  52.511  1.00  0.00     0.003 A 
HETATM   10  C   UNL     1       3.830  28.017  53.452  1.00  0.00     0.029 A 
BRANCH   7  11
HETATM   11  C   UNL     1       4.865  27.509  49.339  1.00  0.00     0.010 A 
HETATM   12  C   UNL     1       4.549  26.455  48.442  1.00  0.00     0.152 A 
HETATM   13  N   UNL     1       5.046  26.643  47.216  1.00  0.00    -0.187 NA
HETATM   14  N   UNL     1       5.686  27.815  47.316  1.00  0.00    -0.289 N 
HETATM   15  H   UNL     1       6.155  28.178  46.493  1.00  0.00     0.188 HD
HETATM   16  C   UNL     1       5.607  28.375  48.559  1.00  0.00     0.123 A 
ENDBRANCH   7  11
ENDBRANCH   2   5
BRANCH   1  17
HETATM   17  C   UNL     1       6.291  24.655  55.581  1.00  0.00     0.116 C 
BRANCH  17  18
HETATM   18  C   UNL     1       7.731  24.109  55.659  1.00  0.00     0.049 C 
BRANCH  18  19
HETATM   19  C   UNL     1       8.316  23.898  57.046  1.00  0.00    -0.027 C 
HETATM   20  C   UNL     1       9.069  24.743  57.763  1.00  0.00     0.007 C 
ENDBRANCH  18  19
BRANCH  18  21
HETATM   21  C   UNL     1       7.830  22.823  54.842  1.00  0.00    -0.050 A 
HETATM   22  C   UNL     1       7.900  22.858  53.439  1.00  0.00     0.008 A 
HETATM   23  C   UNL     1       7.993  21.677  52.702  1.00  0.00     0.001 A 
HETATM   24  C   UNL     1       8.022  20.448  53.356  1.00  0.00     0.000 A 
HETATM   25  C   UNL     1       7.957  20.397  54.747  1.00  0.00     0.001 A 
HETATM   26  C   UNL     1       7.861  21.578  55.487  1.00  0.00     0.008 A 
ENDBRANCH  18  21
ENDBRANCH  17  18
ENDBRANCH   1  17
TORSDOF 6
ENDMDL
MODEL 3
REMARK VINA RESULT:      -8.8      1.933      2.957
REMARK  6 active torsions:
REMARK  status: ('A' for Active; 'I' for Inactive)
REMARK    1  A    between atoms: C_2  and  C_3 
REMARK    2  A    between atoms: C_3  and  C_4 
REMARK    3  A    between atoms: C_3  and  C_10 
REMARK    4  A    between atoms: C_10  and  C_11 
REMARK       I    between atoms: C_11  and  N_12 
REMARK    5  A    between atoms: N_12  and  C_13 
REMARK    6  A    between atoms: C_15  and  C_16 
ROOT
HETATM    1  C   UNL     1       7.074  25.652  56.498  1.00  0.00     0.223 C 
HETATM    2  N   UNL     1       7.283  26.959  56.090  1.00  0.00    -0.327 N 
HETATM    3  O   UNL     1       6.329  25.282  57.400  1.00  0.00    -0.273 OA
HETATM    4  H   UNL     1       7.775  27.091  55.216  1.00  0.00     0.169 HD
ENDROOT
BRANCH   2   5
HETATM    5  C   UNL     1       6.826  28.134  56.725  1.00  0.00     0.035 A 
HETATM    6  C   UNL     1       7.649  28.983  57.474  1.00  0.00     0.042 A 
HETATM    7  C   UNL     1       7.151  30.161  58.059  1.00  0.00    -0.021 A 
HETATM    8  C   UNL     1       5.794  30.468  57.880  1.00  0.00     0.012 A 
HETATM    9  C   UNL     1       4.965  29.630  57.133  1.00  0.00     0.003 A 
HETATM   10  C   UNL     1       5.481  28.471  56.554  1.00  0.00     0.029 A 
BRANCH   7  11
HETATM   11  C   UNL     1       8.041  31.035  58.816  1.00  0.00     0.010 A 
HETATM   12  C   UNL     1       9.402  31.380  58.605  1.00  0.00     0.152 A 
HETATM   13  N   UNL     1       9.875  32.231  59.520  1.00  0.00    -0.187 NA
HETATM   14  N   UNL     1       8.825  32.437  60.326  1.00  0.00    -0.289 N 
HETATM   15  H   UNL     1       8.941  33.063  61.115  1.00  0.00     0.188 HD
HETATM   16  C   UNL     1       7.707  31.749  59.950  1.00  0.00     0.123 A 
ENDBRANCH   7  11
ENDBRANCH   2   5
BRANCH   1  17
HETATM   17  C   UNL     1       7.864  24.645  55.681  1.00  0.00     0.116 C 
BRANCH  17  18
HETATM   18  C   UNL     1       6.956  23.827  54.742  1.00  0.00     0.049 C 
BRANCH  18  19
HETATM   19  C   UNL     1       6.583  24.464  53.413  1.00  0.00    -0.027 C 
HETATM   20  C   UNL     1       5.373  24.855  52.993  1.00  0.00     0.007 C 
ENDBRANCH  18  19
BRANCH  18  21
HETATM   21  C   UNL     1       7.570  22.449  54.515  1.00  0.00    -0.050 A 
HETATM   22  C   UNL     1       7.878  21.996  53.220  1.00  0.00     0.008 A 
HETATM   23  C   UNL     1       8.441  20.734  53.025  1.00  0.00     0.001 A 
HETATM   24  C   UNL     1       8.708  19.912  54.117  1.00  0.00     0.000 A 
HETATM   25  C   UNL     1       8.412  20.349  55.406  1.00  0.00     0.001 A 
HETATM   26  C   UNL     1       7.845  21.610  55.605  1.00  0.00     0.008 A 
ENDBRANCH  18  21
ENDBRANCH  17  18
ENDBRANCH   1  17
TORSDOF 6
ENDMDL
MODEL 4
REMARK VINA RESULT:      -8.7      2.901      8.213
REMARK  6 active torsions:
REMARK  status: ('A' for Active; 'I' for Inactive)
REMARK    1  A    between atoms: C_2  and  C_3 
REMARK    2  A    between atoms: C_3  and  C_4 
REMARK    3  A    between atoms: C_3  and  C_10 
REMARK    4  A    between atoms: C_10  and  C_11 
REMARK       I    between atoms: C_11  and  N_12 
REMARK    5  A    between atoms: N_12  and  C_13 
REMARK    6  A    between atoms: C_15  and  C_16 
ROOT
HETATM    1  C   UNL     1       6.360  26.660  56.466  1.00  0.00     0.223 C 
HETATM    2  N   UNL     1       7.489  26.462  55.689  1.00  0.00    -0.327 N 
HETATM    3  O   UNL     1       5.363  25.944  56.494  1.00  0.00    -0.273 OA
HETATM    4  H   UNL     1       8.300  27.024  55.912  1.00  0.00     0.169 HD
ENDROOT
BRANCH   2   5
HETATM    5  C   UNL     1       7.660  25.514  54.657  1.00  0.00     0.035 A 
HETATM    6  C   UNL     1       7.996  24.173  54.882  1.00  0.00     0.042 A 
HETATM    7  C   UNL     1       8.121  23.260  53.819  1.00  0.00    -0.021 A 
HETATM    8  C   UNL     1       7.909  23.727  52.515  1.00  0.00     0.012 A 
HETATM    9  C   UNL     1       7.571  25.060  52.280  1.00  0.00     0.003 A 
HETATM   10  C   UNL     1       7.443  25.948  53.347  1.00  0.00     0.029 A 
BRANCH   7  11
HETATM   11  C   UNL     1       8.452  21.864  54.091  1.00  0.00     0.010 A 
HETATM   12  C   UNL     1       8.511  20.740  53.226  1.00  0.00     0.152 A 
HETATM   13  N   UNL     1       8.869  19.615  53.852  1.00  0.00    -0.187 NA
HETATM   14  N   UNL     1       9.040  20.007  55.121  1.00  0.00    -0.289 N 
HETATM   15  H   UNL     1       9.320  19.312  55.804  1.00  0.00     0.188 HD
HETATM   16  C   UNL     1       8.806  21.338  55.317  1.00  0.00     0.123 A 
ENDBRANCH   7  11
ENDBRANCH   2   5
BRANCH   1  17
HETATM   17  C   UNL     1       6.461  27.887  57.354  1.00  0.00     0.116 C 
BRANCH  17  18
HETATM   18  C   UNL     1       6.809  29.153  56.547  1.00  0.00     0.049 C 
BRANCH  18  19
HETATM   19  C   UNL     1       5.827  30.311  56.618  1.00  0.00    -0.027 C 
HETATM   20  C   UNL     1       4.492  30.259  56.716  1.00  0.00     0.007 C 
ENDBRANCH  18  19
BRANCH  18  21
HETATM   21  C   UNL     1       8.211  29.625  56.923  1.00  0.00    -0.050 A 
HETATM   22  C   UNL     1       8.449  30.306  58.129  1.00  0.00     0.008 A 
HETATM   23  C   UNL     1       9.735  30.732  58.463  1.00  0.00     0.001 A 
HETATM   24  C   UNL     1      10.799  30.478  57.602  1.00  0.00     0.000 A 
HETATM   25  C   UNL     1      10.581  29.800  56.405  1.00  0.00     0.001 A 
HETATM   26  C   UNL     1       9.293  29.376  56.065  1.00  0.00     0.008 A 
ENDBRANCH  18  21
ENDBRANCH  17  18
ENDBRANCH   1  17
TORSDOF 6
ENDMDL
MODEL 5
REMARK VINA RESULT:      -8.7      1.422      1.946
REMARK  6 active torsions:
REMARK  status: ('A' for Active; 'I' for Inactive)
REMARK    1  A    between atoms: C_2  and  C_3 
REMARK    2  A    between atoms: C_3  and  C_4 
REMARK    3  A    between atoms: C_3  and  C_10 
REMARK    4  A    between atoms: C_10  and  C_11 
REMARK       I    between atoms: C_11  and  N_12 
REMARK    5  A    between atoms: N_12  and  C_13 
REMARK    6  A    between atoms: C_15  and  C_16 
ROOT
HETATM    1  C   UNL     1       7.674  25.783  56.975  1.00  0.00     0.223 C 
HETATM    2  N   UNL     1       7.300  27.116  56.969  1.00  0.00    -0.327 N 
HETATM    3  O   UNL     1       8.732  25.327  57.400  1.00  0.00    -0.273 OA
HETATM    4  H   UNL     1       6.330  27.317  56.765  1.00  0.00     0.169 HD
ENDROOT
BRANCH   2   5
HETATM    5  C   UNL     1       8.107  28.231  57.283  1.00  0.00     0.035 A 
HETATM    6  C   UNL     1       7.946  29.007  58.438  1.00  0.00     0.042 A 
HETATM    7  C   UNL     1       8.800  30.088  58.721  1.00  0.00    -0.021 A 
HETATM    8  C   UNL     1       9.823  30.381  57.809  1.00  0.00     0.012 A 
HETATM    9  C   UNL     1       9.995  29.613  56.657  1.00  0.00     0.003 A 
HETATM   10  C   UNL     1       9.143  28.540  56.398  1.00  0.00     0.029 A 
BRANCH   7  11
HETATM   11  C   UNL     1       8.616  30.863  59.944  1.00  0.00     0.010 A 
HETATM   12  C   UNL     1       9.145  30.677  61.248  1.00  0.00     0.152 A 
HETATM   13  N   UNL     1       8.751  31.617  62.113  1.00  0.00    -0.187 NA
HETATM   14  N   UNL     1       7.965  32.410  61.373  1.00  0.00    -0.289 N 
HETATM   15  H   UNL     1       7.538  33.214  61.820  1.00  0.00     0.188 HD
HETATM   16  C   UNL     1       7.853  32.007  60.073  1.00  0.00     0.123 A 
ENDBRANCH   7  11
ENDBRANCH   2   5
BRANCH   1  17
HETATM   17  C   UNL     1       6.606  24.866  56.406  1.00  0.00     0.116 C 
BRANCH  17  18
HETATM   18  C   UNL     1       6.763  24.677  54.884  1.00  0.00     0.049 C 
BRANCH  18  19
HETATM   19  C   UNL     1       7.620  25.691  54.145  1.00  0.00    -0.027 C 
HETATM   20  C   UNL     1       7.223  26.644  53.291  1.00  0.00     0.007 C 
ENDBRANCH  18  19
BRANCH  18  21
HETATM   21  C   UNL     1       7.255  23.260  54.598  1.00  0.00    -0.050 A 
HETATM   22  C   UNL     1       7.551  22.846  53.288  1.00  0.00     0.008 A 
HETATM   23  C   UNL     1       8.002  21.549  53.038  1.00  0.00     0.001 A 
HETATM   24  C   UNL     1       8.167  20.653  54.092  1.00  0.00     0.000 A 
HETATM   25  C   UNL     1       7.882  21.050  55.396  1.00  0.00     0.001 A 
HETATM   26  C   UNL     1       7.427  22.347  55.649  1.00  0.00     0.008 A 
ENDBRANCH  18  21
ENDBRANCH  17  18
ENDBRANCH   1  17
TORSDOF 6
ENDMDL
MODEL 6
REMARK VINA RESULT:      -8.5      5.647      9.072
REMARK  6 active torsions:
REMARK  status: ('A' for Active; 'I' for Inactive)
REMARK    1  A    between atoms: C_2  and  C_3 
REMARK    2  A    between atoms: C_3  and  C_4 
REMARK    3  A    between atoms: C_3  and  C_10 
REMARK    4  A    between atoms: C_10  and  C_11 
REMARK       I    between atoms: C_11  and  N_12 
REMARK    5  A    between atoms: N_12  and  C_13 
REMARK    6  A    between atoms: C_15  and  C_16 
ROOT
HETATM    1  C   UNL     1       6.324  25.231  51.832  1.00  0.00     0.223 C 
HETATM    2  N   UNL     1       6.323  26.405  51.097  1.00  0.00    -0.327 N 
HETATM    3  O   UNL     1       5.336  24.592  52.181  1.00  0.00    -0.273 OA
HETATM    4  H   UNL     1       7.213  26.711  50.725  1.00  0.00     0.169 HD
ENDROOT
BRANCH   2   5
HETATM    5  C   UNL     1       5.205  27.194  50.749  1.00  0.00     0.035 A 
HETATM    6  C   UNL     1       4.364  26.914  49.666  1.00  0.00     0.042 A 
HETATM    7  C   UNL     1       3.241  27.713  49.382  1.00  0.00    -0.021 A 
HETATM    8  C   UNL     1       2.984  28.813  50.211  1.00  0.00     0.012 A 
HETATM    9  C   UNL     1       3.815  29.100  51.296  1.00  0.00     0.003 A 
HETATM   10  C   UNL     1       4.918  28.291  51.565  1.00  0.00     0.029 A 
BRANCH   7  11
HETATM   11  C   UNL     1       2.373  27.380  48.257  1.00  0.00     0.010 A 
HETATM   12  C   UNL     1       1.028  27.743  47.985  1.00  0.00     0.152 A 
HETATM   13  N   UNL     1       0.574  27.247  46.830  1.00  0.00    -0.187 NA
HETATM   14  N   UNL     1       1.621  26.561  46.354  1.00  0.00    -0.289 N 
HETATM   15  H   UNL     1       1.518  26.083  45.466  1.00  0.00     0.188 HD
HETATM   16  C   UNL     1       2.719  26.610  47.165  1.00  0.00     0.123 A 
ENDBRANCH   7  11
ENDBRANCH   2   5
BRANCH   1  17
HETATM   17  C   UNL     1       7.722  24.749  52.174  1.00  0.00     0.116 C 
BRANCH  17  18
HETATM   18  C   UNL     1       7.925  24.608  53.696  1.00  0.00     0.049 C 
BRANCH  18  19
HETATM   19  C   UNL     1       6.983  25.391  54.595  1.00  0.00    -0.027 C 
HETATM   20  C   UNL     1       7.219  26.545  55.235  1.00  0.00     0.007 C 
ENDBRANCH  18  19
BRANCH  18  21
HETATM   21  C   UNL     1       7.910  23.129  54.074  1.00  0.00    -0.050 A 
HETATM   22  C   UNL     1       7.823  22.724  55.417  1.00  0.00     0.008 A 
HETATM   23  C   UNL     1       7.808  21.369  55.751  1.00  0.00     0.001 A 
HETATM   24  C   UNL     1       7.874  20.403  54.750  1.00  0.00     0.000 A 
HETATM   25  C   UNL     1       7.957  20.789  53.414  1.00  0.00     0.001 A 
HETATM   26  C   UNL     1       7.976  22.144  53.076  1.00  0.00     0.008 A 
ENDBRANCH  18  21
ENDBRANCH  17  18
ENDBRANCH   1  17
TORSDOF 6
ENDMDL
MODEL 7
REMARK VINA RESULT:      -8.5      5.453      9.135
REMARK  6 active torsions:
REMARK  status: ('A' for Active; 'I' for Inactive)
REMARK    1  A    between atoms: C_2  and  C_3 
REMARK    2  A    between atoms: C_3  and  C_4 
REMARK    3  A    between atoms: C_3  and  C_10 
REMARK    4  A    between atoms: C_10  and  C_11 
REMARK       I    between atoms: C_11  and  N_12 
REMARK    5  A    between atoms: N_12  and  C_13 
REMARK    6  A    between atoms: C_15  and  C_16 
ROOT
HETATM    1  C   UNL     1       6.147  24.874  52.403  1.00  0.00     0.223 C 
HETATM    2  N   UNL     1       6.409  25.835  51.441  1.00  0.00    -0.327 N 
HETATM    3  O   UNL     1       5.046  24.591  52.867  1.00  0.00    -0.273 OA
HETATM    4  H   UNL     1       7.330  25.823  51.024  1.00  0.00     0.169 HD
ENDROOT
BRANCH   2   5
HETATM    5  C   UNL     1       5.510  26.794  50.926  1.00  0.00     0.035 A 
HETATM    6  C   UNL     1       4.606  26.533  49.889  1.00  0.00     0.042 A 
HETATM    7  C   UNL     1       3.706  27.514  49.434  1.00  0.00    -0.021 A 
HETATM    8  C   UNL     1       3.741  28.777  50.042  1.00  0.00     0.012 A 
HETATM    9  C   UNL     1       4.636  29.047  51.078  1.00  0.00     0.003 A 
HETATM   10  C   UNL     1       5.513  28.058  51.520  1.00  0.00     0.029 A 
BRANCH   7  11
HETATM   11  C   UNL     1       2.763  27.202  48.366  1.00  0.00     0.010 A 
HETATM   12  C   UNL     1       1.415  27.603  48.173  1.00  0.00     0.152 A 
HETATM   13  N   UNL     1       0.878  27.114  47.051  1.00  0.00    -0.187 NA
HETATM   14  N   UNL     1       1.874  26.395  46.517  1.00  0.00    -0.289 N 
HETATM   15  H   UNL     1       1.704  25.916  45.640  1.00  0.00     0.188 HD
HETATM   16  C   UNL     1       3.020  26.416  47.260  1.00  0.00     0.123 A 
ENDBRANCH   7  11
ENDBRANCH   2   5
BRANCH   1  17
HETATM   17  C   UNL     1       7.393  24.133  52.853  1.00  0.00     0.116 C 
BRANCH  17  18
HETATM   18  C   UNL     1       7.111  23.211  54.056  1.00  0.00     0.049 C 
BRANCH  18  19
HETATM   19  C   UNL     1       7.745  21.830  54.034  1.00  0.00    -0.027 C 
HETATM   20  C   UNL     1       8.159  21.126  52.971  1.00  0.00     0.007 C 
ENDBRANCH  18  19
BRANCH  18  21
HETATM   21  C   UNL     1       7.473  23.939  55.348  1.00  0.00    -0.050 A 
HETATM   22  C   UNL     1       8.740  23.784  55.938  1.00  0.00     0.008 A 
HETATM   23  C   UNL     1       9.061  24.456  57.118  1.00  0.00     0.001 A 
HETATM   24  C   UNL     1       8.125  25.292  57.721  1.00  0.00     0.000 A 
HETATM   25  C   UNL     1       6.867  25.458  57.147  1.00  0.00     0.001 A 
HETATM   26  C   UNL     1       6.541  24.785  55.967  1.00  0.00     0.008 A 
ENDBRANCH  18  21
ENDBRANCH  17  18
ENDBRANCH   1  17
TORSDOF 6
ENDMDL
MODEL 8
REMARK VINA RESULT:      -8.4      2.506      4.069
REMARK  6 active torsions:
REMARK  status: ('A' for Active; 'I' for Inactive)
REMARK    1  A    between atoms: C_2  and  C_3 
REMARK    2  A    between atoms: C_3  and  C_4 
REMARK    3  A    between atoms: C_3  and  C_10 
REMARK    4  A    between atoms: C_10  and  C_11 
REMARK       I    between atoms: C_11  and  N_12 
REMARK    5  A    between atoms: N_12  and  C_13 
REMARK    6  A    between atoms: C_15  and  C_16 
ROOT
HETATM    1  C   UNL     1       7.846  24.515  56.659  1.00  0.00     0.223 C 
HETATM    2  N   UNL     1       6.768  25.378  56.764  1.00  0.00    -0.327 N 
HETATM    3  O   UNL     1       9.016  24.778  56.918  1.00  0.00    -0.273 OA
HETATM    4  H   UNL     1       5.846  24.967  56.700  1.00  0.00     0.169 HD
ENDROOT
BRANCH   2   5
HETATM    5  C   UNL     1       6.808  26.766  57.020  1.00  0.00     0.035 A 
HETATM    6  C   UNL     1       7.994  27.500  57.142  1.00  0.00     0.042 A 
HETATM    7  C   UNL     1       7.979  28.889  57.363  1.00  0.00    -0.021 A 
HETATM    8  C   UNL     1       6.737  29.530  57.469  1.00  0.00     0.012 A 
HETATM    9  C   UNL     1       5.548  28.809  57.346  1.00  0.00     0.003 A 
HETATM   10  C   UNL     1       5.585  27.433  57.118  1.00  0.00     0.029 A 
BRANCH   7  11
HETATM   11  C   UNL     1       9.234  29.627  57.465  1.00  0.00     0.010 A 
HETATM   12  C   UNL     1       9.540  30.852  58.113  1.00  0.00     0.152 A 
HETATM   13  N   UNL     1      10.824  31.203  57.992  1.00  0.00    -0.187 NA
HETATM   14  N   UNL     1      11.351  30.209  57.265  1.00  0.00    -0.289 N 
HETATM   15  H   UNL     1      12.338  30.253  57.037  1.00  0.00     0.188 HD
HETATM   16  C   UNL     1      10.447  29.243  56.926  1.00  0.00     0.123 A 
ENDBRANCH   7  11
ENDBRANCH   2   5
BRANCH   1  17
HETATM   17  C   UNL     1       7.446  23.125  56.195  1.00  0.00     0.116 C 
BRANCH  17  18
HETATM   18  C   UNL     1       8.028  22.794  54.806  1.00  0.00     0.049 C 
BRANCH  18  19
HETATM   19  C   UNL     1       7.927  21.351  54.339  1.00  0.00    -0.027 C 
HETATM   20  C   UNL     1       8.192  20.854  53.124  1.00  0.00     0.007 C 
ENDBRANCH  18  19
BRANCH  18  21
HETATM   21  C   UNL     1       7.420  23.731  53.765  1.00  0.00    -0.050 A 
HETATM   22  C   UNL     1       8.221  24.357  52.795  1.00  0.00     0.008 A 
HETATM   23  C   UNL     1       7.654  25.210  51.848  1.00  0.00     0.001 A 
HETATM   24  C   UNL     1       6.281  25.444  51.853  1.00  0.00     0.000 A 
HETATM   25  C   UNL     1       5.473  24.828  52.806  1.00  0.00     0.001 A 
HETATM   26  C   UNL     1       6.038  23.976  53.758  1.00  0.00     0.008 A 
ENDBRANCH  18  21
ENDBRANCH  17  18
ENDBRANCH   1  17
TORSDOF 6
ENDMDL
MODEL 9
REMARK VINA RESULT:      -8.4      5.836      8.251
REMARK  6 active torsions:
REMARK  status: ('A' for Active; 'I' for Inactive)
REMARK    1  A    between atoms: C_2  and  C_3 
REMARK    2  A    between atoms: C_3  and  C_4 
REMARK    3  A    between atoms: C_3  and  C_10 
REMARK    4  A    between atoms: C_10  and  C_11 
REMARK       I    between atoms: C_11  and  N_12 
REMARK    5  A    between atoms: N_12  and  C_13 
REMARK    6  A    between atoms: C_15  and  C_16 
ROOT
HETATM    1  C   UNL     1       5.929  25.459  52.071  1.00  0.00     0.223 C 
HETATM    2  N   UNL     1       4.784  25.702  51.330  1.00  0.00    -0.327 N 
HETATM    3  O   UNL     1       7.018  26.005  51.925  1.00  0.00    -0.273 OA
HETATM    4  H   UNL     1       3.919  25.318  51.687  1.00  0.00     0.169 HD
ENDROOT
BRANCH   2   5
HETATM    5  C   UNL     1       4.675  26.487  50.161  1.00  0.00     0.035 A 
HETATM    6  C   UNL     1       4.960  27.856  50.115  1.00  0.00     0.042 A 
HETATM    7  C   UNL     1       4.868  28.586  48.916  1.00  0.00    -0.021 A 
HETATM    8  C   UNL     1       4.471  27.906  47.756  1.00  0.00     0.012 A 
HETATM    9  C   UNL     1       4.187  26.541  47.789  1.00  0.00     0.003 A 
HETATM   10  C   UNL     1       4.293  25.834  48.987  1.00  0.00     0.029 A 
BRANCH   7  11
HETATM   11  C   UNL     1       5.193  30.009  48.899  1.00  0.00     0.010 A 
HETATM   12  C   UNL     1       4.891  31.018  47.947  1.00  0.00     0.152 A 
HETATM   13  N   UNL     1       5.356  32.222  48.294  1.00  0.00    -0.187 NA
HETATM   14  N   UNL     1       5.961  31.995  49.467  1.00  0.00    -0.289 N 
HETATM   15  H   UNL     1       6.401  32.777  49.939  1.00  0.00     0.188 HD
HETATM   16  C   UNL     1       5.891  30.693  49.874  1.00  0.00     0.123 A 
ENDBRANCH   7  11
ENDBRANCH   2   5
BRANCH   1  17
HETATM   17  C   UNL     1       5.718  24.422  53.160  1.00  0.00     0.116 C 
BRANCH  17  18
HETATM   18  C   UNL     1       6.920  24.348  54.122  1.00  0.00     0.049 C 
BRANCH  18  19
HETATM   19  C   UNL     1       6.722  24.907  55.521  1.00  0.00    -0.027 C 
HETATM   20  C   UNL     1       5.599  25.393  56.067  1.00  0.00     0.007 C 
ENDBRANCH  18  19
BRANCH  18  21
HETATM   21  C   UNL     1       7.424  22.909  54.194  1.00  0.00    -0.050 A 
HETATM   22  C   UNL     1       7.512  22.231  55.422  1.00  0.00     0.008 A 
HETATM   23  C   UNL     1       7.972  20.915  55.476  1.00  0.00     0.001 A 
HETATM   24  C   UNL     1       8.346  20.258  54.306  1.00  0.00     0.000 A 
HETATM   25  C   UNL     1       8.261  20.915  53.081  1.00  0.00     0.001 A 
HETATM   26  C   UNL     1       7.804  22.234  53.024  1.00  0.00     0.008 A 
ENDBRANCH  18  21
ENDBRANCH  17  18
ENDBRANCH   1  17
TORSDOF 6
ENDMDL
MODEL 10
REMARK VINA RESULT:      -8.3      4.003      4.825
REMARK  6 active torsions:
REMARK  status: ('A' for Active; 'I' for Inactive)
REMARK    1  A    between atoms: C_2  and  C_3 
REMARK    2  A    between atoms: C_3  and  C_4 
REMARK    3  A    between atoms: C_3  and  C_10 
REMARK    4  A    between atoms: C_10  and  C_11 
REMARK       I    between atoms: C_11  and  N_12 
REMARK    5  A    between atoms: N_12  and  C_13 
REMARK    6  A    between atoms: C_15  and  C_16 
ROOT
HETATM    1  C   UNL     1       6.602  26.087  55.371  1.00  0.00     0.223 C 
HETATM    2  N   UNL     1       5.275  26.352  55.080  1.00  0.00    -0.327 N 
HETATM    3  O   UNL     1       7.486  26.918  55.557  1.00  0.00    -0.273 OA
HETATM    4  H   UNL     1       4.630  25.575  55.142  1.00  0.00     0.169 HD
ENDROOT
BRANCH   2   5
HETATM    5  C   UNL     1       4.703  27.605  54.772  1.00  0.00     0.035 A 
HETATM    6  C   UNL     1       4.472  28.609  55.720  1.00  0.00     0.042 A 
HETATM    7  C   UNL     1       3.930  29.855  55.354  1.00  0.00    -0.021 A 
HETATM    8  C   UNL     1       3.614  30.070  54.005  1.00  0.00     0.012 A 
HETATM    9  C   UNL     1       3.842  29.077  53.051  1.00  0.00     0.003 A 
HETATM   10  C   UNL     1       4.389  27.852  53.433  1.00  0.00     0.029 A 
BRANCH   7  11
HETATM   11  C   UNL     1       3.721  30.887  56.365  1.00  0.00     0.010 A 
HETATM   12  C   UNL     1       3.487  30.783  57.761  1.00  0.00     0.152 A 
HETATM   13  N   UNL     1       3.356  31.971  58.360  1.00  0.00    -0.187 NA
HETATM   14  N   UNL     1       3.503  32.844  57.355  1.00  0.00    -0.289 N 
HETATM   15  H   UNL     1       3.443  33.834  57.567  1.00  0.00     0.188 HD
HETATM   16  C   UNL     1       3.725  32.250  56.145  1.00  0.00     0.123 A 
ENDBRANCH   7  11
ENDBRANCH   2   5
BRANCH   1  17
HETATM   17  C   UNL     1       6.899  24.602  55.473  1.00  0.00     0.116 C 
BRANCH  17  18
HETATM   18  C   UNL     1       6.976  23.934  54.085  1.00  0.00     0.049 C 
BRANCH  18  19
HETATM   19  C   UNL     1       7.701  24.698  52.989  1.00  0.00    -0.027 C 
HETATM   20  C   UNL     1       7.188  25.229  51.872  1.00  0.00     0.007 C 
ENDBRANCH  18  19
BRANCH  18  21
HETATM   21  C   UNL     1       7.560  22.532  54.228  1.00  0.00    -0.050 A 
HETATM   22  C   UNL     1       7.960  21.793  53.102  1.00  0.00     0.008 A 
HETATM   23  C   UNL     1       8.495  20.512  53.245  1.00  0.00     0.001 A 
HETATM   24  C   UNL     1       8.642  19.955  54.513  1.00  0.00     0.000 A 
HETATM   25  C   UNL     1       8.253  20.676  55.639  1.00  0.00     0.001 A 
HETATM   26  C   UNL     1       7.714  21.957  55.499  1.00  0.00     0.008 A 
ENDBRANCH  18  21
ENDBRANCH  17  18
ENDBRANCH   1  17
TORSDOF 6
ENDMDL
