MODEL 1
REMARK VINA RESULT:      -9.2      0.000      0.000
REMARK  6 active torsions:
REMARK  status: ('A' for Active; 'I' for Inactive)
REMARK    1  A    between atoms: C_2  and  N_3 
REMARK    2  A    between atoms: C_2  and  C_19 
REMARK       I    between atoms: N_3  and  C_4 
REMARK    3  A    between atoms: C_4  and  C_5 
REMARK    4  A    between atoms: C_9  and  C_10 
REMARK    5  A    between atoms: C_13  and  O_14 
REMARK    6  A    between atoms: C_19  and  C_20 
ROOT
HETATM    1  N   UNL     1       6.018  26.651  54.883  1.00  0.00    -0.347 N 
HETATM    2  C   UNL     1       6.633  27.551  54.042  1.00  0.00     0.270 C 
HETATM    3  O   UNL     1       7.662  28.152  54.327  1.00  0.00    -0.266 OA
HETATM    4  H   UNL     1       5.313  26.063  54.463  1.00  0.00     0.163 HD
ENDROOT
BRANCH   2   5
HETATM    5  C   UNL     1       6.000  27.698  52.758  1.00  0.00     0.120 A 
HETATM    6  N   UNL     1       5.949  28.901  52.112  1.00  0.00    -0.272 N 
HETATM    7  H   UNL     1       6.313  29.788  52.448  1.00  0.00     0.189 HD
HETATM    8  N   UNL     1       5.370  28.852  50.902  1.00  0.00    -0.174 NA
HETATM    9  C   UNL     1       5.000  27.570  50.752  1.00  0.00     0.089 A 
HETATM   10  C   UNL     1       5.365  26.820  51.904  1.00  0.00     0.071 A 
BRANCH   9  11
HETATM   11  C   UNL     1       4.337  27.089  49.533  1.00  0.00    -0.005 A 
HETATM   12  C   UNL     1       4.108  25.717  49.339  1.00  0.00     0.016 A 
HETATM   13  C   UNL     1       3.458  25.248  48.193  1.00  0.00     0.037 A 
HETATM   14  C   UNL     1       3.034  26.156  47.230  1.00  0.00     0.065 A 
HETATM   15  C   UNL     1       3.253  27.516  47.393  1.00  0.00     0.037 A 
HETATM   16  C   UNL     1       3.902  27.983  48.540  1.00  0.00     0.016 A 
BRANCH  14  17
HETATM   17  O   UNL     1       2.391  25.748  46.100  1.00  0.00    -0.361 OA
HETATM   18  H   UNL     1       2.159  26.533  45.577  1.00  0.00     0.217 HD
ENDBRANCH  14  17
ENDBRANCH   9  11
ENDBRANCH   2   5
BRANCH   1  19
HETATM   19  C   UNL     1       6.581  26.154  56.150  1.00  0.00     0.030 C 
HETATM   20  C   UNL     1       6.803  27.311  57.146  1.00  0.00     0.038 C 
HETATM   21  C   UNL     1       5.533  25.215  56.785  1.00  0.00     0.038 C 
BRANCH  19  22
HETATM   22  C   UNL     1       7.934  25.407  55.937  1.00  0.00     0.069 C 
BRANCH  22  23
HETATM   23  C   UNL     1       7.871  24.163  55.072  1.00  0.00    -0.056 A 
HETATM   24  C   UNL     1       7.792  22.892  55.666  1.00  0.00     0.010 A 
HETATM   25  C   UNL     1       7.754  21.741  54.878  1.00  0.00     0.043 A 
HETATM   26  C   UNL     1       7.786  21.858  53.495  1.00  0.00     0.116 A 
HETATM   27  F   UNL     1       7.750  20.754  52.737  1.00  0.00    -0.206 F 
HETATM   28  C   UNL     1       7.849  23.105  52.884  1.00  0.00     0.043 A 
HETATM   29  C   UNL     1       7.888  24.257  53.672  1.00  0.00     0.010 A 
ENDBRANCH  22  23
ENDBRANCH  19  22
ENDBRANCH   1  19
TORSDOF 6
ENDMDL
MODEL 2
REMARK VINA RESULT:      -9.2      3.655      8.642
REMARK  6 active torsions:
REMARK  status: ('A' for Active; 'I' for Inactive)
REMARK    1  A    between atoms: C_2  and  N_3 
REMARK    2  A    between atoms: C_2  and  C_19 
REMARK       I    between atoms: N_3  and  C_4 
REMARK    3  A    between atoms: C_4  and  C_5 
REMARK    4  A    between atoms: C_9  and  C_10 
REMARK    5  A    between atoms: C_13  and  O_14 
REMARK    6  A    between atoms: C_19  and  C_20 
ROOT
HETATM    1  N   UNL     1       5.376  26.622  50.150  1.00  0.00    -0.347 N 
HETATM    2  C   UNL     1       5.667  27.061  51.421  1.00  0.00     0.270 C 
HETATM    3  O   UNL     1       5.562  28.229  51.777  1.00  0.00    -0.266 OA
HETATM    4  H   UNL     1       5.290  25.622  50.035  1.00  0.00     0.163 HD
ENDROOT
BRANCH   2   5
HETATM    5  C   UNL     1       6.062  26.023  52.336  1.00  0.00     0.120 A 
HETATM    6  N   UNL     1       5.694  26.041  53.652  1.00  0.00    -0.272 N 
HETATM    7  H   UNL     1       5.146  26.757  54.120  1.00  0.00     0.189 HD
HETATM    8  N   UNL     1       6.101  24.972  54.353  1.00  0.00    -0.174 NA
HETATM    9  C   UNL     1       6.788  24.227  53.472  1.00  0.00     0.089 A 
HETATM   10  C   UNL     1       6.797  24.863  52.200  1.00  0.00     0.071 A 
BRANCH   9  11
HETATM   11  C   UNL     1       7.393  22.942  53.845  1.00  0.00    -0.005 A 
HETATM   12  C   UNL     1       7.428  22.531  55.188  1.00  0.00     0.016 A 
HETATM   13  C   UNL     1       7.981  21.300  55.552  1.00  0.00     0.037 A 
HETATM   14  C   UNL     1       8.508  20.471  54.569  1.00  0.00     0.065 A 
HETATM   15  C   UNL     1       8.492  20.854  53.235  1.00  0.00     0.037 A 
HETATM   16  C   UNL     1       7.937  22.086  52.873  1.00  0.00     0.016 A 
BRANCH  14  17
HETATM   17  O   UNL     1       9.052  19.259  54.874  1.00  0.00    -0.361 OA
HETATM   18  H   UNL     1       8.968  19.116  55.831  1.00  0.00     0.217 HD
ENDBRANCH  14  17
ENDBRANCH   9  11
ENDBRANCH   2   5
BRANCH   1  19
HETATM   19  C   UNL     1       4.741  27.434  49.098  1.00  0.00     0.030 C 
HETATM   20  C   UNL     1       5.625  28.643  48.727  1.00  0.00     0.038 C 
HETATM   21  C   UNL     1       4.637  26.554  47.833  1.00  0.00     0.038 C 
BRANCH  19  22
HETATM   22  C   UNL     1       3.333  27.953  49.527  1.00  0.00     0.069 C 
BRANCH  22  23
HETATM   23  C   UNL     1       2.347  28.192  48.400  1.00  0.00    -0.056 A 
HETATM   24  C   UNL     1       1.373  27.226  48.096  1.00  0.00     0.010 A 
HETATM   25  C   UNL     1       0.475  27.430  47.047  1.00  0.00     0.043 A 
HETATM   26  C   UNL     1       0.542  28.602  46.307  1.00  0.00     0.116 A 
HETATM   27  F   UNL     1      -0.319  28.798  45.300  1.00  0.00    -0.206 F 
HETATM   28  C   UNL     1       1.488  29.578  46.599  1.00  0.00     0.043 A 
HETATM   29  C   UNL     1       2.387  29.376  47.646  1.00  0.00     0.010 A 
ENDBRANCH  22  23
ENDBRANCH  19  22
ENDBRANCH   1  19
TORSDOF 6
ENDMDL
MODEL 3
REMARK VINA RESULT:      -9.0      4.224      8.755
REMARK  6 active torsions:
REMARK  status: ('A' for Active; 'I' for Inactive)
REMARK    1  A    between atoms: C_2  and  N_3 
REMARK    2  A    between atoms: C_2  and  C_19 
REMARK       I    between atoms: N_3  and  C_4 
REMARK    3  A    between atoms: C_4  and  C_5 
REMARK    4  A    between atoms: C_9  and  C_10 
REMARK    5  A    between atoms: C_13  and  O_14 
REMARK    6  A    between atoms: C_19  and  C_20 
ROOT
HETATM    1  N   UNL     1       7.359  26.885  55.988  1.00  0.00    -0.347 N 
HETATM    2  C   UNL     1       7.978  28.075  55.678  1.00  0.00     0.270 C 
HETATM    3  O   UNL     1       8.141  28.478  54.532  1.00  0.00    -0.266 OA
HETATM    4  H   UNL     1       7.090  26.764  56.953  1.00  0.00     0.163 HD
ENDROOT
BRANCH   2   5
HETATM    5  C   UNL     1       8.380  28.855  56.819  1.00  0.00     0.120 A 
HETATM    6  N   UNL     1       9.648  29.349  56.945  1.00  0.00    -0.272 N 
HETATM    7  H   UNL     1      10.419  29.218  56.297  1.00  0.00     0.189 HD
HETATM    8  N   UNL     1       9.840  30.098  58.042  1.00  0.00    -0.174 NA
HETATM    9  C   UNL     1       8.660  30.078  58.681  1.00  0.00     0.089 A 
HETATM   10  C   UNL     1       7.724  29.294  57.950  1.00  0.00     0.071 A 
BRANCH   9  11
HETATM   11  C   UNL     1       8.442  30.805  59.938  1.00  0.00    -0.005 A 
HETATM   12  C   UNL     1       7.453  31.799  60.027  1.00  0.00     0.016 A 
HETATM   13  C   UNL     1       7.221  32.482  61.225  1.00  0.00     0.037 A 
HETATM   14  C   UNL     1       7.986  32.175  62.344  1.00  0.00     0.065 A 
HETATM   15  C   UNL     1       8.974  31.203  62.282  1.00  0.00     0.037 A 
HETATM   16  C   UNL     1       9.203  30.520  61.084  1.00  0.00     0.016 A 
BRANCH  14  17
HETATM   17  O   UNL     1       7.793  32.809  63.534  1.00  0.00    -0.361 OA
HETATM   18  H   UNL     1       8.104  33.725  63.450  1.00  0.00     0.217 HD
ENDBRANCH  14  17
ENDBRANCH   9  11
ENDBRANCH   2   5
BRANCH   1  19
HETATM   19  C   UNL     1       6.659  26.018  55.024  1.00  0.00     0.030 C 
HETATM   20  C   UNL     1       5.994  24.824  55.741  1.00  0.00     0.038 C 
HETATM   21  C   UNL     1       5.521  26.850  54.395  1.00  0.00     0.038 C 
BRANCH  19  22
HETATM   22  C   UNL     1       7.619  25.473  53.922  1.00  0.00     0.069 C 
BRANCH  22  23
HETATM   23  C   UNL     1       7.978  24.003  54.028  1.00  0.00    -0.056 A 
HETATM   24  C   UNL     1       7.576  23.103  53.027  1.00  0.00     0.010 A 
HETATM   25  C   UNL     1       7.884  21.746  53.128  1.00  0.00     0.043 A 
HETATM   26  C   UNL     1       8.603  21.287  54.223  1.00  0.00     0.116 A 
HETATM   27  F   UNL     1       8.899  19.984  54.320  1.00  0.00    -0.206 F 
HETATM   28  C   UNL     1       9.024  22.161  55.218  1.00  0.00     0.043 A 
HETATM   29  C   UNL     1       8.716  23.519  55.120  1.00  0.00     0.010 A 
ENDBRANCH  22  23
ENDBRANCH  19  22
ENDBRANCH   1  19
TORSDOF 6
ENDMDL
MODEL 4
REMARK VINA RESULT:      -8.9      3.529      8.089
REMARK  6 active torsions:
REMARK  status: ('A' for Active; 'I' for Inactive)
REMARK    1  A    between atoms: C_2  and  N_3 
REMARK    2  A    between atoms: C_2  and  C_19 
REMARK       I    between atoms: N_3  and  C_4 
REMARK    3  A    between atoms: C_4  and  C_5 
REMARK    4  A    between atoms: C_9  and  C_10 
REMARK    5  A    between atoms: C_13  and  O_14 
REMARK    6  A    between atoms: C_19  and  C_20 
ROOT
HETATM    1  N   UNL     1       6.577  26.986  54.529  1.00  0.00    -0.347 N 
HETATM    2  C   UNL     1       7.466  28.036  54.565  1.00  0.00     0.270 C 
HETATM    3  O   UNL     1       8.326  28.228  53.713  1.00  0.00    -0.266 OA
HETATM    4  H   UNL     1       5.787  27.053  55.154  1.00  0.00     0.163 HD
ENDROOT
BRANCH   2   5
HETATM    5  C   UNL     1       7.277  28.942  55.667  1.00  0.00     0.120 A 
HETATM    6  N   UNL     1       6.211  29.794  55.728  1.00  0.00    -0.272 N 
HETATM    7  H   UNL     1       5.476  29.899  55.034  1.00  0.00     0.189 HD
HETATM    8  N   UNL     1       6.158  30.532  56.848  1.00  0.00    -0.174 NA
HETATM    9  C   UNL     1       7.247  30.172  57.546  1.00  0.00     0.089 A 
HETATM   10  C   UNL     1       7.982  29.188  56.828  1.00  0.00     0.071 A 
BRANCH   9  11
HETATM   11  C   UNL     1       7.551  30.745  58.863  1.00  0.00    -0.005 A 
HETATM   12  C   UNL     1       6.769  31.789  59.386  1.00  0.00     0.016 A 
HETATM   13  C   UNL     1       7.036  32.328  60.648  1.00  0.00     0.037 A 
HETATM   14  C   UNL     1       8.094  31.825  61.395  1.00  0.00     0.065 A 
HETATM   15  C   UNL     1       8.886  30.799  60.900  1.00  0.00     0.037 A 
HETATM   16  C   UNL     1       8.617  30.260  59.638  1.00  0.00     0.016 A 
BRANCH  14  17
HETATM   17  O   UNL     1       8.389  32.313  62.633  1.00  0.00    -0.361 OA
HETATM   18  H   UNL     1       9.100  32.969  62.544  1.00  0.00     0.217 HD
ENDBRANCH  14  17
ENDBRANCH   9  11
ENDBRANCH   2   5
BRANCH   1  19
HETATM   19  C   UNL     1       6.411  26.055  53.399  1.00  0.00     0.030 C 
HETATM   20  C   UNL     1       5.258  25.065  53.667  1.00  0.00     0.038 C 
HETATM   21  C   UNL     1       6.003  26.891  52.168  1.00  0.00     0.038 C 
BRANCH  19  22
HETATM   22  C   UNL     1       7.714  25.246  53.111  1.00  0.00     0.069 C 
BRANCH  22  23
HETATM   23  C   UNL     1       7.778  23.860  53.723  1.00  0.00    -0.056 A 
HETATM   24  C   UNL     1       7.860  23.707  55.118  1.00  0.00     0.010 A 
HETATM   25  C   UNL     1       7.941  22.436  55.688  1.00  0.00     0.043 A 
HETATM   26  C   UNL     1       7.930  21.317  54.868  1.00  0.00     0.116 A 
HETATM   27  F   UNL     1       8.008  20.096  55.415  1.00  0.00    -0.206 F 
HETATM   28  C   UNL     1       7.835  21.443  53.488  1.00  0.00     0.043 A 
HETATM   29  C   UNL     1       7.755  22.713  52.915  1.00  0.00     0.010 A 
ENDBRANCH  22  23
ENDBRANCH  19  22
ENDBRANCH   1  19
TORSDOF 6
ENDMDL
MODEL 5
REMARK VINA RESULT:      -8.8      6.315     10.788
REMARK  6 active torsions:
REMARK  status: ('A' for Active; 'I' for Inactive)
REMARK    1  A    between atoms: C_2  and  N_3 
REMARK    2  A    between atoms: C_2  and  C_19 
REMARK       I    between atoms: N_3  and  C_4 
REMARK    3  A    between atoms: C_4  and  C_5 
REMARK    4  A    between atoms: C_9  and  C_10 
REMARK    5  A    between atoms: C_13  and  O_14 
REMARK    6  A    between atoms: C_19  and  C_20 
ROOT
HETATM    1  N   UNL     1       7.531  29.023  58.539  1.00  0.00    -0.347 N 
HETATM    2  C   UNL     1       8.447  30.008  58.831  1.00  0.00     0.270 C 
HETATM    3  O   UNL     1       9.331  30.363  58.061  1.00  0.00    -0.266 OA
HETATM    4  H   UNL     1       6.728  28.969  59.149  1.00  0.00     0.163 HD
ENDROOT
BRANCH   2   5
HETATM    5  C   UNL     1       8.256  30.643  60.108  1.00  0.00     0.120 A 
HETATM    6  N   UNL     1       8.936  30.243  61.223  1.00  0.00    -0.272 N 
HETATM    7  H   UNL     1       9.606  29.481  61.286  1.00  0.00     0.189 HD
HETATM    8  N   UNL     1       8.679  30.974  62.319  1.00  0.00    -0.174 NA
HETATM    9  C   UNL     1       7.772  31.880  61.919  1.00  0.00     0.089 A 
HETATM   10  C   UNL     1       7.471  31.692  60.542  1.00  0.00     0.071 A 
BRANCH   9  11
HETATM   11  C   UNL     1       7.235  32.898  62.831  1.00  0.00    -0.005 A 
HETATM   12  C   UNL     1       6.337  33.872  62.364  1.00  0.00     0.016 A 
HETATM   13  C   UNL     1       5.801  34.833  63.227  1.00  0.00     0.037 A 
HETATM   14  C   UNL     1       6.166  34.825  64.568  1.00  0.00     0.065 A 
HETATM   15  C   UNL     1       7.056  33.877  65.054  1.00  0.00     0.037 A 
HETATM   16  C   UNL     1       7.590  32.917  64.190  1.00  0.00     0.016 A 
BRANCH  14  17
HETATM   17  O   UNL     1       5.665  35.736  65.449  1.00  0.00    -0.361 OA
HETATM   18  H   UNL     1       5.374  36.518  64.951  1.00  0.00     0.217 HD
ENDBRANCH  14  17
ENDBRANCH   9  11
ENDBRANCH   2   5
BRANCH   1  19
HETATM   19  C   UNL     1       7.368  28.381  57.223  1.00  0.00     0.030 C 
HETATM   20  C   UNL     1       7.102  29.434  56.126  1.00  0.00     0.038 C 
HETATM   21  C   UNL     1       8.708  27.701  56.871  1.00  0.00     0.038 C 
BRANCH  19  22
HETATM   22  C   UNL     1       6.203  27.343  57.218  1.00  0.00     0.069 C 
BRANCH  22  23
HETATM   23  C   UNL     1       6.415  26.119  56.348  1.00  0.00    -0.056 A 
HETATM   24  C   UNL     1       6.979  24.953  56.893  1.00  0.00     0.010 A 
HETATM   25  C   UNL     1       7.196  23.830  56.094  1.00  0.00     0.043 A 
HETATM   26  C   UNL     1       6.842  23.865  54.753  1.00  0.00     0.116 A 
HETATM   27  F   UNL     1       7.050  22.788  53.985  1.00  0.00    -0.206 F 
HETATM   28  C   UNL     1       6.269  25.002  54.195  1.00  0.00     0.043 A 
HETATM   29  C   UNL     1       6.052  26.127  54.992  1.00  0.00     0.010 A 
ENDBRANCH  22  23
ENDBRANCH  19  22
ENDBRANCH   1  19
TORSDOF 6
ENDMDL
MODEL 6
REMARK VINA RESULT:      -8.7      3.246      7.601
REMARK  6 active torsions:
REMARK  status: ('A' for Active; 'I' for Inactive)
REMARK    1  A    between atoms: C_2  and  N_3 
REMARK    2  A    between atoms: C_2  and  C_19 
REMARK       I    between atoms: N_3  and  C_4 
REMARK    3  A    between atoms: C_4  and  C_5 
REMARK    4  A    between atoms: C_9  and  C_10 
REMARK    5  A    between atoms: C_13  and  O_14 
REMARK    6  A    between atoms: C_19  and  C_20 
ROOT
HETATM    1  N   UNL     1       6.231  26.487  53.751  1.00  0.00    -0.347 N 
HETATM    2  C   UNL     1       5.737  26.277  55.018  1.00  0.00     0.270 C 
HETATM    3  O   UNL     1       5.221  25.226  55.380  1.00  0.00    -0.266 OA
HETATM    4  H   UNL     1       6.821  27.298  53.634  1.00  0.00     0.163 HD
ENDROOT
BRANCH   2   5
HETATM    5  C   UNL     1       5.922  27.381  55.923  1.00  0.00     0.120 A 
HETATM    6  N   UNL     1       4.871  27.969  56.569  1.00  0.00    -0.272 N 
HETATM    7  H   UNL     1       3.889  27.726  56.479  1.00  0.00     0.189 HD
HETATM    8  N   UNL     1       5.224  28.949  57.416  1.00  0.00    -0.174 NA
HETATM    9  C   UNL     1       6.560  29.029  57.308  1.00  0.00     0.089 A 
HETATM   10  C   UNL     1       7.031  28.071  56.368  1.00  0.00     0.071 A 
BRANCH   9  11
HETATM   11  C   UNL     1       7.348  29.983  58.098  1.00  0.00    -0.005 A 
HETATM   12  C   UNL     1       8.747  29.869  58.167  1.00  0.00     0.016 A 
HETATM   13  C   UNL     1       9.511  30.785  58.897  1.00  0.00     0.037 A 
HETATM   14  C   UNL     1       8.875  31.822  59.568  1.00  0.00     0.065 A 
HETATM   15  C   UNL     1       7.494  31.954  59.522  1.00  0.00     0.037 A 
HETATM   16  C   UNL     1       6.732  31.039  58.790  1.00  0.00     0.016 A 
BRANCH  14  17
HETATM   17  O   UNL     1       9.576  32.742  60.288  1.00  0.00    -0.361 OA
HETATM   18  H   UNL     1      10.485  32.418  60.401  1.00  0.00     0.217 HD
ENDBRANCH  14  17
ENDBRANCH   9  11
ENDBRANCH   2   5
BRANCH   1  19
HETATM   19  C   UNL     1       6.370  25.451  52.713  1.00  0.00     0.030 C 
HETATM   20  C   UNL     1       5.288  24.363  52.873  1.00  0.00     0.038 C 
HETATM   21  C   UNL     1       6.122  26.128  51.348  1.00  0.00     0.038 C 
BRANCH  19  22
HETATM   22  C   UNL     1       7.775  24.774  52.746  1.00  0.00     0.069 C 
BRANCH  22  23
HETATM   23  C   UNL     1       7.865  23.481  53.533  1.00  0.00    -0.056 A 
HETATM   24  C   UNL     1       7.820  22.244  52.867  1.00  0.00     0.010 A 
HETATM   25  C   UNL     1       7.881  21.049  53.585  1.00  0.00     0.043 A 
HETATM   26  C   UNL     1       7.998  21.087  54.968  1.00  0.00     0.116 A 
HETATM   27  F   UNL     1       8.056  19.941  55.658  1.00  0.00    -0.206 F 
HETATM   28  C   UNL     1       8.060  22.299  55.646  1.00  0.00     0.043 A 
HETATM   29  C   UNL     1       7.997  23.495  54.930  1.00  0.00     0.010 A 
ENDBRANCH  22  23
ENDBRANCH  19  22
ENDBRANCH   1  19
TORSDOF 6
ENDMDL
MODEL 7
REMARK VINA RESULT:      -8.7      2.944      7.551
REMARK  6 active torsions:
REMARK  status: ('A' for Active; 'I' for Inactive)
REMARK    1  A    between atoms: C_2  and  N_3 
REMARK    2  A    between atoms: C_2  and  C_19 
REMARK       I    between atoms: N_3  and  C_4 
REMARK    3  A    between atoms: C_4  and  C_5 
REMARK    4  A    between atoms: C_9  and  C_10 
REMARK    5  A    between atoms: C_13  and  O_14 
REMARK    6  A    between atoms: C_19  and  C_20 
ROOT
HETATM    1  N   UNL     1       4.168  27.736  51.930  1.00  0.00    -0.347 N 
HETATM    2  C   UNL     1       5.488  27.645  52.307  1.00  0.00     0.270 C 
HETATM    3  O   UNL     1       6.318  28.521  52.092  1.00  0.00    -0.266 OA
HETATM    4  H   UNL     1       3.540  27.064  52.347  1.00  0.00     0.163 HD
ENDROOT
BRANCH   2   5
HETATM    5  C   UNL     1       5.821  26.449  53.035  1.00  0.00     0.120 A 
HETATM    6  N   UNL     1       5.211  26.127  54.215  1.00  0.00    -0.272 N 
HETATM    7  H   UNL     1       4.505  26.671  54.702  1.00  0.00     0.189 HD
HETATM    8  N   UNL     1       5.601  24.953  54.735  1.00  0.00    -0.174 NA
HETATM    9  C   UNL     1       6.525  24.490  53.877  1.00  0.00     0.089 A 
HETATM   10  C   UNL     1       6.700  25.410  52.807  1.00  0.00     0.071 A 
BRANCH   9  11
HETATM   11  C   UNL     1       7.195  23.199  54.078  1.00  0.00    -0.005 A 
HETATM   12  C   UNL     1       7.382  22.685  55.372  1.00  0.00     0.016 A 
HETATM   13  C   UNL     1       7.998  21.446  55.575  1.00  0.00     0.037 A 
HETATM   14  C   UNL     1       8.437  20.715  54.478  1.00  0.00     0.065 A 
HETATM   15  C   UNL     1       8.271  21.202  53.189  1.00  0.00     0.037 A 
HETATM   16  C   UNL     1       7.653  22.440  52.989  1.00  0.00     0.016 A 
BRANCH  14  17
HETATM   17  O   UNL     1       9.037  19.501  54.625  1.00  0.00    -0.361 OA
HETATM   18  H   UNL     1       9.971  19.586  54.371  1.00  0.00     0.217 HD
ENDBRANCH  14  17
ENDBRANCH   9  11
ENDBRANCH   2   5
BRANCH   1  19
HETATM   19  C   UNL     1       3.525  28.941  51.379  1.00  0.00     0.030 C 
HETATM   20  C   UNL     1       1.988  28.840  51.479  1.00  0.00     0.038 C 
HETATM   21  C   UNL     1       3.950  30.135  52.260  1.00  0.00     0.038 C 
BRANCH  19  22
HETATM   22  C   UNL     1       3.918  29.186  49.889  1.00  0.00     0.069 C 
BRANCH  22  23
HETATM   23  C   UNL     1       3.584  28.064  48.926  1.00  0.00    -0.056 A 
HETATM   24  C   UNL     1       2.318  28.007  48.317  1.00  0.00     0.010 A 
HETATM   25  C   UNL     1       1.996  26.966  47.446  1.00  0.00     0.043 A 
HETATM   26  C   UNL     1       2.940  25.986  47.173  1.00  0.00     0.116 A 
HETATM   27  F   UNL     1       2.631  24.986  46.337  1.00  0.00    -0.206 F 
HETATM   28  C   UNL     1       4.203  26.028  47.752  1.00  0.00     0.043 A 
HETATM   29  C   UNL     1       4.526  27.068  48.625  1.00  0.00     0.010 A 
ENDBRANCH  22  23
ENDBRANCH  19  22
ENDBRANCH   1  19
TORSDOF 6
ENDMDL
MODEL 8
REMARK VINA RESULT:      -8.5      4.509      7.118
REMARK  6 active torsions:
REMARK  status: ('A' for Active; 'I' for Inactive)
REMARK    1  A    between atoms: C_2  and  N_3 
REMARK    2  A    between atoms: C_2  and  C_19 
REMARK       I    between atoms: N_3  and  C_4 
REMARK    3  A    between atoms: C_4  and  C_5 
REMARK    4  A    between atoms: C_9  and  C_10 
REMARK    5  A    between atoms: C_13  and  O_14 
REMARK    6  A    between atoms: C_19  and  C_20 
ROOT
HETATM    1  N   UNL     1       5.606  27.950  55.910  1.00  0.00    -0.347 N 
HETATM    2  C   UNL     1       5.154  27.496  54.692  1.00  0.00     0.270 C 
HETATM    3  O   UNL     1       4.350  28.104  53.996  1.00  0.00    -0.266 OA
HETATM    4  H   UNL     1       6.417  27.482  56.285  1.00  0.00     0.163 HD
ENDROOT
BRANCH   2   5
HETATM    5  C   UNL     1       5.745  26.257  54.260  1.00  0.00     0.120 A 
HETATM    6  N   UNL     1       6.048  26.019  52.949  1.00  0.00    -0.272 N 
HETATM    7  H   UNL     1       5.885  26.643  52.165  1.00  0.00     0.189 HD
HETATM    8  N   UNL     1       6.641  24.836  52.726  1.00  0.00    -0.174 NA
HETATM    9  C   UNL     1       6.711  24.256  53.935  1.00  0.00     0.089 A 
HETATM   10  C   UNL     1       6.143  25.112  54.919  1.00  0.00     0.071 A 
BRANCH   9  11
HETATM   11  C   UNL     1       7.320  22.934  54.130  1.00  0.00    -0.005 A 
HETATM   12  C   UNL     1       7.740  22.172  53.028  1.00  0.00     0.016 A 
HETATM   13  C   UNL     1       8.343  20.922  53.202  1.00  0.00     0.037 A 
HETATM   14  C   UNL     1       8.525  20.425  54.487  1.00  0.00     0.065 A 
HETATM   15  C   UNL     1       8.114  21.155  55.593  1.00  0.00     0.037 A 
HETATM   16  C   UNL     1       7.513  22.405  55.417  1.00  0.00     0.016 A 
BRANCH  14  17
HETATM   17  O   UNL     1       9.112  19.215  54.707  1.00  0.00    -0.361 OA
HETATM   18  H   UNL     1       8.745  18.575  54.076  1.00  0.00     0.217 HD
ENDBRANCH  14  17
ENDBRANCH   9  11
ENDBRANCH   2   5
BRANCH   1  19
HETATM   19  C   UNL     1       5.334  29.286  56.470  1.00  0.00     0.030 C 
HETATM   20  C   UNL     1       5.743  30.393  55.476  1.00  0.00     0.038 C 
HETATM   21  C   UNL     1       3.807  29.404  56.664  1.00  0.00     0.038 C 
BRANCH  19  22
HETATM   22  C   UNL     1       6.082  29.519  57.819  1.00  0.00     0.069 C 
BRANCH  22  23
HETATM   23  C   UNL     1       7.585  29.692  57.718  1.00  0.00    -0.056 A 
HETATM   24  C   UNL     1       8.357  28.767  56.995  1.00  0.00     0.010 A 
HETATM   25  C   UNL     1       9.742  28.908  56.915  1.00  0.00     0.043 A 
HETATM   26  C   UNL     1      10.359  29.978  57.548  1.00  0.00     0.116 A 
HETATM   27  F   UNL     1      11.689  30.114  57.472  1.00  0.00    -0.206 F 
HETATM   28  C   UNL     1       9.615  30.914  58.257  1.00  0.00     0.043 A 
HETATM   29  C   UNL     1       8.229  30.774  58.339  1.00  0.00     0.010 A 
ENDBRANCH  22  23
ENDBRANCH  19  22
ENDBRANCH   1  19
TORSDOF 6
ENDMDL
MODEL 9
REMARK VINA RESULT:      -8.4      1.380      1.842
REMARK  6 active torsions:
REMARK  status: ('A' for Active; 'I' for Inactive)
REMARK    1  A    between atoms: C_2  and  N_3 
REMARK    2  A    between atoms: C_2  and  C_19 
REMARK       I    between atoms: N_3  and  C_4 
REMARK    3  A    between atoms: C_4  and  C_5 
REMARK    4  A    between atoms: C_9  and  C_10 
REMARK    5  A    between atoms: C_13  and  O_14 
REMARK    6  A    between atoms: C_19  and  C_20 
ROOT
HETATM    1  N   UNL     1       5.799  26.395  54.442  1.00  0.00    -0.347 N 
HETATM    2  C   UNL     1       6.398  27.151  53.460  1.00  0.00     0.270 C 
HETATM    3  O   UNL     1       7.430  27.790  53.629  1.00  0.00    -0.266 OA
HETATM    4  H   UNL     1       5.089  25.748  54.132  1.00  0.00     0.163 HD
ENDROOT
BRANCH   2   5
HETATM    5  C   UNL     1       5.744  27.095  52.180  1.00  0.00     0.120 A 
HETATM    6  N   UNL     1       5.699  25.946  51.441  1.00  0.00    -0.272 N 
HETATM    7  H   UNL     1       6.115  25.051  51.683  1.00  0.00     0.189 HD
HETATM    8  N   UNL     1       5.006  26.053  50.297  1.00  0.00    -0.174 NA
HETATM    9  C   UNL     1       4.595  27.331  50.265  1.00  0.00     0.089 A 
HETATM   10  C   UNL     1       5.053  28.019  51.422  1.00  0.00     0.071 A 
BRANCH   9  11
HETATM   11  C   UNL     1       3.776  27.857  49.166  1.00  0.00    -0.005 A 
HETATM   12  C   UNL     1       2.760  27.073  48.593  1.00  0.00     0.016 A 
HETATM   13  C   UNL     1       1.958  27.572  47.561  1.00  0.00     0.037 A 
HETATM   14  C   UNL     1       2.173  28.863  47.093  1.00  0.00     0.065 A 
HETATM   15  C   UNL     1       3.173  29.656  47.637  1.00  0.00     0.037 A 
HETATM   16  C   UNL     1       3.973  29.156  48.670  1.00  0.00     0.016 A 
BRANCH  14  17
HETATM   17  O   UNL     1       1.414  29.395  46.095  1.00  0.00    -0.361 OA
HETATM   18  H   UNL     1       0.527  29.002  46.140  1.00  0.00     0.217 HD
ENDBRANCH  14  17
ENDBRANCH   9  11
ENDBRANCH   2   5
BRANCH   1  19
HETATM   19  C   UNL     1       6.385  26.104  55.762  1.00  0.00     0.030 C 
HETATM   20  C   UNL     1       6.536  27.395  56.595  1.00  0.00     0.038 C 
HETATM   21  C   UNL     1       5.389  25.200  56.520  1.00  0.00     0.038 C 
BRANCH  19  22
HETATM   22  C   UNL     1       7.779  25.413  55.646  1.00  0.00     0.069 C 
BRANCH  22  23
HETATM   23  C   UNL     1       7.792  24.069  54.945  1.00  0.00    -0.056 A 
HETATM   24  C   UNL     1       7.985  23.997  53.555  1.00  0.00     0.010 A 
HETATM   25  C   UNL     1       7.978  22.765  52.900  1.00  0.00     0.043 A 
HETATM   26  C   UNL     1       7.789  21.602  53.634  1.00  0.00     0.116 A 
HETATM   27  F   UNL     1       7.782  20.419  53.005  1.00  0.00    -0.206 F 
HETATM   28  C   UNL     1       7.611  21.647  55.011  1.00  0.00     0.043 A 
HETATM   29  C   UNL     1       7.616  22.878  55.668  1.00  0.00     0.010 A 
ENDBRANCH  22  23
ENDBRANCH  19  22
ENDBRANCH   1  19
TORSDOF 6
ENDMDL
MODEL 10
REMARK VINA RESULT:      -8.3      5.883     10.360
REMARK  6 active torsions:
REMARK  status: ('A' for Active; 'I' for Inactive)
REMARK    1  A    between atoms: C_2  and  N_3 
REMARK    2  A    between atoms: C_2  and  C_19 
REMARK       I    between atoms: N_3  and  C_4 
REMARK    3  A    between atoms: C_4  and  C_5 
REMARK    4  A    between atoms: C_9  and  C_10 
REMARK    5  A    between atoms: C_13  and  O_14 
REMARK    6  A    between atoms: C_19  and  C_20 
ROOT
HETATM    1  N   UNL     1       7.452  28.985  57.641  1.00  0.00    -0.347 N 
HETATM    2  C   UNL     1       8.322  29.805  58.322  1.00  0.00     0.270 C 
HETATM    3  O   UNL     1       9.536  29.800  58.150  1.00  0.00    -0.266 OA
HETATM    4  H   UNL     1       6.474  29.227  57.704  1.00  0.00     0.163 HD
ENDROOT
BRANCH   2   5
HETATM    5  C   UNL     1       7.690  30.726  59.229  1.00  0.00     0.120 A 
HETATM    6  N   UNL     1       6.461  31.265  58.972  1.00  0.00    -0.272 N 
HETATM    7  H   UNL     1       5.887  31.106  58.149  1.00  0.00     0.189 HD
HETATM    8  N   UNL     1       5.994  32.062  59.945  1.00  0.00    -0.174 NA
HETATM    9  C   UNL     1       6.964  32.072  60.874  1.00  0.00     0.089 A 
HETATM   10  C   UNL     1       8.051  31.257  60.451  1.00  0.00     0.071 A 
BRANCH   9  11
HETATM   11  C   UNL     1       6.834  32.825  62.128  1.00  0.00    -0.005 A 
HETATM   12  C   UNL     1       5.954  33.917  62.217  1.00  0.00     0.016 A 
HETATM   13  C   UNL     1       5.805  34.627  63.412  1.00  0.00     0.037 A 
HETATM   14  C   UNL     1       6.542  34.249  64.528  1.00  0.00     0.065 A 
HETATM   15  C   UNL     1       7.423  33.179  64.465  1.00  0.00     0.037 A 
HETATM   16  C   UNL     1       7.570  32.468  63.270  1.00  0.00     0.016 A 
BRANCH  14  17
HETATM   17  O   UNL     1       6.426  34.907  65.715  1.00  0.00    -0.361 OA
HETATM   18  H   UNL     1       6.904  34.403  66.394  1.00  0.00     0.217 HD
ENDBRANCH  14  17
ENDBRANCH   9  11
ENDBRANCH   2   5
BRANCH   1  19
HETATM   19  C   UNL     1       7.816  28.120  56.505  1.00  0.00     0.030 C 
HETATM   20  C   UNL     1       8.593  28.915  55.434  1.00  0.00     0.038 C 
HETATM   21  C   UNL     1       8.777  27.036  57.038  1.00  0.00     0.038 C 
BRANCH  19  22
HETATM   22  C   UNL     1       6.564  27.469  55.839  1.00  0.00     0.069 C 
BRANCH  22  23
HETATM   23  C   UNL     1       6.822  26.200  55.051  1.00  0.00    -0.056 A 
HETATM   24  C   UNL     1       7.257  26.272  53.716  1.00  0.00     0.010 A 
HETATM   25  C   UNL     1       7.477  25.109  52.978  1.00  0.00     0.043 A 
HETATM   26  C   UNL     1       7.272  23.872  53.573  1.00  0.00     0.116 A 
HETATM   27  F   UNL     1       7.483  22.755  52.864  1.00  0.00    -0.206 F 
HETATM   28  C   UNL     1       6.857  23.775  54.895  1.00  0.00     0.043 A 
HETATM   29  C   UNL     1       6.635  24.938  55.635  1.00  0.00     0.010 A 
ENDBRANCH  22  23
ENDBRANCH  19  22
ENDBRANCH   1  19
TORSDOF 6
ENDMDL
