MODEL 1
REMARK VINA RESULT:      -9.0      0.000      0.000
REMARK  7 active torsions:
REMARK  status: ('A' for Active; 'I' for Inactive)
REMARK    1  A    between atoms: C_2  and  C_3 
REMARK    2  A    between atoms: C_3  and  N_4 
REMARK       I    between atoms: N_4  and  C_5 
REMARK    3  A    between atoms: C_5  and  C_6 
REMARK    4  A    between atoms: C_9  and  N_10 
REMARK       I    between atoms: N_10  and  C_11 
REMARK    5  A    between atoms: C_11  and  C_12 
REMARK    6  A    between atoms: C_14  and  O_15 
REMARK    7  A    between atoms: O_15  and  C_16 
ROOT
HETATM    1  N   UNL     1       7.834  31.089  61.064  1.00  0.00    -0.323 N 
HETATM    2  C   UNL     1       8.496  31.617  59.969  1.00  0.00     0.256 C 
HETATM    3  O   UNL     1       8.840  32.783  59.818  1.00  0.00    -0.267 OA
HETATM    4  H   UNL     1       7.768  30.082  61.125  1.00  0.00     0.169 HD
ENDROOT
BRANCH   1   5
HETATM    5  C   UNL     1       7.232  31.800  62.123  1.00  0.00     0.035 A 
HETATM    6  C   UNL     1       5.861  32.045  62.224  1.00  0.00     0.030 A 
HETATM    7  C   UNL     1       5.331  32.696  63.347  1.00  0.00     0.019 A 
HETATM    8  C   UNL     1       6.169  33.100  64.390  1.00  0.00     0.032 A 
HETATM    9  C   UNL     1       7.548  32.891  64.273  1.00  0.00     0.019 A 
HETATM   10  C   UNL     1       8.074  32.246  63.148  1.00  0.00     0.030 A 
BRANCH   8  11
HETATM   11  C   UNL     1       5.662  33.742  65.638  1.00  0.00     0.251 C 
HETATM   12  N   UNL     1       6.600  34.060  66.602  1.00  0.00    -0.357 N 
HETATM   13  H   UNL     1       7.583  33.979  66.385  1.00  0.00     0.162 HD
HETATM   14  O   UNL     1       4.470  34.006  65.748  1.00  0.00    -0.268 OA
BRANCH  12  15
HETATM   15  C   UNL     1       6.239  34.818  67.785  1.00  0.00     0.122 C 
BRANCH  15  16
HETATM   16  C   UNL     1       6.792  34.224  69.079  1.00  0.00     0.015 C 
HETATM   17  C   UNL     1       8.045  34.936  69.566  1.00  0.00     0.006 C 
ENDBRANCH  15  16
ENDBRANCH  12  15
ENDBRANCH   8  11
ENDBRANCH   1   5
BRANCH   2  18
HETATM   18  C   UNL     1       8.810  30.645  58.882  1.00  0.00     0.037 A 
HETATM   19  C   UNL     1       7.927  29.591  58.654  1.00  0.00     0.075 A 
HETATM   20  C   UNL     1       8.271  28.654  57.699  1.00  0.00     0.165 A 
HETATM   21  N   UNL     1       9.402  28.708  56.965  1.00  0.00    -0.237 NA
HETATM   22  C   UNL     1      10.241  29.733  57.208  1.00  0.00     0.120 A 
HETATM   23  C   UNL     1      10.000  30.715  58.153  1.00  0.00     0.036 A 
BRANCH  20  24
HETATM   24  O   UNL     1       7.399  27.600  57.511  1.00  0.00    -0.329 OA
BRANCH  24  25
HETATM   25  C   UNL     1       7.902  26.500  56.724  1.00  0.00     0.130 C 
HETATM   26  C   UNL     1       8.315  25.249  57.542  1.00  0.00     0.032 C 
HETATM   27  C   UNL     1       7.766  24.392  56.387  1.00  0.00     0.005 C 
HETATM   28  C   UNL     1       6.859  25.583  56.028  1.00  0.00     0.032 C 
ENDBRANCH  24  25
ENDBRANCH  20  24
ENDBRANCH   2  18
TORSDOF 7
ENDMDL
MODEL 2
REMARK VINA RESULT:      -8.9      2.949      6.513
REMARK  7 active torsions:
REMARK  status: ('A' for Active; 'I' for Inactive)
REMARK    1  A    between atoms: C_2  and  C_3 
REMARK    2  A    between atoms: C_3  and  N_4 
REMARK       I    between atoms: N_4  and  C_5 
REMARK    3  A    between atoms: C_5  and  C_6 
REMARK    4  A    between atoms: C_9  and  N_10 
REMARK       I    between atoms: N_10  and  C_11 
REMARK    5  A    between atoms: C_11  and  C_12 
REMARK    6  A    between atoms: C_14  and  O_15 
REMARK    7  A    between atoms: O_15  and  C_16 
ROOT
HETATM    1  N   UNL     1       7.701  27.831  55.666  1.00  0.00    -0.323 N 
HETATM    2  C   UNL     1       7.307  26.512  55.802  1.00  0.00     0.256 C 
HETATM    3  O   UNL     1       6.895  25.975  56.823  1.00  0.00    -0.267 OA
HETATM    4  H   UNL     1       7.855  28.176  54.729  1.00  0.00     0.169 HD
ENDROOT
BRANCH   1   5
HETATM    5  C   UNL     1       7.915  28.769  56.698  1.00  0.00     0.035 A 
HETATM    6  C   UNL     1       9.169  29.081  57.227  1.00  0.00     0.030 A 
HETATM    7  C   UNL     1       9.307  30.080  58.201  1.00  0.00     0.019 A 
HETATM    8  C   UNL     1       8.188  30.790  58.649  1.00  0.00     0.032 A 
HETATM    9  C   UNL     1       6.926  30.452  58.148  1.00  0.00     0.019 A 
HETATM   10  C   UNL     1       6.791  29.450  57.181  1.00  0.00     0.030 A 
BRANCH   8  11
HETATM   11  C   UNL     1       8.274  31.905  59.636  1.00  0.00     0.251 C 
HETATM   12  N   UNL     1       7.301  31.948  60.616  1.00  0.00    -0.357 N 
HETATM   13  H   UNL     1       6.663  31.171  60.718  1.00  0.00     0.162 HD
HETATM   14  O   UNL     1       9.207  32.699  59.580  1.00  0.00    -0.268 OA
BRANCH  12  15
HETATM   15  C   UNL     1       7.373  32.897  61.711  1.00  0.00     0.122 C 
BRANCH  15  16
HETATM   16  C   UNL     1       8.074  32.343  62.950  1.00  0.00     0.015 C 
HETATM   17  C   UNL     1       7.715  33.102  64.218  1.00  0.00     0.006 C 
ENDBRANCH  15  16
ENDBRANCH  12  15
ENDBRANCH   8  11
ENDBRANCH   1   5
BRANCH   2  18
HETATM   18  C   UNL     1       7.404  25.685  54.564  1.00  0.00     0.037 A 
HETATM   19  C   UNL     1       7.316  24.298  54.680  1.00  0.00     0.075 A 
HETATM   20  C   UNL     1       7.488  23.543  53.537  1.00  0.00     0.165 A 
HETATM   21  N   UNL     1       7.721  24.067  52.315  1.00  0.00    -0.237 NA
HETATM   22  C   UNL     1       7.807  25.409  52.231  1.00  0.00     0.120 A 
HETATM   23  C   UNL     1       7.666  26.256  53.316  1.00  0.00     0.036 A 
BRANCH  20  24
HETATM   24  O   UNL     1       7.430  22.170  53.677  1.00  0.00    -0.329 OA
BRANCH  24  25
HETATM   25  C   UNL     1       8.340  21.597  54.640  1.00  0.00     0.130 C 
HETATM   26  C   UNL     1       7.662  20.999  55.900  1.00  0.00     0.032 C 
HETATM   27  C   UNL     1       8.729  19.890  55.869  1.00  0.00     0.005 C 
HETATM   28  C   UNL     1       8.866  20.163  54.360  1.00  0.00     0.032 C 
ENDBRANCH  24  25
ENDBRANCH  20  24
ENDBRANCH   2  18
TORSDOF 7
ENDMDL
MODEL 3
REMARK VINA RESULT:      -8.6      3.170      6.563
REMARK  7 active torsions:
REMARK  status: ('A' for Active; 'I' for Inactive)
REMARK    1  A    between atoms: C_2  and  C_3 
REMARK    2  A    between atoms: C_3  and  N_4 
REMARK       I    between atoms: N_4  and  C_5 
REMARK    3  A    between atoms: C_5  and  C_6 
REMARK    4  A    between atoms: C_9  and  N_10 
REMARK       I    between atoms: N_10  and  C_11 
REMARK    5  A    between atoms: C_11  and  C_12 
REMARK    6  A    between atoms: C_14  and  O_15 
REMARK    7  A    between atoms: O_15  and  C_16 
ROOT
HETATM    1  N   UNL     1       7.316  27.613  55.905  1.00  0.00    -0.323 N 
HETATM    2  C   UNL     1       7.540  27.584  54.540  1.00  0.00     0.256 C 
HETATM    3  O   UNL     1       8.164  28.410  53.885  1.00  0.00    -0.267 OA
HETATM    4  H   UNL     1       6.934  26.781  56.331  1.00  0.00     0.169 HD
ENDROOT
BRANCH   1   5
HETATM    5  C   UNL     1       7.565  28.685  56.788  1.00  0.00     0.035 A 
HETATM    6  C   UNL     1       6.601  29.613  57.185  1.00  0.00     0.030 A 
HETATM    7  C   UNL     1       6.908  30.607  58.126  1.00  0.00     0.019 A 
HETATM    8  C   UNL     1       8.186  30.675  58.690  1.00  0.00     0.032 A 
HETATM    9  C   UNL     1       9.164  29.769  58.264  1.00  0.00     0.019 A 
HETATM   10  C   UNL     1       8.855  28.783  57.321  1.00  0.00     0.030 A 
BRANCH   8  11
HETATM   11  C   UNL     1       8.560  31.667  59.740  1.00  0.00     0.251 C 
HETATM   12  N   UNL     1       8.233  31.350  61.044  1.00  0.00    -0.357 N 
HETATM   13  H   UNL     1       7.888  30.425  61.259  1.00  0.00     0.162 HD
HETATM   14  O   UNL     1       9.171  32.684  59.428  1.00  0.00    -0.268 OA
BRANCH  12  15
HETATM   15  C   UNL     1       8.679  32.169  62.154  1.00  0.00     0.122 C 
BRANCH  15  16
HETATM   16  C   UNL     1       7.788  32.056  63.390  1.00  0.00     0.015 C 
HETATM   17  C   UNL     1       7.762  33.333  64.216  1.00  0.00     0.006 C 
ENDBRANCH  15  16
ENDBRANCH  12  15
ENDBRANCH   8  11
ENDBRANCH   1   5
BRANCH   2  18
HETATM   18  C   UNL     1       6.952  26.417  53.820  1.00  0.00     0.037 A 
HETATM   19  C   UNL     1       7.749  25.292  53.609  1.00  0.00     0.075 A 
HETATM   20  C   UNL     1       7.217  24.253  52.872  1.00  0.00     0.165 A 
HETATM   21  N   UNL     1       5.969  24.255  52.358  1.00  0.00    -0.237 NA
HETATM   22  C   UNL     1       5.221  25.355  52.572  1.00  0.00     0.120 A 
HETATM   23  C   UNL     1       5.663  26.457  53.282  1.00  0.00     0.036 A 
BRANCH  20  24
HETATM   24  O   UNL     1       8.033  23.162  52.646  1.00  0.00    -0.329 OA
BRANCH  24  25
HETATM   25  C   UNL     1       7.637  21.935  53.295  1.00  0.00     0.130 C 
HETATM   26  C   UNL     1       8.513  20.703  52.949  1.00  0.00     0.032 C 
HETATM   27  C   UNL     1       8.337  20.248  54.409  1.00  0.00     0.005 C 
HETATM   28  C   UNL     1       8.093  21.726  54.765  1.00  0.00     0.032 C 
ENDBRANCH  24  25
ENDBRANCH  20  24
ENDBRANCH   2  18
TORSDOF 7
ENDMDL
MODEL 4
REMARK VINA RESULT:      -8.6      1.262      1.540
REMARK  7 active torsions:
REMARK  status: ('A' for Active; 'I' for Inactive)
REMARK    1  A    between atoms: C_2  and  C_3 
REMARK    2  A    between atoms: C_3  and  N_4 
REMARK       I    between atoms: N_4  and  C_5 
REMARK    3  A    between atoms: C_5  and  C_6 
REMARK    4  A    between atoms: C_9  and  N_10 
REMARK       I    between atoms: N_10  and  C_11 
REMARK    5  A    between atoms: C_11  and  C_12 
REMARK    6  A    between atoms: C_14  and  O_15 
REMARK    7  A    between atoms: O_15  and  C_16 
ROOT
HETATM    1  N   UNL     1       7.818  31.114  61.160  1.00  0.00    -0.323 N 
HETATM    2  C   UNL     1       8.636  31.627  60.169  1.00  0.00     0.256 C 
HETATM    3  O   UNL     1       9.146  32.741  60.148  1.00  0.00    -0.267 OA
HETATM    4  H   UNL     1       7.612  30.126  61.126  1.00  0.00     0.169 HD
ENDROOT
BRANCH   1   5
HETATM    5  C   UNL     1       7.231  31.819  62.232  1.00  0.00     0.035 A 
HETATM    6  C   UNL     1       5.854  31.963  62.415  1.00  0.00     0.030 A 
HETATM    7  C   UNL     1       5.346  32.615  63.547  1.00  0.00     0.019 A 
HETATM    8  C   UNL     1       6.214  33.121  64.520  1.00  0.00     0.032 A 
HETATM    9  C   UNL     1       7.595  33.011  64.319  1.00  0.00     0.019 A 
HETATM   10  C   UNL     1       8.098  32.366  63.185  1.00  0.00     0.030 A 
BRANCH   8  11
HETATM   11  C   UNL     1       5.738  33.770  65.776  1.00  0.00     0.251 C 
HETATM   12  N   UNL     1       6.700  34.102  66.710  1.00  0.00    -0.357 N 
HETATM   13  H   UNL     1       7.678  34.026  66.466  1.00  0.00     0.162 HD
HETATM   14  O   UNL     1       4.548  34.026  65.917  1.00  0.00    -0.268 OA
BRANCH  12  15
HETATM   15  C   UNL     1       6.368  34.867  67.897  1.00  0.00     0.122 C 
BRANCH  15  16
HETATM   16  C   UNL     1       6.204  34.008  69.148  1.00  0.00     0.015 C 
HETATM   17  C   UNL     1       7.385  34.123  70.100  1.00  0.00     0.006 C 
ENDBRANCH  15  16
ENDBRANCH  12  15
ENDBRANCH   8  11
ENDBRANCH   1   5
BRANCH   2  18
HETATM   18  C   UNL     1       8.907  30.709  59.024  1.00  0.00     0.037 A 
HETATM   19  C   UNL     1       8.003  29.679  58.768  1.00  0.00     0.075 A 
HETATM   20  C   UNL     1       8.309  28.789  57.757  1.00  0.00     0.165 A 
HETATM   21  N   UNL     1       9.419  28.867  56.994  1.00  0.00    -0.237 NA
HETATM   22  C   UNL     1      10.278  29.869  57.266  1.00  0.00     0.120 A 
HETATM   23  C   UNL     1      10.077  30.803  58.266  1.00  0.00     0.036 A 
BRANCH  20  24
HETATM   24  O   UNL     1       7.417  27.757  57.539  1.00  0.00    -0.329 OA
BRANCH  24  25
HETATM   25  C   UNL     1       6.058  28.149  57.250  1.00  0.00     0.130 C 
HETATM   26  C   UNL     1       5.870  28.904  55.909  1.00  0.00     0.032 C 
HETATM   27  C   UNL     1       4.529  28.164  55.755  1.00  0.00     0.005 C 
HETATM   28  C   UNL     1       5.112  27.067  56.664  1.00  0.00     0.032 C 
ENDBRANCH  24  25
ENDBRANCH  20  24
ENDBRANCH   2  18
TORSDOF 7
ENDMDL
MODEL 5
REMARK VINA RESULT:      -8.0      3.851     11.189
REMARK  7 active torsions:
REMARK  status: ('A' for Active; 'I' for Inactive)
REMARK    1  A    between atoms: C_2  and  C_3 
REMARK    2  A    between atoms: C_3  and  N_4 
REMARK       I    between atoms: N_4  and  C_5 
REMARK    3  A    between atoms: C_5  and  C_6 
REMARK    4  A    between atoms: C_9  and  N_10 
REMARK       I    between atoms: N_10  and  C_11 
REMARK    5  A    between atoms: C_11  and  C_12 
REMARK    6  A    between atoms: C_14  and  O_15 
REMARK    7  A    between atoms: O_15  and  C_16 
ROOT
HETATM    1  N   UNL     1       7.144  28.199  56.516  1.00  0.00    -0.323 N 
HETATM    2  C   UNL     1       5.974  28.687  57.072  1.00  0.00     0.256 C 
HETATM    3  O   UNL     1       4.910  28.089  57.172  1.00  0.00    -0.267 OA
HETATM    4  H   UNL     1       7.985  28.741  56.656  1.00  0.00     0.169 HD
ENDROOT
BRANCH   1   5
HETATM    5  C   UNL     1       7.304  27.015  55.766  1.00  0.00     0.035 A 
HETATM    6  C   UNL     1       7.291  26.963  54.371  1.00  0.00     0.030 A 
HETATM    7  C   UNL     1       7.532  25.757  53.696  1.00  0.00     0.019 A 
HETATM    8  C   UNL     1       7.802  24.588  54.415  1.00  0.00     0.032 A 
HETATM    9  C   UNL     1       7.777  24.631  55.814  1.00  0.00     0.019 A 
HETATM   10  C   UNL     1       7.530  25.834  56.482  1.00  0.00     0.030 A 
BRANCH   8  11
HETATM   11  C   UNL     1       8.127  23.288  53.760  1.00  0.00     0.251 C 
HETATM   12  N   UNL     1       8.990  22.446  54.435  1.00  0.00    -0.357 N 
HETATM   13  H   UNL     1       9.257  22.666  55.384  1.00  0.00     0.162 HD
HETATM   14  O   UNL     1       7.595  22.992  52.695  1.00  0.00    -0.268 OA
BRANCH  12  15
HETATM   15  C   UNL     1       9.256  21.101  53.963  1.00  0.00     0.122 C 
BRANCH  15  16
HETATM   16  C   UNL     1       8.365  20.043  54.610  1.00  0.00     0.015 C 
HETATM   17  C   UNL     1       7.977  20.393  56.038  1.00  0.00     0.006 C 
ENDBRANCH  15  16
ENDBRANCH  12  15
ENDBRANCH   8  11
ENDBRANCH   1   5
BRANCH   2  18
HETATM   18  C   UNL     1       6.048  30.082  57.594  1.00  0.00     0.037 A 
HETATM   19  C   UNL     1       7.248  30.525  58.149  1.00  0.00     0.075 A 
HETATM   20  C   UNL     1       7.276  31.790  58.701  1.00  0.00     0.165 A 
HETATM   21  N   UNL     1       6.218  32.628  58.720  1.00  0.00    -0.237 NA
HETATM   22  C   UNL     1       5.070  32.175  58.181  1.00  0.00     0.120 A 
HETATM   23  C   UNL     1       4.928  30.919  57.618  1.00  0.00     0.036 A 
BRANCH  20  24
HETATM   24  O   UNL     1       8.464  32.198  59.275  1.00  0.00    -0.329 OA
BRANCH  24  25
HETATM   25  C   UNL     1       8.413  32.487  60.688  1.00  0.00     0.130 C 
HETATM   26  C   UNL     1       7.513  31.533  61.516  1.00  0.00     0.032 C 
HETATM   27  C   UNL     1       8.552  31.638  62.647  1.00  0.00     0.005 C 
HETATM   28  C   UNL     1       9.591  31.979  61.564  1.00  0.00     0.032 C 
ENDBRANCH  24  25
ENDBRANCH  20  24
ENDBRANCH   2  18
TORSDOF 7
ENDMDL
MODEL 6
REMARK VINA RESULT:      -7.9      8.805     13.014
REMARK  7 active torsions:
REMARK  status: ('A' for Active; 'I' for Inactive)
REMARK    1  A    between atoms: C_2  and  C_3 
REMARK    2  A    between atoms: C_3  and  N_4 
REMARK       I    between atoms: N_4  and  C_5 
REMARK    3  A    between atoms: C_5  and  C_6 
REMARK    4  A    between atoms: C_9  and  N_10 
REMARK       I    between atoms: N_10  and  C_11 
REMARK    5  A    between atoms: C_11  and  C_12 
REMARK    6  A    between atoms: C_14  and  O_15 
REMARK    7  A    between atoms: O_15  and  C_16 
ROOT
HETATM    1  N   UNL     1       5.720  26.355  53.435  1.00  0.00    -0.323 N 
HETATM    2  C   UNL     1       6.843  26.787  54.119  1.00  0.00     0.256 C 
HETATM    3  O   UNL     1       7.436  27.846  53.950  1.00  0.00    -0.267 OA
HETATM    4  H   UNL     1       5.241  25.542  53.796  1.00  0.00     0.169 HD
ENDROOT
BRANCH   1   5
HETATM    5  C   UNL     1       5.154  26.925  52.276  1.00  0.00     0.035 A 
HETATM    6  C   UNL     1       5.388  26.461  50.980  1.00  0.00     0.030 A 
HETATM    7  C   UNL     1       4.728  27.036  49.883  1.00  0.00     0.019 A 
HETATM    8  C   UNL     1       3.814  28.076  50.075  1.00  0.00     0.032 A 
HETATM    9  C   UNL     1       3.608  28.568  51.369  1.00  0.00     0.019 A 
HETATM   10  C   UNL     1       4.272  27.996  52.459  1.00  0.00     0.030 A 
BRANCH   8  11
HETATM   11  C   UNL     1       3.034  28.689  48.960  1.00  0.00     0.251 C 
HETATM   12  N   UNL     1       2.637  27.848  47.939  1.00  0.00    -0.357 N 
HETATM   13  H   UNL     1       2.761  26.850  48.041  1.00  0.00     0.162 HD
HETATM   14  O   UNL     1       2.736  29.878  49.006  1.00  0.00    -0.268 OA
BRANCH  12  15
HETATM   15  C   UNL     1       1.752  28.305  46.885  1.00  0.00     0.122 C 
BRANCH  15  16
HETATM   16  C   UNL     1       0.522  27.419  46.698  1.00  0.00     0.015 C 
HETATM   17  C   UNL     1      -0.479  28.002  45.713  1.00  0.00     0.006 C 
ENDBRANCH  15  16
ENDBRANCH  12  15
ENDBRANCH   8  11
ENDBRANCH   1   5
BRANCH   2  18
HETATM   18  C   UNL     1       7.359  25.850  55.159  1.00  0.00     0.037 A 
HETATM   19  C   UNL     1       7.303  24.480  54.908  1.00  0.00     0.075 A 
HETATM   20  C   UNL     1       7.709  23.623  55.912  1.00  0.00     0.165 A 
HETATM   21  N   UNL     1       8.170  24.033  57.113  1.00  0.00    -0.237 NA
HETATM   22  C   UNL     1       8.208  25.362  57.331  1.00  0.00     0.120 A 
HETATM   23  C   UNL     1       7.810  26.305  56.400  1.00  0.00     0.036 A 
BRANCH  20  24
HETATM   24  O   UNL     1       7.616  22.269  55.657  1.00  0.00    -0.329 OA
BRANCH  24  25
HETATM   25  C   UNL     1       8.471  21.766  54.608  1.00  0.00     0.130 C 
HETATM   26  C   UNL     1       8.602  20.222  54.559  1.00  0.00     0.032 C 
HETATM   27  C   UNL     1       8.630  20.337  53.025  1.00  0.00     0.005 C 
HETATM   28  C   UNL     1       7.866  21.664  53.182  1.00  0.00     0.032 C 
ENDBRANCH  24  25
ENDBRANCH  20  24
ENDBRANCH   2  18
TORSDOF 7
ENDMDL
MODEL 7
REMARK VINA RESULT:      -7.9     10.813     13.559
REMARK  7 active torsions:
REMARK  status: ('A' for Active; 'I' for Inactive)
REMARK    1  A    between atoms: C_2  and  C_3 
REMARK    2  A    between atoms: C_3  and  N_4 
REMARK       I    between atoms: N_4  and  C_5 
REMARK    3  A    between atoms: C_5  and  C_6 
REMARK    4  A    between atoms: C_9  and  N_10 
REMARK       I    between atoms: N_10  and  C_11 
REMARK    5  A    between atoms: C_11  and  C_12 
REMARK    6  A    between atoms: C_14  and  O_15 
REMARK    7  A    between atoms: O_15  and  C_16 
ROOT
HETATM    1  N   UNL     1       5.297  25.819  50.676  1.00  0.00    -0.323 N 
HETATM    2  C   UNL     1       5.094  27.128  50.277  1.00  0.00     0.256 C 
HETATM    3  O   UNL     1       5.543  28.133  50.816  1.00  0.00    -0.267 OA
HETATM    4  H   UNL     1       5.007  25.090  50.040  1.00  0.00     0.169 HD
ENDROOT
BRANCH   1   5
HETATM    5  C   UNL     1       5.872  25.374  51.884  1.00  0.00     0.035 A 
HETATM    6  C   UNL     1       5.155  25.167  53.065  1.00  0.00     0.030 A 
HETATM    7  C   UNL     1       5.787  24.651  54.206  1.00  0.00     0.019 A 
HETATM    8  C   UNL     1       7.146  24.324  54.173  1.00  0.00     0.032 A 
HETATM    9  C   UNL     1       7.874  24.567  53.003  1.00  0.00     0.019 A 
HETATM   10  C   UNL     1       7.242  25.087  51.869  1.00  0.00     0.030 A 
BRANCH   8  11
HETATM   11  C   UNL     1       7.864  23.715  55.331  1.00  0.00     0.251 C 
HETATM   12  N   UNL     1       7.614  22.381  55.589  1.00  0.00    -0.357 N 
HETATM   13  H   UNL     1       7.080  21.838  54.926  1.00  0.00     0.162 HD
HETATM   14  O   UNL     1       8.667  24.385  55.971  1.00  0.00    -0.268 OA
BRANCH  12  15
HETATM   15  C   UNL     1       8.366  21.653  56.593  1.00  0.00     0.122 C 
BRANCH  15  16
HETATM   16  C   UNL     1       9.010  20.374  56.061  1.00  0.00     0.015 C 
HETATM   17  C   UNL     1       8.643  20.087  54.614  1.00  0.00     0.006 C 
ENDBRANCH  15  16
ENDBRANCH  12  15
ENDBRANCH   8  11
ENDBRANCH   1   5
BRANCH   2  18
HETATM   18  C   UNL     1       4.239  27.303  49.067  1.00  0.00     0.037 A 
HETATM   19  C   UNL     1       4.155  28.568  48.487  1.00  0.00     0.075 A 
HETATM   20  C   UNL     1       3.297  28.731  47.417  1.00  0.00     0.165 A 
HETATM   21  N   UNL     1       2.548  27.738  46.892  1.00  0.00    -0.237 NA
HETATM   22  C   UNL     1       2.644  26.528  47.474  1.00  0.00     0.120 A 
HETATM   23  C   UNL     1       3.460  26.259  48.560  1.00  0.00     0.036 A 
BRANCH  20  24
HETATM   24  O   UNL     1       3.203  29.999  46.876  1.00  0.00    -0.329 OA
BRANCH  24  25
HETATM   25  C   UNL     1       4.456  30.648  46.575  1.00  0.00     0.130 C 
HETATM   26  C   UNL     1       4.505  31.362  45.199  1.00  0.00     0.032 C 
HETATM   27  C   UNL     1       5.357  32.455  45.868  1.00  0.00     0.005 C 
HETATM   28  C   UNL     1       4.705  32.047  47.201  1.00  0.00     0.032 C 
ENDBRANCH  24  25
ENDBRANCH  20  24
ENDBRANCH   2  18
TORSDOF 7
ENDMDL
MODEL 8
REMARK VINA RESULT:      -7.8      2.794     10.974
REMARK  7 active torsions:
REMARK  status: ('A' for Active; 'I' for Inactive)
REMARK    1  A    between atoms: C_2  and  C_3 
REMARK    2  A    between atoms: C_3  and  N_4 
REMARK       I    between atoms: N_4  and  C_5 
REMARK    3  A    between atoms: C_5  and  C_6 
REMARK    4  A    between atoms: C_9  and  N_10 
REMARK       I    between atoms: N_10  and  C_11 
REMARK    5  A    between atoms: C_11  and  C_12 
REMARK    6  A    between atoms: C_14  and  O_15 
REMARK    7  A    between atoms: O_15  and  C_16 
ROOT
HETATM    1  N   UNL     1       6.793  28.627  57.221  1.00  0.00    -0.323 N 
HETATM    2  C   UNL     1       7.607  29.702  57.532  1.00  0.00     0.256 C 
HETATM    3  O   UNL     1       8.783  29.841  57.220  1.00  0.00    -0.267 OA
HETATM    4  H   UNL     1       5.803  28.728  57.397  1.00  0.00     0.169 HD
ENDROOT
BRANCH   1   5
HETATM    5  C   UNL     1       7.187  27.388  56.675  1.00  0.00     0.035 A 
HETATM    6  C   UNL     1       7.809  26.373  57.404  1.00  0.00     0.030 A 
HETATM    7  C   UNL     1       8.104  25.139  56.806  1.00  0.00     0.019 A 
HETATM    8  C   UNL     1       7.764  24.902  55.470  1.00  0.00     0.032 A 
HETATM    9  C   UNL     1       7.174  25.932  54.728  1.00  0.00     0.019 A 
HETATM   10  C   UNL     1       6.889  27.164  55.326  1.00  0.00     0.030 A 
BRANCH   8  11
HETATM   11  C   UNL     1       7.992  23.593  54.793  1.00  0.00     0.251 C 
HETATM   12  N   UNL     1       7.517  22.466  55.435  1.00  0.00    -0.357 N 
HETATM   13  H   UNL     1       6.925  22.569  56.247  1.00  0.00     0.162 HD
HETATM   14  O   UNL     1       8.538  23.561  53.695  1.00  0.00    -0.268 OA
BRANCH  12  15
HETATM   15  C   UNL     1       7.552  21.163  54.799  1.00  0.00     0.122 C 
BRANCH  15  16
HETATM   16  C   UNL     1       8.157  20.073  55.681  1.00  0.00     0.015 C 
HETATM   17  C   UNL     1       9.547  20.428  56.186  1.00  0.00     0.006 C 
ENDBRANCH  15  16
ENDBRANCH  12  15
ENDBRANCH   8  11
ENDBRANCH   1   5
BRANCH   2  18
HETATM   18  C   UNL     1       6.959  30.785  58.328  1.00  0.00     0.037 A 
HETATM   19  C   UNL     1       7.663  31.340  59.396  1.00  0.00     0.075 A 
HETATM   20  C   UNL     1       7.020  32.283  60.173  1.00  0.00     0.165 A 
HETATM   21  N   UNL     1       5.759  32.711  59.950  1.00  0.00    -0.237 NA
HETATM   22  C   UNL     1       5.100  32.156  58.915  1.00  0.00     0.120 A 
HETATM   23  C   UNL     1       5.644  31.192  58.085  1.00  0.00     0.036 A 
BRANCH  20  24
HETATM   24  O   UNL     1       7.722  32.797  61.246  1.00  0.00    -0.329 OA
BRANCH  24  25
HETATM   25  C   UNL     1       7.051  32.737  62.523  1.00  0.00     0.130 C 
HETATM   26  C   UNL     1       7.995  32.724  63.753  1.00  0.00     0.032 C 
HETATM   27  C   UNL     1       6.953  33.592  64.481  1.00  0.00     0.005 C 
HETATM   28  C   UNL     1       6.483  34.065  63.093  1.00  0.00     0.032 C 
ENDBRANCH  24  25
ENDBRANCH  20  24
ENDBRANCH   2  18
TORSDOF 7
ENDMDL
MODEL 9
REMARK VINA RESULT:      -7.7      2.929     10.825
REMARK  7 active torsions:
REMARK  status: ('A' for Active; 'I' for Inactive)
REMARK    1  A    between atoms: C_2  and  C_3 
REMARK    2  A    between atoms: C_3  and  N_4 
REMARK       I    between atoms: N_4  and  C_5 
REMARK    3  A    between atoms: C_5  and  C_6 
REMARK    4  A    between atoms: C_9  and  N_10 
REMARK       I    between atoms: N_10  and  C_11 
REMARK    5  A    between atoms: C_11  and  C_12 
REMARK    6  A    between atoms: C_14  and  O_15 
REMARK    7  A    between atoms: O_15  and  C_16 
ROOT
HETATM    1  N   UNL     1       7.276  29.597  58.431  1.00  0.00    -0.323 N 
HETATM    2  C   UNL     1       8.382  30.226  58.975  1.00  0.00     0.256 C 
HETATM    3  O   UNL     1       9.514  30.245  58.507  1.00  0.00    -0.267 OA
HETATM    4  H   UNL     1       6.376  29.808  58.837  1.00  0.00     0.169 HD
ENDROOT
BRANCH   1   5
HETATM    5  C   UNL     1       7.257  28.682  57.358  1.00  0.00     0.035 A 
HETATM    6  C   UNL     1       7.539  27.320  57.483  1.00  0.00     0.030 A 
HETATM    7  C   UNL     1       7.426  26.460  56.381  1.00  0.00     0.019 A 
HETATM    8  C   UNL     1       7.014  26.955  55.140  1.00  0.00     0.032 A 
HETATM    9  C   UNL     1       6.767  28.326  55.003  1.00  0.00     0.019 A 
HETATM   10  C   UNL     1       6.888  29.181  56.103  1.00  0.00     0.030 A 
BRANCH   8  11
HETATM   11  C   UNL     1       6.813  26.085  53.944  1.00  0.00     0.251 C 
HETATM   12  N   UNL     1       7.922  25.412  53.468  1.00  0.00    -0.357 N 
HETATM   13  H   UNL     1       8.776  25.417  54.008  1.00  0.00     0.162 HD
HETATM   14  O   UNL     1       5.693  25.959  53.461  1.00  0.00    -0.268 OA
BRANCH  12  15
HETATM   15  C   UNL     1       7.812  24.429  52.408  1.00  0.00     0.122 C 
BRANCH  15  16
HETATM   16  C   UNL     1       7.579  23.008  52.918  1.00  0.00     0.015 C 
HETATM   17  C   UNL     1       8.582  22.593  53.983  1.00  0.00     0.006 C 
ENDBRANCH  15  16
ENDBRANCH  12  15
ENDBRANCH   8  11
ENDBRANCH   1   5
BRANCH   2  18
HETATM   18  C   UNL     1       8.141  30.945  60.260  1.00  0.00     0.037 A 
HETATM   19  C   UNL     1       7.152  31.926  60.300  1.00  0.00     0.075 A 
HETATM   20  C   UNL     1       6.996  32.638  61.473  1.00  0.00     0.165 A 
HETATM   21  N   UNL     1       7.732  32.430  62.585  1.00  0.00    -0.237 NA
HETATM   22  C   UNL     1       8.684  31.479  62.518  1.00  0.00     0.120 A 
HETATM   23  C   UNL     1       8.934  30.720  61.389  1.00  0.00     0.036 A 
BRANCH  20  24
HETATM   24  O   UNL     1       6.033  33.628  61.482  1.00  0.00    -0.329 OA
BRANCH  24  25
HETATM   25  C   UNL     1       5.891  34.356  62.721  1.00  0.00     0.130 C 
HETATM   26  C   UNL     1       5.774  35.894  62.562  1.00  0.00     0.032 C 
HETATM   27  C   UNL     1       4.774  35.874  63.732  1.00  0.00     0.005 C 
HETATM   28  C   UNL     1       4.477  34.410  63.359  1.00  0.00     0.032 C 
ENDBRANCH  24  25
ENDBRANCH  20  24
ENDBRANCH   2  18
TORSDOF 7
ENDMDL
MODEL 10
REMARK VINA RESULT:      -7.6      2.597     10.792
REMARK  7 active torsions:
REMARK  status: ('A' for Active; 'I' for Inactive)
REMARK    1  A    between atoms: C_2  and  C_3 
REMARK    2  A    between atoms: C_3  and  N_4 
REMARK       I    between atoms: N_4  and  C_5 
REMARK    3  A    between atoms: C_5  and  C_6 
REMARK    4  A    between atoms: C_9  and  N_10 
REMARK       I    between atoms: N_10  and  C_11 
REMARK    5  A    between atoms: C_11  and  C_12 
REMARK    6  A    between atoms: C_14  and  O_15 
REMARK    7  A    between atoms: O_15  and  C_16 
ROOT
HETATM    1  N   UNL     1       7.175  30.537  59.393  1.00  0.00    -0.323 N 
HETATM    2  C   UNL     1       6.913  31.879  59.603  1.00  0.00     0.256 C 
HETATM    3  O   UNL     1       6.596  32.702  58.752  1.00  0.00    -0.267 OA
HETATM    4  H   UNL     1       7.257  29.947  60.209  1.00  0.00     0.169 HD
ENDROOT
BRANCH   1   5
HETATM    5  C   UNL     1       7.340  29.883  58.154  1.00  0.00     0.035 A 
HETATM    6  C   UNL     1       8.577  29.511  57.623  1.00  0.00     0.030 A 
HETATM    7  C   UNL     1       8.654  28.797  56.418  1.00  0.00     0.019 A 
HETATM    8  C   UNL     1       7.488  28.433  55.737  1.00  0.00     0.032 A 
HETATM    9  C   UNL     1       6.249  28.838  56.249  1.00  0.00     0.019 A 
HETATM   10  C   UNL     1       6.177  29.556  57.447  1.00  0.00     0.030 A 
BRANCH   8  11
HETATM   11  C   UNL     1       7.497  27.621  54.486  1.00  0.00     0.251 C 
HETATM   12  N   UNL     1       7.653  26.256  54.628  1.00  0.00    -0.357 N 
HETATM   13  H   UNL     1       7.617  25.845  55.551  1.00  0.00     0.162 HD
HETATM   14  O   UNL     1       7.323  28.168  53.402  1.00  0.00    -0.268 OA
BRANCH  12  15
HETATM   15  C   UNL     1       7.528  25.359  53.495  1.00  0.00     0.122 C 
BRANCH  15  16
HETATM   16  C   UNL     1       7.077  23.952  53.880  1.00  0.00     0.015 C 
HETATM   17  C   UNL     1       7.724  22.872  53.027  1.00  0.00     0.006 C 
ENDBRANCH  15  16
ENDBRANCH  12  15
ENDBRANCH   8  11
ENDBRANCH   1   5
BRANCH   2  18
HETATM   18  C   UNL     1       7.038  32.342  61.016  1.00  0.00     0.037 A 
HETATM   19  C   UNL     1       6.187  33.350  61.465  1.00  0.00     0.075 A 
HETATM   20  C   UNL     1       6.368  33.823  62.749  1.00  0.00     0.165 A 
HETATM   21  N   UNL     1       7.308  33.358  63.599  1.00  0.00    -0.237 NA
HETATM   22  C   UNL     1       8.120  32.387  63.138  1.00  0.00     0.120 A 
HETATM   23  C   UNL     1       8.035  31.854  61.864  1.00  0.00     0.036 A 
BRANCH  20  24
HETATM   24  O   UNL     1       5.536  34.845  63.165  1.00  0.00    -0.329 OA
BRANCH  24  25
HETATM   25  C   UNL     1       5.353  34.966  64.592  1.00  0.00     0.130 C 
HETATM   26  C   UNL     1       4.703  36.296  65.054  1.00  0.00     0.032 C 
HETATM   27  C   UNL     1       3.963  35.485  66.132  1.00  0.00     0.005 C 
HETATM   28  C   UNL     1       4.120  34.258  65.216  1.00  0.00     0.032 C 
ENDBRANCH  24  25
ENDBRANCH  20  24
ENDBRANCH   2  18
TORSDOF 7
ENDMDL
