MODEL 1
REMARK VINA RESULT:      -8.1      0.000      0.000
REMARK  5 active torsions:
REMARK  status: ('A' for Active; 'I' for Inactive)
REMARK    1  A    between atoms: C_7  and  O_8 
REMARK    2  A    between atoms: O_8  and  C_9 
REMARK    3  A    between atoms: C_12  and  N_13 
REMARK    4  A    between atoms: N_13  and  C_16 
REMARK    5  A    between atoms: C_16  and  C_17 
ROOT
HETATM    1  C   UNL     1       7.051  33.981  66.021  1.00  0.00     0.028 A 
HETATM    2  C   UNL     1       5.860  34.132  66.725  1.00  0.00     0.062 A 
HETATM    3  C   UNL     1       5.842  34.607  68.072  1.00  0.00     0.101 C 
HETATM    4  N   UNL     1       5.803  34.990  69.165  1.00  0.00    -0.191 NA
HETATM    5  C   UNL     1       4.673  33.805  66.078  1.00  0.00     0.142 A 
HETATM    6  N   UNL     1       4.592  33.347  64.801  1.00  0.00    -0.236 NA
HETATM    7  C   UNL     1       5.771  33.209  64.150  1.00  0.00     0.164 A 
HETATM    8  C   UNL     1       7.005  33.512  64.711  1.00  0.00     0.059 A 
ENDROOT
BRANCH   7   9
HETATM    9  O   UNL     1       5.812  32.747  62.857  1.00  0.00    -0.329 OA
BRANCH   9  10
HETATM   10  C   UNL     1       7.060  32.400  62.260  1.00  0.00     0.130 C 
HETATM   11  C   UNL     1       7.126  32.691  60.755  1.00  0.00     0.034 C 
HETATM   12  C   UNL     1       8.514  32.391  60.190  1.00  0.00     0.035 C 
HETATM   13  C   UNL     1       9.017  30.988  60.540  1.00  0.00     0.186 C 
HETATM   14  C   UNL     1       8.947  30.725  62.049  1.00  0.00     0.035 C 
HETATM   15  C   UNL     1       7.567  31.002  62.645  1.00  0.00     0.034 C 
BRANCH  13  16
HETATM   16  N   UNL     1       8.212  29.953  59.829  1.00  0.00    -0.066 N 
HETATM   17  H   UNL     1       8.468  29.004  60.158  1.00  0.00     0.278 HD
HETATM   18  H   UNL     1       7.207  30.006  60.044  1.00  0.00     0.278 HD
BRANCH  16  19
HETATM   19  C   UNL     1       8.385  29.871  58.340  1.00  0.00     0.292 C 
BRANCH  19  20
HETATM   20  C   UNL     1       7.603  28.712  57.813  1.00  0.00     0.067 A 
HETATM   21  N   UNL     1       8.262  27.484  57.727  1.00  0.00    -0.256 NA
HETATM   22  C   UNL     1       7.438  26.583  57.227  1.00  0.00     0.166 A 
HETATM   23  S   UNL     1       5.866  27.139  56.829  1.00  0.00    -0.092 SA
HETATM   24  C   UNL     1       6.298  28.711  57.363  1.00  0.00     0.080 A 
ENDBRANCH  19  20
ENDBRANCH  16  19
ENDBRANCH  13  16
ENDBRANCH   9  10
ENDBRANCH   7   9
TORSDOF 5
ENDMDL
MODEL 2
REMARK VINA RESULT:      -8.0      4.921     11.045
REMARK  5 active torsions:
REMARK  status: ('A' for Active; 'I' for Inactive)
REMARK    1  A    between atoms: C_7  and  O_8 
REMARK    2  A    between atoms: O_8  and  C_9 
REMARK    3  A    between atoms: C_12  and  N_13 
REMARK    4  A    between atoms: N_13  and  C_16 
REMARK    5  A    between atoms: C_16  and  C_17 
ROOT
HETATM    1  C   UNL     1       7.318  23.104  54.333  1.00  0.00     0.028 A 
HETATM    2  C   UNL     1       8.033  21.994  54.775  1.00  0.00     0.062 A 
HETATM    3  C   UNL     1       8.311  20.891  53.913  1.00  0.00     0.101 C 
HETATM    4  N   UNL     1       8.549  19.984  53.231  1.00  0.00    -0.191 NA
HETATM    5  C   UNL     1       8.475  21.985  56.094  1.00  0.00     0.142 A 
HETATM    6  N   UNL     1       8.258  22.988  56.986  1.00  0.00    -0.236 NA
HETATM    7  C   UNL     1       7.555  24.047  56.522  1.00  0.00     0.164 A 
HETATM    8  C   UNL     1       7.076  24.148  55.221  1.00  0.00     0.059 A 
ENDROOT
BRANCH   7   9
HETATM    9  O   UNL     1       7.270  25.116  57.336  1.00  0.00    -0.329 OA
BRANCH   9  10
HETATM   10  C   UNL     1       7.209  26.433  56.793  1.00  0.00     0.130 C 
HETATM   11  C   UNL     1       8.381  27.329  57.215  1.00  0.00     0.034 C 
HETATM   12  C   UNL     1       8.317  28.692  56.527  1.00  0.00     0.035 C 
HETATM   13  C   UNL     1       6.960  29.385  56.688  1.00  0.00     0.186 C 
HETATM   14  C   UNL     1       5.807  28.472  56.253  1.00  0.00     0.035 C 
HETATM   15  C   UNL     1       5.834  27.103  56.933  1.00  0.00     0.034 C 
BRANCH  13  16
HETATM   16  N   UNL     1       6.748  29.792  58.107  1.00  0.00    -0.066 N 
HETATM   17  H   UNL     1       5.738  29.774  58.343  1.00  0.00     0.278 HD
HETATM   18  H   UNL     1       7.153  29.130  58.782  1.00  0.00     0.278 HD
BRANCH  16  19
HETATM   19  C   UNL     1       7.174  31.183  58.478  1.00  0.00     0.292 C 
BRANCH  19  20
HETATM   20  C   UNL     1       7.746  31.175  59.859  1.00  0.00     0.067 A 
HETATM   21  N   UNL     1       8.794  30.287  60.109  1.00  0.00    -0.256 NA
HETATM   22  C   UNL     1       9.163  30.395  61.371  1.00  0.00     0.166 A 
HETATM   23  S   UNL     1       8.293  31.531  62.316  1.00  0.00    -0.092 SA
HETATM   24  C   UNL     1       7.341  31.926  60.944  1.00  0.00     0.080 A 
ENDBRANCH  19  20
ENDBRANCH  16  19
ENDBRANCH  13  16
ENDBRANCH   9  10
ENDBRANCH   7   9
TORSDOF 5
ENDMDL
MODEL 3
REMARK VINA RESULT:      -7.7      4.030      9.241
REMARK  5 active torsions:
REMARK  status: ('A' for Active; 'I' for Inactive)
REMARK    1  A    between atoms: C_7  and  O_8 
REMARK    2  A    between atoms: O_8  and  C_9 
REMARK    3  A    between atoms: C_12  and  N_13 
REMARK    4  A    between atoms: N_13  and  C_16 
REMARK    5  A    between atoms: C_16  and  C_17 
ROOT
HETATM    1  C   UNL     1       9.495  30.768  60.825  1.00  0.00     0.028 A 
HETATM    2  C   UNL     1       9.154  31.323  59.595  1.00  0.00     0.062 A 
HETATM    3  C   UNL     1      10.043  31.270  58.478  1.00  0.00     0.101 C 
HETATM    4  N   UNL     1      10.748  31.240  57.559  1.00  0.00    -0.191 NA
HETATM    5  C   UNL     1       7.912  31.937  59.477  1.00  0.00     0.142 A 
HETATM    6  N   UNL     1       7.002  32.034  60.483  1.00  0.00    -0.236 NA
HETATM    7  C   UNL     1       7.371  31.488  61.665  1.00  0.00     0.164 A 
HETATM    8  C   UNL     1       8.587  30.852  61.877  1.00  0.00     0.059 A 
ENDROOT
BRANCH   7   9
HETATM    9  O   UNL     1       6.534  31.533  62.754  1.00  0.00    -0.329 OA
BRANCH   9  10
HETATM   10  C   UNL     1       6.329  32.761  63.448  1.00  0.00     0.130 C 
HETATM   11  C   UNL     1       7.324  32.995  64.593  1.00  0.00     0.034 C 
HETATM   12  C   UNL     1       7.120  34.366  65.237  1.00  0.00     0.035 C 
HETATM   13  C   UNL     1       5.670  34.625  65.656  1.00  0.00     0.186 C 
HETATM   14  C   UNL     1       4.698  34.391  64.494  1.00  0.00     0.035 C 
HETATM   15  C   UNL     1       4.866  33.023  63.835  1.00  0.00     0.034 C 
BRANCH  13  16
HETATM   16  N   UNL     1       5.290  33.739  66.793  1.00  0.00    -0.066 N 
HETATM   17  H   UNL     1       4.449  33.181  66.554  1.00  0.00     0.278 HD
HETATM   18  H   UNL     1       5.994  33.015  66.994  1.00  0.00     0.278 HD
BRANCH  16  19
HETATM   19  C   UNL     1       4.913  34.417  68.079  1.00  0.00     0.292 C 
BRANCH  19  20
HETATM   20  C   UNL     1       6.031  34.277  69.060  1.00  0.00     0.067 A 
HETATM   21  N   UNL     1       5.838  33.398  70.126  1.00  0.00    -0.256 NA
HETATM   22  C   UNL     1       6.906  33.412  70.900  1.00  0.00     0.166 A 
HETATM   23  S   UNL     1       8.174  34.460  70.416  1.00  0.00    -0.092 SA
HETATM   24  C   UNL     1       7.240  34.945  69.060  1.00  0.00     0.080 A 
ENDBRANCH  19  20
ENDBRANCH  16  19
ENDBRANCH  13  16
ENDBRANCH   9  10
ENDBRANCH   7   9
TORSDOF 5
ENDMDL
MODEL 4
REMARK VINA RESULT:      -7.7      8.021     11.556
REMARK  5 active torsions:
REMARK  status: ('A' for Active; 'I' for Inactive)
REMARK    1  A    between atoms: C_7  and  O_8 
REMARK    2  A    between atoms: O_8  and  C_9 
REMARK    3  A    between atoms: C_12  and  N_13 
REMARK    4  A    between atoms: N_13  and  C_16 
REMARK    5  A    between atoms: C_16  and  C_17 
ROOT
HETATM    1  C   UNL     1       8.373  21.353  56.024  1.00  0.00     0.028 A 
HETATM    2  C   UNL     1       8.479  21.692  54.678  1.00  0.00     0.062 A 
HETATM    3  C   UNL     1       8.495  20.696  53.654  1.00  0.00     0.101 C 
HETATM    4  N   UNL     1       8.510  19.906  52.807  1.00  0.00    -0.191 NA
HETATM    5  C   UNL     1       8.569  23.040  54.349  1.00  0.00     0.142 A 
HETATM    6  N   UNL     1       8.562  24.056  55.254  1.00  0.00    -0.236 NA
HETATM    7  C   UNL     1       8.463  23.687  56.552  1.00  0.00     0.164 A 
HETATM    8  C   UNL     1       8.364  22.368  56.977  1.00  0.00     0.059 A 
ENDROOT
BRANCH   7   9
HETATM    9  O   UNL     1       8.452  24.628  57.553  1.00  0.00    -0.329 OA
BRANCH   9  10
HETATM   10  C   UNL     1       7.418  25.608  57.603  1.00  0.00     0.130 C 
HETATM   11  C   UNL     1       6.149  25.204  56.840  1.00  0.00     0.034 C 
HETATM   12  C   UNL     1       5.043  26.245  57.009  1.00  0.00     0.035 C 
HETATM   13  C   UNL     1       5.499  27.669  56.679  1.00  0.00     0.186 C 
HETATM   14  C   UNL     1       6.763  28.049  57.458  1.00  0.00     0.035 C 
HETATM   15  C   UNL     1       7.896  27.036  57.300  1.00  0.00     0.034 C 
BRANCH  13  16
HETATM   16  N   UNL     1       5.770  27.804  55.218  1.00  0.00    -0.066 N 
HETATM   17  H   UNL     1       6.314  28.666  55.027  1.00  0.00     0.278 HD
HETATM   18  H   UNL     1       6.382  27.062  54.851  1.00  0.00     0.278 HD
BRANCH  16  19
HETATM   19  C   UNL     1       4.573  27.933  54.321  1.00  0.00     0.292 C 
BRANCH  19  20
HETATM   20  C   UNL     1       4.787  27.116  53.088  1.00  0.00     0.067 A 
HETATM   21  N   UNL     1       5.051  25.757  53.262  1.00  0.00    -0.256 NA
HETATM   22  C   UNL     1       5.233  25.195  52.082  1.00  0.00     0.166 A 
HETATM   23  S   UNL     1       5.111  26.236  50.725  1.00  0.00    -0.092 SA
HETATM   24  C   UNL     1       4.787  27.552  51.777  1.00  0.00     0.080 A 
ENDBRANCH  19  20
ENDBRANCH  16  19
ENDBRANCH  13  16
ENDBRANCH   9  10
ENDBRANCH   7   9
TORSDOF 5
ENDMDL
MODEL 5
REMARK VINA RESULT:      -7.5      2.700      4.361
REMARK  5 active torsions:
REMARK  status: ('A' for Active; 'I' for Inactive)
REMARK    1  A    between atoms: C_7  and  O_8 
REMARK    2  A    between atoms: O_8  and  C_9 
REMARK    3  A    between atoms: C_12  and  N_13 
REMARK    4  A    between atoms: N_13  and  C_16 
REMARK    5  A    between atoms: C_16  and  C_17 
ROOT
HETATM    1  C   UNL     1       7.980  32.194  62.784  1.00  0.00     0.028 A 
HETATM    2  C   UNL     1       6.660  32.597  62.608  1.00  0.00     0.062 A 
HETATM    3  C   UNL     1       5.764  32.729  63.712  1.00  0.00     0.101 C 
HETATM    4  N   UNL     1       5.020  32.843  64.593  1.00  0.00    -0.191 NA
HETATM    5  C   UNL     1       6.228  32.872  61.315  1.00  0.00     0.142 A 
HETATM    6  N   UNL     1       7.007  32.775  60.205  1.00  0.00    -0.236 NA
HETATM    7  C   UNL     1       8.283  32.376  60.415  1.00  0.00     0.164 A 
HETATM    8  C   UNL     1       8.806  32.082  61.668  1.00  0.00     0.059 A 
ENDROOT
BRANCH   7   9
HETATM    9  O   UNL     1       9.160  32.236  59.367  1.00  0.00    -0.329 OA
BRANCH   9  10
HETATM   10  C   UNL     1       9.361  30.958  58.768  1.00  0.00     0.130 C 
HETATM   11  C   UNL     1      10.280  30.991  57.539  1.00  0.00     0.034 C 
HETATM   12  C   UNL     1      10.540  29.585  56.999  1.00  0.00     0.035 C 
HETATM   13  C   UNL     1       9.255  28.789  56.751  1.00  0.00     0.186 C 
HETATM   14  C   UNL     1       8.359  28.765  57.995  1.00  0.00     0.035 C 
HETATM   15  C   UNL     1       8.068  30.158  58.554  1.00  0.00     0.034 C 
BRANCH  13  16
HETATM   16  N   UNL     1       8.490  29.374  55.613  1.00  0.00    -0.066 N 
HETATM   17  H   UNL     1       8.452  30.407  55.693  1.00  0.00     0.278 HD
HETATM   18  H   UNL     1       8.950  29.233  54.702  1.00  0.00     0.278 HD
BRANCH  16  19
HETATM   19  C   UNL     1       7.048  28.974  55.494  1.00  0.00     0.292 C 
BRANCH  19  20
HETATM   20  C   UNL     1       6.921  27.865  54.500  1.00  0.00     0.067 A 
HETATM   21  N   UNL     1       7.415  26.614  54.874  1.00  0.00    -0.256 NA
HETATM   22  C   UNL     1       7.242  25.764  53.880  1.00  0.00     0.166 A 
HETATM   23  S   UNL     1       6.504  26.395  52.468  1.00  0.00    -0.092 SA
HETATM   24  C   UNL     1       6.396  27.932  53.225  1.00  0.00     0.080 A 
ENDBRANCH  19  20
ENDBRANCH  16  19
ENDBRANCH  13  16
ENDBRANCH   9  10
ENDBRANCH   7   9
TORSDOF 5
ENDMDL
MODEL 6
REMARK VINA RESULT:      -7.4      4.192     11.017
REMARK  5 active torsions:
REMARK  status: ('A' for Active; 'I' for Inactive)
REMARK    1  A    between atoms: C_7  and  O_8 
REMARK    2  A    between atoms: O_8  and  C_9 
REMARK    3  A    between atoms: C_12  and  N_13 
REMARK    4  A    between atoms: N_13  and  C_16 
REMARK    5  A    between atoms: C_16  and  C_17 
ROOT
HETATM    1  C   UNL     1       8.133  22.668  55.630  1.00  0.00     0.028 A 
HETATM    2  C   UNL     1       7.722  22.536  54.307  1.00  0.00     0.062 A 
HETATM    3  C   UNL     1       8.174  21.458  53.486  1.00  0.00     0.101 C 
HETATM    4  N   UNL     1       8.528  20.592  52.802  1.00  0.00    -0.191 NA
HETATM    5  C   UNL     1       6.848  23.490  53.796  1.00  0.00     0.142 A 
HETATM    6  N   UNL     1       6.365  24.548  54.500  1.00  0.00    -0.236 NA
HETATM    7  C   UNL     1       6.792  24.646  55.780  1.00  0.00     0.164 A 
HETATM    8  C   UNL     1       7.660  23.742  56.379  1.00  0.00     0.059 A 
ENDROOT
BRANCH   7   9
HETATM    9  O   UNL     1       6.374  25.679  56.585  1.00  0.00    -0.329 OA
BRANCH   9  10
HETATM   10  C   UNL     1       6.967  26.970  56.459  1.00  0.00     0.130 C 
HETATM   11  C   UNL     1       8.251  27.142  57.282  1.00  0.00     0.034 C 
HETATM   12  C   UNL     1       8.894  28.505  57.032  1.00  0.00     0.035 C 
HETATM   13  C   UNL     1       7.920  29.673  57.211  1.00  0.00     0.186 C 
HETATM   14  C   UNL     1       6.650  29.480  56.374  1.00  0.00     0.035 C 
HETATM   15  C   UNL     1       5.973  28.130  56.610  1.00  0.00     0.034 C 
BRANCH  13  16
HETATM   16  N   UNL     1       7.538  29.818  58.645  1.00  0.00    -0.066 N 
HETATM   17  H   UNL     1       6.702  30.425  58.740  1.00  0.00     0.278 HD
HETATM   18  H   UNL     1       7.228  28.934  59.072  1.00  0.00     0.278 HD
BRANCH  16  19
HETATM   19  C   UNL     1       8.548  30.464  59.549  1.00  0.00     0.292 C 
BRANCH  19  20
HETATM   20  C   UNL     1       7.842  31.305  60.563  1.00  0.00     0.067 A 
HETATM   21  N   UNL     1       8.075  31.012  61.908  1.00  0.00    -0.256 NA
HETATM   22  C   UNL     1       7.363  31.830  62.659  1.00  0.00     0.166 A 
HETATM   23  S   UNL     1       6.388  32.966  61.823  1.00  0.00    -0.092 SA
HETATM   24  C   UNL     1       6.949  32.332  60.331  1.00  0.00     0.080 A 
ENDBRANCH  19  20
ENDBRANCH  16  19
ENDBRANCH  13  16
ENDBRANCH   9  10
ENDBRANCH   7   9
TORSDOF 5
ENDMDL
MODEL 7
REMARK VINA RESULT:      -7.3      5.816     11.375
REMARK  5 active torsions:
REMARK  status: ('A' for Active; 'I' for Inactive)
REMARK    1  A    between atoms: C_7  and  O_8 
REMARK    2  A    between atoms: O_8  and  C_9 
REMARK    3  A    between atoms: C_12  and  N_13 
REMARK    4  A    between atoms: N_13  and  C_16 
REMARK    5  A    between atoms: C_16  and  C_17 
ROOT
HETATM    1  C   UNL     1       8.942  22.471  55.415  1.00  0.00     0.028 A 
HETATM    2  C   UNL     1       8.256  22.101  54.262  1.00  0.00     0.062 A 
HETATM    3  C   UNL     1       8.519  20.864  53.599  1.00  0.00     0.101 C 
HETATM    4  N   UNL     1       8.715  19.865  53.044  1.00  0.00    -0.191 NA
HETATM    5  C   UNL     1       7.296  22.975  53.765  1.00  0.00     0.142 A 
HETATM    6  N   UNL     1       6.977  24.172  54.328  1.00  0.00    -0.236 NA
HETATM    7  C   UNL     1       7.669  24.499  55.444  1.00  0.00     0.164 A 
HETATM    8  C   UNL     1       8.643  23.691  56.016  1.00  0.00     0.059 A 
ENDROOT
BRANCH   7   9
HETATM    9  O   UNL     1       7.437  25.687  56.094  1.00  0.00    -0.329 OA
BRANCH   9  10
HETATM   10  C   UNL     1       6.499  26.622  55.564  1.00  0.00     0.130 C 
HETATM   11  C   UNL     1       7.107  27.592  54.542  1.00  0.00     0.034 C 
HETATM   12  C   UNL     1       6.041  28.503  53.936  1.00  0.00     0.035 C 
HETATM   13  C   UNL     1       5.189  29.217  54.989  1.00  0.00     0.186 C 
HETATM   14  C   UNL     1       4.588  28.226  55.993  1.00  0.00     0.035 C 
HETATM   15  C   UNL     1       5.631  27.307  56.629  1.00  0.00     0.034 C 
BRANCH  13  16
HETATM   16  N   UNL     1       6.007  30.221  55.728  1.00  0.00    -0.066 N 
HETATM   17  H   UNL     1       6.820  29.765  56.182  1.00  0.00     0.278 HD
HETATM   18  H   UNL     1       6.450  30.915  55.110  1.00  0.00     0.278 HD
BRANCH  16  19
HETATM   19  C   UNL     1       5.330  30.941  56.858  1.00  0.00     0.292 C 
BRANCH  19  20
HETATM   20  C   UNL     1       6.291  31.104  57.991  1.00  0.00     0.067 A 
HETATM   21  N   UNL     1       7.240  30.096  58.171  1.00  0.00    -0.256 NA
HETATM   22  C   UNL     1       7.989  30.386  59.218  1.00  0.00     0.166 A 
HETATM   23  S   UNL     1       7.606  31.843  60.037  1.00  0.00    -0.092 SA
HETATM   24  C   UNL     1       6.339  32.128  58.916  1.00  0.00     0.080 A 
ENDBRANCH  19  20
ENDBRANCH  16  19
ENDBRANCH  13  16
ENDBRANCH   9  10
ENDBRANCH   7   9
TORSDOF 5
ENDMDL
MODEL 8
REMARK VINA RESULT:      -7.3      6.483      9.164
REMARK  5 active torsions:
REMARK  status: ('A' for Active; 'I' for Inactive)
REMARK    1  A    between atoms: C_7  and  O_8 
REMARK    2  A    between atoms: O_8  and  C_9 
REMARK    3  A    between atoms: C_12  and  N_13 
REMARK    4  A    between atoms: N_13  and  C_16 
REMARK    5  A    between atoms: C_16  and  C_17 
ROOT
HETATM    1  C   UNL     1       9.208  28.817  57.416  1.00  0.00     0.028 A 
HETATM    2  C   UNL     1       8.699  30.042  57.836  1.00  0.00     0.062 A 
HETATM    3  C   UNL     1       9.557  31.119  58.214  1.00  0.00     0.101 C 
HETATM    4  N   UNL     1      10.234  32.007  58.526  1.00  0.00    -0.191 NA
HETATM    5  C   UNL     1       7.318  30.195  57.879  1.00  0.00     0.142 A 
HETATM    6  N   UNL     1       6.424  29.228  57.538  1.00  0.00    -0.236 NA
HETATM    7  C   UNL     1       6.956  28.050  57.140  1.00  0.00     0.164 A 
HETATM    8  C   UNL     1       8.321  27.804  57.061  1.00  0.00     0.059 A 
ENDROOT
BRANCH   7   9
HETATM    9  O   UNL     1       6.149  26.999  56.778  1.00  0.00    -0.329 OA
BRANCH   9  10
HETATM   10  C   UNL     1       6.055  26.607  55.410  1.00  0.00     0.130 C 
HETATM   11  C   UNL     1       5.658  25.137  55.215  1.00  0.00     0.034 C 
HETATM   12  C   UNL     1       5.476  24.800  53.736  1.00  0.00     0.035 C 
HETATM   13  C   UNL     1       6.676  25.204  52.874  1.00  0.00     0.186 C 
HETATM   14  C   UNL     1       7.047  26.678  53.082  1.00  0.00     0.035 C 
HETATM   15  C   UNL     1       7.250  27.046  54.551  1.00  0.00     0.034 C 
BRANCH  13  16
HETATM   16  N   UNL     1       7.859  24.356  53.197  1.00  0.00    -0.066 N 
HETATM   17  H   UNL     1       8.696  24.688  52.682  1.00  0.00     0.278 HD
HETATM   18  H   UNL     1       8.152  24.429  54.181  1.00  0.00     0.278 HD
BRANCH  16  19
HETATM   19  C   UNL     1       7.767  22.904  52.825  1.00  0.00     0.292 C 
BRANCH  19  20
HETATM   20  C   UNL     1       8.096  22.065  54.018  1.00  0.00     0.067 A 
HETATM   21  N   UNL     1       8.292  20.700  53.802  1.00  0.00    -0.256 NA
HETATM   22  C   UNL     1       8.551  20.111  54.955  1.00  0.00     0.166 A 
HETATM   23  S   UNL     1       8.566  21.129  56.334  1.00  0.00    -0.092 SA
HETATM   24  C   UNL     1       8.200  22.473  55.333  1.00  0.00     0.080 A 
ENDBRANCH  19  20
ENDBRANCH  16  19
ENDBRANCH  13  16
ENDBRANCH   9  10
ENDBRANCH   7   9
TORSDOF 5
ENDMDL
MODEL 9
REMARK VINA RESULT:      -7.3      4.781     11.492
REMARK  5 active torsions:
REMARK  status: ('A' for Active; 'I' for Inactive)
REMARK    1  A    between atoms: C_7  and  O_8 
REMARK    2  A    between atoms: O_8  and  C_9 
REMARK    3  A    between atoms: C_12  and  N_13 
REMARK    4  A    between atoms: N_13  and  C_16 
REMARK    5  A    between atoms: C_16  and  C_17 
ROOT
HETATM    1  C   UNL     1       7.632  22.471  55.163  1.00  0.00     0.028 A 
HETATM    2  C   UNL     1       7.723  22.173  53.806  1.00  0.00     0.062 A 
HETATM    3  C   UNL     1       8.283  20.943  53.346  1.00  0.00     0.101 C 
HETATM    4  N   UNL     1       8.733  19.951  52.950  1.00  0.00    -0.191 NA
HETATM    5  C   UNL     1       7.250  23.114  52.898  1.00  0.00     0.142 A 
HETATM    6  N   UNL     1       6.702  24.310  53.242  1.00  0.00    -0.236 NA
HETATM    7  C   UNL     1       6.635  24.566  54.569  1.00  0.00     0.164 A 
HETATM    8  C   UNL     1       7.078  23.688  55.551  1.00  0.00     0.059 A 
ENDROOT
BRANCH   7   9
HETATM    9  O   UNL     1       6.106  25.746  55.034  1.00  0.00    -0.329 OA
BRANCH   9  10
HETATM   10  C   UNL     1       6.951  26.716  55.648  1.00  0.00     0.130 C 
HETATM   11  C   UNL     1       6.994  26.615  57.179  1.00  0.00     0.034 C 
HETATM   12  C   UNL     1       7.987  27.611  57.776  1.00  0.00     0.035 C 
HETATM   13  C   UNL     1       7.769  29.046  57.287  1.00  0.00     0.186 C 
HETATM   14  C   UNL     1       7.738  29.120  55.756  1.00  0.00     0.035 C 
HETATM   15  C   UNL     1       6.744  28.145  55.127  1.00  0.00     0.034 C 
BRANCH  13  16
HETATM   16  N   UNL     1       6.491  29.591  57.826  1.00  0.00    -0.066 N 
HETATM   17  H   UNL     1       5.683  29.226  57.287  1.00  0.00     0.278 HD
HETATM   18  H   UNL     1       6.287  29.273  58.784  1.00  0.00     0.278 HD
BRANCH  16  19
HETATM   19  C   UNL     1       6.314  31.081  57.763  1.00  0.00     0.292 C 
BRANCH  19  20
HETATM   20  C   UNL     1       6.617  31.673  59.102  1.00  0.00     0.067 A 
HETATM   21  N   UNL     1       5.560  32.279  59.784  1.00  0.00    -0.256 NA
HETATM   22  C   UNL     1       6.004  32.763  60.929  1.00  0.00     0.166 A 
HETATM   23  S   UNL     1       7.673  32.537  61.247  1.00  0.00    -0.092 SA
HETATM   24  C   UNL     1       7.838  31.725  59.744  1.00  0.00     0.080 A 
ENDBRANCH  19  20
ENDBRANCH  16  19
ENDBRANCH  13  16
ENDBRANCH   9  10
ENDBRANCH   7   9
TORSDOF 5
ENDMDL
MODEL 10
REMARK VINA RESULT:      -7.1      3.383      5.884
REMARK  5 active torsions:
REMARK  status: ('A' for Active; 'I' for Inactive)
REMARK    1  A    between atoms: C_7  and  O_8 
REMARK    2  A    between atoms: O_8  and  C_9 
REMARK    3  A    between atoms: C_12  and  N_13 
REMARK    4  A    between atoms: N_13  and  C_16 
REMARK    5  A    between atoms: C_16  and  C_17 
ROOT
HETATM    1  C   UNL     1       7.267  32.454  61.037  1.00  0.00     0.028 A 
HETATM    2  C   UNL     1       7.964  31.978  62.143  1.00  0.00     0.062 A 
HETATM    3  C   UNL     1       7.787  32.545  63.441  1.00  0.00     0.101 C 
HETATM    4  N   UNL     1       7.658  32.989  64.504  1.00  0.00    -0.191 NA
HETATM    5  C   UNL     1       8.849  30.922  61.952  1.00  0.00     0.142 A 
HETATM    6  N   UNL     1       9.083  30.319  60.756  1.00  0.00    -0.236 NA
HETATM    7  C   UNL     1       8.392  30.814  59.703  1.00  0.00     0.164 A 
HETATM    8  C   UNL     1       7.485  31.862  59.796  1.00  0.00     0.059 A 
ENDROOT
BRANCH   7   9
HETATM    9  O   UNL     1       8.552  30.287  58.444  1.00  0.00    -0.329 OA
BRANCH   9  10
HETATM   10  C   UNL     1       7.859  29.098  58.072  1.00  0.00     0.130 C 
HETATM   11  C   UNL     1       8.710  28.120  57.250  1.00  0.00     0.034 C 
HETATM   12  C   UNL     1       7.951  26.825  56.964  1.00  0.00     0.035 C 
HETATM   13  C   UNL     1       6.568  27.060  56.350  1.00  0.00     0.186 C 
HETATM   14  C   UNL     1       5.736  28.034  57.193  1.00  0.00     0.035 C 
HETATM   15  C   UNL     1       6.462  29.347  57.486  1.00  0.00     0.034 C 
BRANCH  13  16
HETATM   16  N   UNL     1       6.698  27.603  54.967  1.00  0.00    -0.066 N 
HETATM   17  H   UNL     1       5.780  27.943  54.622  1.00  0.00     0.278 HD
HETATM   18  H   UNL     1       7.286  28.446  54.918  1.00  0.00     0.278 HD
BRANCH  16  19
HETATM   19  C   UNL     1       7.142  26.640  53.904  1.00  0.00     0.292 C 
BRANCH  19  20
HETATM   20  C   UNL     1       6.299  26.825  52.684  1.00  0.00     0.067 A 
HETATM   21  N   UNL     1       6.048  25.694  51.905  1.00  0.00    -0.256 NA
HETATM   22  C   UNL     1       5.313  26.037  50.865  1.00  0.00     0.166 A 
HETATM   23  S   UNL     1       4.894  27.696  50.753  1.00  0.00    -0.092 SA
HETATM   24  C   UNL     1       5.755  28.000  52.206  1.00  0.00     0.080 A 
ENDBRANCH  19  20
ENDBRANCH  16  19
ENDBRANCH  13  16
ENDBRANCH   9  10
ENDBRANCH   7   9
TORSDOF 5
ENDMDL
