MODEL 1
REMARK VINA RESULT:     -10.2      0.000      0.000
REMARK  6 active torsions:
REMARK  status: ('A' for Active; 'I' for Inactive)
REMARK    1  A    between atoms: C_2  and  C_3 
REMARK    2  A    between atoms: C_2  and  C_9 
REMARK    3  A    between atoms: C_9  and  C_10 
REMARK    4  A    between atoms: C_10  and  C_11 
REMARK       I    between atoms: C_11  and  N_12 
REMARK    5  A    between atoms: N_12  and  C_13 
REMARK    6  A    between atoms: C_20  and  C_21 
REMARK       I    between atoms: C_21  and  N_22 
ROOT
HETATM    1  C   UNL     1       8.018  27.976  57.608  1.00  0.00     0.035 A 
HETATM    2  C   UNL     1       7.598  29.060  58.392  1.00  0.00     0.046 A 
HETATM    3  C   UNL     1       8.431  30.188  58.516  1.00  0.00     0.030 A 
HETATM    4  C   UNL     1       9.616  30.229  57.793  1.00  0.00     0.063 A 
HETATM    5  N   UNL     1      10.191  31.427  58.112  1.00  0.00    -0.277 N 
HETATM    6  H   UNL     1      11.066  31.801  57.763  1.00  0.00     0.189 HD
HETATM    7  N   UNL     1       9.502  32.154  59.009  1.00  0.00    -0.168 NA
HETATM    8  C   UNL     1       8.410  31.401  59.265  1.00  0.00     0.156 A 
HETATM    9  C   UNL     1      10.024  29.198  56.944  1.00  0.00     0.034 A 
HETATM   10  C   UNL     1       9.201  28.065  56.871  1.00  0.00     0.032 A 
ENDROOT
BRANCH   1  11
HETATM   11  N   UNL     1       7.184  26.850  57.596  1.00  0.00    -0.327 N 
HETATM   12  C   UNL     1       6.525  26.215  56.585  1.00  0.00     0.222 C 
HETATM   13  O   UNL     1       5.726  25.324  56.891  1.00  0.00    -0.273 OA
HETATM   14  H   UNL     1       7.105  26.333  58.466  1.00  0.00     0.169 HD
BRANCH  12  15
HETATM   15  C   UNL     1       6.804  26.512  55.123  1.00  0.00     0.104 C 
BRANCH  15  16
HETATM   16  C   UNL     1       7.782  25.575  54.397  1.00  0.00     0.023 C 
BRANCH  16  17
HETATM   17  C   UNL     1       7.193  24.531  53.394  1.00  0.00    -0.020 C 
HETATM   18  C   UNL     1       7.636  24.858  51.950  1.00  0.00     0.020 C 
HETATM   19  C   UNL     1       5.648  24.710  53.395  1.00  0.00     0.020 C 
BRANCH  17  20
HETATM   20  C   UNL     1       7.515  23.092  53.835  1.00  0.00    -0.050 A 
HETATM   21  C   UNL     1       7.860  22.082  52.923  1.00  0.00     0.008 A 
HETATM   22  C   UNL     1       8.132  20.777  53.349  1.00  0.00     0.001 A 
HETATM   23  C   UNL     1       8.069  20.454  54.701  1.00  0.00     0.000 A 
HETATM   24  C   UNL     1       7.740  21.436  55.627  1.00  0.00     0.001 A 
HETATM   25  C   UNL     1       7.469  22.739  55.199  1.00  0.00     0.008 A 
ENDBRANCH  17  20
ENDBRANCH  16  17
ENDBRANCH  15  16
ENDBRANCH  12  15
ENDBRANCH   1  11
BRANCH   8  26
HETATM   26  C   UNL     1       7.388  31.826  60.232  1.00  0.00     0.270 C 
HETATM   27  N   UNL     1       7.375  31.100  61.391  1.00  0.00    -0.365 N 
HETATM   28  H   UNL     1       8.030  30.334  61.492  1.00  0.00     0.159 HD
HETATM   29  H   UNL     1       6.682  31.295  62.097  1.00  0.00     0.159 HD
HETATM   30  O   UNL     1       6.592  32.740  60.041  1.00  0.00    -0.266 OA
ENDBRANCH   8  26
TORSDOF 6
ENDMDL
MODEL 2
REMARK VINA RESULT:      -9.6      2.542      3.740
REMARK  6 active torsions:
REMARK  status: ('A' for Active; 'I' for Inactive)
REMARK    1  A    between atoms: C_2  and  C_3 
REMARK    2  A    between atoms: C_2  and  C_9 
REMARK    3  A    between atoms: C_9  and  C_10 
REMARK    4  A    between atoms: C_10  and  C_11 
REMARK       I    between atoms: C_11  and  N_12 
REMARK    5  A    between atoms: N_12  and  C_13 
REMARK    6  A    between atoms: C_20  and  C_21 
REMARK       I    between atoms: C_21  and  N_22 
ROOT
HETATM    1  C   UNL     1       5.834  28.072  54.833  1.00  0.00     0.035 A 
HETATM    2  C   UNL     1       7.170  28.435  55.050  1.00  0.00     0.046 A 
HETATM    3  C   UNL     1       7.609  28.708  56.360  1.00  0.00     0.030 A 
HETATM    4  C   UNL     1       6.722  28.535  57.414  1.00  0.00     0.063 A 
HETATM    5  N   UNL     1       7.427  28.867  58.537  1.00  0.00    -0.277 N 
HETATM    6  H   UNL     1       7.099  28.851  59.496  1.00  0.00     0.189 HD
HETATM    7  N   UNL     1       8.686  29.277  58.302  1.00  0.00    -0.168 NA
HETATM    8  C   UNL     1       8.812  29.182  56.960  1.00  0.00     0.156 A 
HETATM    9  C   UNL     1       5.406  28.101  57.236  1.00  0.00     0.034 A 
HETATM   10  C   UNL     1       4.978  27.878  55.919  1.00  0.00     0.032 A 
ENDROOT
BRANCH   1  11
HETATM   11  N   UNL     1       5.439  27.899  53.500  1.00  0.00    -0.327 N 
HETATM   12  C   UNL     1       5.336  26.788  52.716  1.00  0.00     0.222 C 
HETATM   13  O   UNL     1       5.106  26.952  51.514  1.00  0.00    -0.273 OA
HETATM   14  H   UNL     1       5.069  28.716  53.025  1.00  0.00     0.169 HD
BRANCH  12  15
HETATM   15  C   UNL     1       5.414  25.384  53.288  1.00  0.00     0.104 C 
BRANCH  15  16
HETATM   16  C   UNL     1       6.818  24.807  53.529  1.00  0.00     0.023 C 
BRANCH  16  17
HETATM   17  C   UNL     1       7.127  24.182  54.928  1.00  0.00    -0.020 C 
HETATM   18  C   UNL     1       5.920  24.360  55.878  1.00  0.00     0.020 C 
HETATM   19  C   UNL     1       8.271  25.020  55.566  1.00  0.00     0.020 C 
BRANCH  17  20
HETATM   20  C   UNL     1       7.607  22.727  54.794  1.00  0.00    -0.050 A 
HETATM   21  C   UNL     1       7.905  21.924  55.908  1.00  0.00     0.008 A 
HETATM   22  C   UNL     1       8.356  20.609  55.757  1.00  0.00     0.001 A 
HETATM   23  C   UNL     1       8.517  20.063  54.488  1.00  0.00     0.000 A 
HETATM   24  C   UNL     1       8.221  20.831  53.368  1.00  0.00     0.001 A 
HETATM   25  C   UNL     1       7.770  22.145  53.521  1.00  0.00     0.008 A 
ENDBRANCH  17  20
ENDBRANCH  16  17
ENDBRANCH  15  16
ENDBRANCH  12  15
ENDBRANCH   1  11
BRANCH   8  26
HETATM   26  C   UNL     1      10.053  29.567  56.273  1.00  0.00     0.270 C 
HETATM   27  N   UNL     1      11.143  29.662  57.093  1.00  0.00    -0.365 N 
HETATM   28  H   UNL     1      11.022  29.486  58.084  1.00  0.00     0.159 HD
HETATM   29  H   UNL     1      12.029  29.958  56.716  1.00  0.00     0.159 HD
HETATM   30  O   UNL     1      10.133  29.806  55.072  1.00  0.00    -0.266 OA
ENDBRANCH   8  26
TORSDOF 6
ENDMDL
MODEL 3
REMARK VINA RESULT:      -9.6      1.842      1.974
REMARK  6 active torsions:
REMARK  status: ('A' for Active; 'I' for Inactive)
REMARK    1  A    between atoms: C_2  and  C_3 
REMARK    2  A    between atoms: C_2  and  C_9 
REMARK    3  A    between atoms: C_9  and  C_10 
REMARK    4  A    between atoms: C_10  and  C_11 
REMARK       I    between atoms: C_11  and  N_12 
REMARK    5  A    between atoms: N_12  and  C_13 
REMARK    6  A    between atoms: C_20  and  C_21 
REMARK       I    between atoms: C_21  and  N_22 
ROOT
HETATM    1  C   UNL     1       7.350  29.165  55.696  1.00  0.00     0.035 A 
HETATM    2  C   UNL     1       6.744  30.162  56.471  1.00  0.00     0.046 A 
HETATM    3  C   UNL     1       7.223  30.415  57.772  1.00  0.00     0.030 A 
HETATM    4  C   UNL     1       8.336  29.718  58.222  1.00  0.00     0.063 A 
HETATM    5  N   UNL     1       8.558  30.176  59.491  1.00  0.00    -0.277 N 
HETATM    6  H   UNL     1       9.297  29.894  60.126  1.00  0.00     0.189 HD
HETATM    7  N   UNL     1       7.663  31.083  59.920  1.00  0.00    -0.168 NA
HETATM    8  C   UNL     1       6.833  31.242  58.865  1.00  0.00     0.156 A 
HETATM    9  C   UNL     1       9.008  28.773  57.444  1.00  0.00     0.034 A 
HETATM   10  C   UNL     1       8.487  28.506  56.169  1.00  0.00     0.032 A 
ENDROOT
BRANCH   1  11
HETATM   11  N   UNL     1       6.773  28.903  54.446  1.00  0.00    -0.327 N 
HETATM   12  C   UNL     1       6.318  27.752  53.874  1.00  0.00     0.222 C 
HETATM   13  O   UNL     1       5.994  27.791  52.683  1.00  0.00    -0.273 OA
HETATM   14  H   UNL     1       6.555  29.709  53.868  1.00  0.00     0.169 HD
BRANCH  12  15
HETATM   15  C   UNL     1       6.125  26.474  54.670  1.00  0.00     0.104 C 
BRANCH  15  16
HETATM   16  C   UNL     1       7.229  25.411  54.557  1.00  0.00     0.023 C 
BRANCH  16  17
HETATM   17  C   UNL     1       7.153  24.393  53.374  1.00  0.00    -0.020 C 
HETATM   18  C   UNL     1       7.985  24.897  52.172  1.00  0.00     0.020 C 
HETATM   19  C   UNL     1       5.681  24.380  52.870  1.00  0.00     0.020 C 
BRANCH  17  20
HETATM   20  C   UNL     1       7.520  22.972  53.836  1.00  0.00    -0.050 A 
HETATM   21  C   UNL     1       7.891  21.958  52.938  1.00  0.00     0.008 A 
HETATM   22  C   UNL     1       8.205  20.670  53.385  1.00  0.00     0.001 A 
HETATM   23  C   UNL     1       8.157  20.366  54.741  1.00  0.00     0.000 A 
HETATM   24  C   UNL     1       7.802  21.353  55.653  1.00  0.00     0.001 A 
HETATM   25  C   UNL     1       7.489  22.640  55.205  1.00  0.00     0.008 A 
ENDBRANCH  17  20
ENDBRANCH  16  17
ENDBRANCH  15  16
ENDBRANCH  12  15
ENDBRANCH   1  11
BRANCH   8  26
HETATM   26  C   UNL     1       5.675  32.145  58.923  1.00  0.00     0.270 C 
HETATM   27  N   UNL     1       4.641  31.684  59.690  1.00  0.00    -0.365 N 
HETATM   28  H   UNL     1       4.731  30.777  60.132  1.00  0.00     0.159 HD
HETATM   29  H   UNL     1       3.790  32.219  59.757  1.00  0.00     0.159 HD
HETATM   30  O   UNL     1       5.605  33.219  58.334  1.00  0.00    -0.266 OA
ENDBRANCH   8  26
TORSDOF 6
ENDMDL
MODEL 4
REMARK VINA RESULT:      -9.5      1.693      2.084
REMARK  6 active torsions:
REMARK  status: ('A' for Active; 'I' for Inactive)
REMARK    1  A    between atoms: C_2  and  C_3 
REMARK    2  A    between atoms: C_2  and  C_9 
REMARK    3  A    between atoms: C_9  and  C_10 
REMARK    4  A    between atoms: C_10  and  C_11 
REMARK       I    between atoms: C_11  and  N_12 
REMARK    5  A    between atoms: N_12  and  C_13 
REMARK    6  A    between atoms: C_20  and  C_21 
REMARK       I    between atoms: C_21  and  N_22 
ROOT
HETATM    1  C   UNL     1       7.306  27.919  57.776  1.00  0.00     0.035 A 
HETATM    2  C   UNL     1       7.958  28.996  58.393  1.00  0.00     0.046 A 
HETATM    3  C   UNL     1       7.344  30.264  58.401  1.00  0.00     0.030 A 
HETATM    4  C   UNL     1       6.071  30.394  57.863  1.00  0.00     0.063 A 
HETATM    5  N   UNL     1       5.748  31.714  58.019  1.00  0.00    -0.277 N 
HETATM    6  H   UNL     1       4.885  32.171  57.747  1.00  0.00     0.189 HD
HETATM    7  N   UNL     1       6.715  32.461  58.578  1.00  0.00    -0.168 NA
HETATM    8  C   UNL     1       7.708  31.576  58.821  1.00  0.00     0.156 A 
HETATM    9  C   UNL     1       5.365  29.323  57.310  1.00  0.00     0.034 A 
HETATM   10  C   UNL     1       6.014  28.081  57.273  1.00  0.00     0.032 A 
ENDROOT
BRANCH   1  11
HETATM   11  N   UNL     1       8.008  26.707  57.725  1.00  0.00    -0.327 N 
HETATM   12  C   UNL     1       8.163  25.784  56.734  1.00  0.00     0.222 C 
HETATM   13  O   UNL     1       8.717  24.719  57.022  1.00  0.00    -0.273 OA
HETATM   14  H   UNL     1       8.592  26.486  58.525  1.00  0.00     0.169 HD
BRANCH  12  15
HETATM   15  C   UNL     1       7.757  26.062  55.298  1.00  0.00     0.104 C 
BRANCH  15  16
HETATM   16  C   UNL     1       6.657  25.169  54.701  1.00  0.00     0.023 C 
BRANCH  16  17
HETATM   17  C   UNL     1       6.990  24.356  53.408  1.00  0.00    -0.020 C 
HETATM   18  C   UNL     1       7.984  25.138  52.519  1.00  0.00     0.020 C 
HETATM   19  C   UNL     1       5.683  24.264  52.571  1.00  0.00     0.020 C 
BRANCH  17  20
HETATM   20  C   UNL     1       7.449  22.928  53.751  1.00  0.00    -0.050 A 
HETATM   21  C   UNL     1       7.935  22.037  52.781  1.00  0.00     0.008 A 
HETATM   22  C   UNL     1       8.330  20.738  53.118  1.00  0.00     0.001 A 
HETATM   23  C   UNL     1       8.251  20.301  54.435  1.00  0.00     0.000 A 
HETATM   24  C   UNL     1       7.784  21.164  55.419  1.00  0.00     0.001 A 
HETATM   25  C   UNL     1       7.390  22.462  55.080  1.00  0.00     0.008 A 
ENDBRANCH  17  20
ENDBRANCH  16  17
ENDBRANCH  15  16
ENDBRANCH  12  15
ENDBRANCH   1  11
BRANCH   8  26
HETATM   26  C   UNL     1       8.985  31.993  59.416  1.00  0.00     0.270 C 
HETATM   27  N   UNL     1       9.007  31.956  60.783  1.00  0.00    -0.365 N 
HETATM   28  H   UNL     1       8.167  31.674  61.275  1.00  0.00     0.159 HD
HETATM   29  H   UNL     1       9.829  32.262  61.279  1.00  0.00     0.159 HD
HETATM   30  O   UNL     1       9.961  32.364  58.771  1.00  0.00    -0.266 OA
ENDBRANCH   8  26
TORSDOF 6
ENDMDL
MODEL 5
REMARK VINA RESULT:      -9.1      5.063      7.862
REMARK  6 active torsions:
REMARK  status: ('A' for Active; 'I' for Inactive)
REMARK    1  A    between atoms: C_2  and  C_3 
REMARK    2  A    between atoms: C_2  and  C_9 
REMARK    3  A    between atoms: C_9  and  C_10 
REMARK    4  A    between atoms: C_10  and  C_11 
REMARK       I    between atoms: C_11  and  N_12 
REMARK    5  A    between atoms: N_12  and  C_13 
REMARK    6  A    between atoms: C_20  and  C_21 
REMARK       I    between atoms: C_21  and  N_22 
ROOT
HETATM    1  C   UNL     1       5.243  28.837  52.162  1.00  0.00     0.035 A 
HETATM    2  C   UNL     1       5.290  28.349  50.849  1.00  0.00     0.046 A 
HETATM    3  C   UNL     1       4.093  28.209  50.119  1.00  0.00     0.030 A 
HETATM    4  C   UNL     1       2.904  28.634  50.696  1.00  0.00     0.063 A 
HETATM    5  N   UNL     1       1.939  28.378  49.761  1.00  0.00    -0.277 N 
HETATM    6  H   UNL     1       0.946  28.567  49.836  1.00  0.00     0.189 HD
HETATM    7  N   UNL     1       2.393  27.790  48.641  1.00  0.00    -0.168 NA
HETATM    8  C   UNL     1       3.724  27.682  48.848  1.00  0.00     0.156 A 
HETATM    9  C   UNL     1       2.836  29.195  51.973  1.00  0.00     0.034 A 
HETATM   10  C   UNL     1       4.033  29.283  52.698  1.00  0.00     0.032 A 
ENDROOT
BRANCH   1  11
HETATM   11  N   UNL     1       6.456  28.870  52.864  1.00  0.00    -0.327 N 
HETATM   12  C   UNL     1       7.068  27.955  53.669  1.00  0.00     0.222 C 
HETATM   13  O   UNL     1       8.074  28.317  54.288  1.00  0.00    -0.273 OA
HETATM   14  H   UNL     1       7.058  29.669  52.694  1.00  0.00     0.169 HD
BRANCH  12  15
HETATM   15  C   UNL     1       6.603  26.513  53.757  1.00  0.00     0.104 C 
BRANCH  15  16
HETATM   16  C   UNL     1       7.665  25.460  54.112  1.00  0.00     0.023 C 
BRANCH  16  17
HETATM   17  C   UNL     1       7.342  24.446  55.257  1.00  0.00    -0.020 C 
HETATM   18  C   UNL     1       5.924  24.700  55.820  1.00  0.00     0.020 C 
HETATM   19  C   UNL     1       8.307  24.756  56.436  1.00  0.00     0.020 C 
BRANCH  17  20
HETATM   20  C   UNL     1       7.582  22.997  54.801  1.00  0.00    -0.050 A 
HETATM   21  C   UNL     1       7.691  21.928  55.705  1.00  0.00     0.008 A 
HETATM   22  C   UNL     1       7.926  20.622  55.264  1.00  0.00     0.001 A 
HETATM   23  C   UNL     1       8.055  20.353  53.906  1.00  0.00     0.000 A 
HETATM   24  C   UNL     1       7.941  21.389  52.987  1.00  0.00     0.001 A 
HETATM   25  C   UNL     1       7.706  22.694  53.430  1.00  0.00     0.008 A 
ENDBRANCH  17  20
ENDBRANCH  16  17
ENDBRANCH  15  16
ENDBRANCH  12  15
ENDBRANCH   1  11
BRANCH   8  26
HETATM   26  C   UNL     1       4.611  27.057  47.857  1.00  0.00     0.270 C 
HETATM   27  N   UNL     1       5.700  27.813  47.522  1.00  0.00    -0.365 N 
HETATM   28  H   UNL     1       5.806  28.726  47.947  1.00  0.00     0.159 HD
HETATM   29  H   UNL     1       6.343  27.482  46.820  1.00  0.00     0.159 HD
HETATM   30  O   UNL     1       4.412  25.960  47.343  1.00  0.00    -0.266 OA
ENDBRANCH   8  26
TORSDOF 6
ENDMDL
MODEL 6
REMARK VINA RESULT:      -9.0      2.626      3.007
REMARK  6 active torsions:
REMARK  status: ('A' for Active; 'I' for Inactive)
REMARK    1  A    between atoms: C_2  and  C_3 
REMARK    2  A    between atoms: C_2  and  C_9 
REMARK    3  A    between atoms: C_9  and  C_10 
REMARK    4  A    between atoms: C_10  and  C_11 
REMARK       I    between atoms: C_11  and  N_12 
REMARK    5  A    between atoms: N_12  and  C_13 
REMARK    6  A    between atoms: C_20  and  C_21 
REMARK       I    between atoms: C_21  and  N_22 
ROOT
HETATM    1  C   UNL     1       4.603  28.654  56.460  1.00  0.00     0.035 A 
HETATM    2  C   UNL     1       5.067  29.590  57.394  1.00  0.00     0.046 A 
HETATM    3  C   UNL     1       5.049  30.960  57.068  1.00  0.00     0.030 A 
HETATM    4  C   UNL     1       4.497  31.353  55.857  1.00  0.00     0.063 A 
HETATM    5  N   UNL     1       4.617  32.715  55.831  1.00  0.00    -0.277 N 
HETATM    6  H   UNL     1       4.312  33.345  55.097  1.00  0.00     0.189 HD
HETATM    7  N   UNL     1       5.233  33.239  56.904  1.00  0.00    -0.168 NA
HETATM    8  C   UNL     1       5.503  32.165  57.679  1.00  0.00     0.156 A 
HETATM    9  C   UNL     1       3.957  30.450  54.939  1.00  0.00     0.034 A 
HETATM   10  C   UNL     1       4.027  29.087  55.264  1.00  0.00     0.032 A 
ENDROOT
BRANCH   1  11
HETATM   11  N   UNL     1       4.729  27.303  56.810  1.00  0.00    -0.327 N 
HETATM   12  C   UNL     1       5.403  26.269  56.229  1.00  0.00     0.222 C 
HETATM   13  O   UNL     1       5.209  25.134  56.675  1.00  0.00    -0.273 OA
HETATM   14  H   UNL     1       4.333  27.025  57.702  1.00  0.00     0.169 HD
BRANCH  12  15
HETATM   15  C   UNL     1       6.425  26.486  55.128  1.00  0.00     0.104 C 
BRANCH  15  16
HETATM   16  C   UNL     1       7.429  25.350  54.877  1.00  0.00     0.023 C 
BRANCH  16  17
HETATM   17  C   UNL     1       7.236  24.464  53.604  1.00  0.00    -0.020 C 
HETATM   18  C   UNL     1       8.011  25.061  52.407  1.00  0.00     0.020 C 
HETATM   19  C   UNL     1       5.736  24.555  53.201  1.00  0.00     0.020 C 
BRANCH  17  20
HETATM   20  C   UNL     1       7.572  22.991  53.893  1.00  0.00    -0.050 A 
HETATM   21  C   UNL     1       7.911  22.080  52.879  1.00  0.00     0.008 A 
HETATM   22  C   UNL     1       8.197  20.742  53.169  1.00  0.00     0.001 A 
HETATM   23  C   UNL     1       8.153  20.283  54.481  1.00  0.00     0.000 A 
HETATM   24  C   UNL     1       7.830  21.165  55.506  1.00  0.00     0.001 A 
HETATM   25  C   UNL     1       7.545  22.502  55.215  1.00  0.00     0.008 A 
ENDBRANCH  17  20
ENDBRANCH  16  17
ENDBRANCH  15  16
ENDBRANCH  12  15
ENDBRANCH   1  11
BRANCH   8  26
HETATM   26  C   UNL     1       6.210  32.297  58.961  1.00  0.00     0.270 C 
HETATM   27  N   UNL     1       5.386  32.430  60.045  1.00  0.00    -0.365 N 
HETATM   28  H   UNL     1       4.384  32.449  59.894  1.00  0.00     0.159 HD
HETATM   29  H   UNL     1       5.783  32.566  60.961  1.00  0.00     0.159 HD
HETATM   30  O   UNL     1       7.431  32.306  59.081  1.00  0.00    -0.266 OA
ENDBRANCH   8  26
TORSDOF 6
ENDMDL
MODEL 7
REMARK VINA RESULT:      -9.0      4.296      6.605
REMARK  6 active torsions:
REMARK  status: ('A' for Active; 'I' for Inactive)
REMARK    1  A    between atoms: C_2  and  C_3 
REMARK    2  A    between atoms: C_2  and  C_9 
REMARK    3  A    between atoms: C_9  and  C_10 
REMARK    4  A    between atoms: C_10  and  C_11 
REMARK       I    between atoms: C_11  and  N_12 
REMARK    5  A    between atoms: N_12  and  C_13 
REMARK    6  A    between atoms: C_20  and  C_21 
REMARK       I    between atoms: C_21  and  N_22 
ROOT
HETATM    1  C   UNL     1       4.235  28.547  54.297  1.00  0.00     0.035 A 
HETATM    2  C   UNL     1       4.347  27.921  53.048  1.00  0.00     0.046 A 
HETATM    3  C   UNL     1       4.120  28.668  51.876  1.00  0.00     0.030 A 
HETATM    4  C   UNL     1       3.866  30.028  51.988  1.00  0.00     0.063 A 
HETATM    5  N   UNL     1       3.696  30.469  50.705  1.00  0.00    -0.277 N 
HETATM    6  H   UNL     1       3.502  31.416  50.401  1.00  0.00     0.189 HD
HETATM    7  N   UNL     1       3.781  29.506  49.770  1.00  0.00    -0.168 NA
HETATM    8  C   UNL     1       4.046  28.387  50.480  1.00  0.00     0.156 A 
HETATM    9  C   UNL     1       3.824  30.695  53.214  1.00  0.00     0.034 A 
HETATM   10  C   UNL     1       4.008  29.923  54.370  1.00  0.00     0.032 A 
ENDROOT
BRANCH   1  11
HETATM   11  N   UNL     1       4.387  27.730  55.425  1.00  0.00    -0.327 N 
HETATM   12  C   UNL     1       5.344  26.823  55.772  1.00  0.00     0.222 C 
HETATM   13  O   UNL     1       5.140  26.125  56.770  1.00  0.00    -0.273 OA
HETATM   14  H   UNL     1       3.731  27.877  56.185  1.00  0.00     0.169 HD
BRANCH  12  15
HETATM   15  C   UNL     1       6.662  26.711  55.027  1.00  0.00     0.104 C 
BRANCH  15  16
HETATM   16  C   UNL     1       7.330  25.327  55.000  1.00  0.00     0.023 C 
BRANCH  16  17
HETATM   17  C   UNL     1       7.195  24.470  53.700  1.00  0.00    -0.020 C 
HETATM   18  C   UNL     1       8.001  25.107  52.545  1.00  0.00     0.020 C 
HETATM   19  C   UNL     1       5.709  24.548  53.247  1.00  0.00     0.020 C 
BRANCH  17  20
HETATM   20  C   UNL     1       7.544  22.995  53.966  1.00  0.00    -0.050 A 
HETATM   21  C   UNL     1       7.516  22.433  55.252  1.00  0.00     0.008 A 
HETATM   22  C   UNL     1       7.854  21.092  55.468  1.00  0.00     0.001 A 
HETATM   23  C   UNL     1       8.227  20.282  54.401  1.00  0.00     0.000 A 
HETATM   24  C   UNL     1       8.254  20.810  53.116  1.00  0.00     0.001 A 
HETATM   25  C   UNL     1       7.916  22.149  52.902  1.00  0.00     0.008 A 
ENDBRANCH  17  20
ENDBRANCH  16  17
ENDBRANCH  15  16
ENDBRANCH  12  15
ENDBRANCH   1  11
BRANCH   8  26
HETATM   26  C   UNL     1       4.191  27.077  49.831  1.00  0.00     0.270 C 
HETATM   27  N   UNL     1       3.161  26.749  48.993  1.00  0.00    -0.365 N 
HETATM   28  H   UNL     1       2.388  27.397  48.896  1.00  0.00     0.159 HD
HETATM   29  H   UNL     1       3.156  25.853  48.533  1.00  0.00     0.159 HD
HETATM   30  O   UNL     1       5.133  26.314  50.015  1.00  0.00    -0.266 OA
ENDBRANCH   8  26
TORSDOF 6
ENDMDL
MODEL 8
REMARK VINA RESULT:      -8.9      4.168      6.582
REMARK  6 active torsions:
REMARK  status: ('A' for Active; 'I' for Inactive)
REMARK    1  A    between atoms: C_2  and  C_3 
REMARK    2  A    between atoms: C_2  and  C_9 
REMARK    3  A    between atoms: C_9  and  C_10 
REMARK    4  A    between atoms: C_10  and  C_11 
REMARK       I    between atoms: C_11  and  N_12 
REMARK    5  A    between atoms: N_12  and  C_13 
REMARK    6  A    between atoms: C_20  and  C_21 
REMARK       I    between atoms: C_21  and  N_22 
ROOT
HETATM    1  C   UNL     1       4.865  27.043  53.558  1.00  0.00     0.035 A 
HETATM    2  C   UNL     1       4.916  28.106  52.646  1.00  0.00     0.046 A 
HETATM    3  C   UNL     1       5.102  27.835  51.277  1.00  0.00     0.030 A 
HETATM    4  C   UNL     1       5.153  26.513  50.857  1.00  0.00     0.063 A 
HETATM    5  N   UNL     1       5.333  26.572  49.503  1.00  0.00    -0.277 N 
HETATM    6  H   UNL     1       5.407  25.794  48.858  1.00  0.00     0.189 HD
HETATM    7  N   UNL     1       5.441  27.819  49.010  1.00  0.00    -0.168 NA
HETATM    8  C   UNL     1       5.298  28.610  50.097  1.00  0.00     0.156 A 
HETATM    9  C   UNL     1       5.028  25.432  51.732  1.00  0.00     0.034 A 
HETATM   10  C   UNL     1       4.888  25.725  53.096  1.00  0.00     0.032 A 
ENDROOT
BRANCH   1  11
HETATM   11  N   UNL     1       4.765  27.383  54.914  1.00  0.00    -0.327 N 
HETATM   12  C   UNL     1       5.667  27.331  55.936  1.00  0.00     0.222 C 
HETATM   13  O   UNL     1       5.253  27.551  57.079  1.00  0.00    -0.273 OA
HETATM   14  H   UNL     1       3.907  27.838  55.207  1.00  0.00     0.169 HD
BRANCH  12  15
HETATM   15  C   UNL     1       7.147  27.097  55.698  1.00  0.00     0.104 C 
BRANCH  15  16
HETATM   16  C   UNL     1       7.544  25.766  55.039  1.00  0.00     0.023 C 
BRANCH  16  17
HETATM   17  C   UNL     1       7.543  24.477  55.924  1.00  0.00    -0.020 C 
HETATM   18  C   UNL     1       6.313  24.466  56.861  1.00  0.00     0.020 C 
HETATM   19  C   UNL     1       8.773  24.566  56.872  1.00  0.00     0.020 C 
BRANCH  17  20
HETATM   20  C   UNL     1       7.683  23.210  55.063  1.00  0.00    -0.050 A 
HETATM   21  C   UNL     1       7.751  23.253  53.661  1.00  0.00     0.008 A 
HETATM   22  C   UNL     1       7.862  22.084  52.901  1.00  0.00     0.001 A 
HETATM   23  C   UNL     1       7.909  20.843  53.527  1.00  0.00     0.000 A 
HETATM   24  C   UNL     1       7.853  20.770  54.913  1.00  0.00     0.001 A 
HETATM   25  C   UNL     1       7.743  21.940  55.671  1.00  0.00     0.008 A 
ENDBRANCH  17  20
ENDBRANCH  16  17
ENDBRANCH  15  16
ENDBRANCH  12  15
ENDBRANCH   1  11
BRANCH   8  26
HETATM   26  C   UNL     1       5.379  30.074  50.001  1.00  0.00     0.270 C 
HETATM   27  N   UNL     1       4.165  30.703  49.969  1.00  0.00    -0.365 N 
HETATM   28  H   UNL     1       3.324  30.137  49.993  1.00  0.00     0.159 HD
HETATM   29  H   UNL     1       4.122  31.704  49.866  1.00  0.00     0.159 HD
HETATM   30  O   UNL     1       6.428  30.707  49.937  1.00  0.00    -0.266 OA
ENDBRANCH   8  26
TORSDOF 6
ENDMDL
MODEL 9
REMARK VINA RESULT:      -8.8      5.145      7.830
REMARK  6 active torsions:
REMARK  status: ('A' for Active; 'I' for Inactive)
REMARK    1  A    between atoms: C_2  and  C_3 
REMARK    2  A    between atoms: C_2  and  C_9 
REMARK    3  A    between atoms: C_9  and  C_10 
REMARK    4  A    between atoms: C_10  and  C_11 
REMARK       I    between atoms: C_11  and  N_12 
REMARK    5  A    between atoms: N_12  and  C_13 
REMARK    6  A    between atoms: C_20  and  C_21 
REMARK       I    between atoms: C_21  and  N_22 
ROOT
HETATM    1  C   UNL     1       4.818  28.570  51.859  1.00  0.00     0.035 A 
HETATM    2  C   UNL     1       4.168  27.731  50.944  1.00  0.00     0.046 A 
HETATM    3  C   UNL     1       4.273  27.997  49.566  1.00  0.00     0.030 A 
HETATM    4  C   UNL     1       5.085  29.041  49.145  1.00  0.00     0.063 A 
HETATM    5  N   UNL     1       4.987  29.047  47.781  1.00  0.00    -0.277 N 
HETATM    6  H   UNL     1       5.454  29.672  47.134  1.00  0.00     0.189 HD
HETATM    7  N   UNL     1       4.154  28.119  47.280  1.00  0.00    -0.168 NA
HETATM    8  C   UNL     1       3.707  27.460  48.372  1.00  0.00     0.156 A 
HETATM    9  C   UNL     1       5.805  29.848  50.029  1.00  0.00     0.034 A 
HETATM   10  C   UNL     1       5.650  29.593  51.399  1.00  0.00     0.032 A 
ENDROOT
BRANCH   1  11
HETATM   11  N   UNL     1       4.603  28.304  53.218  1.00  0.00    -0.327 N 
HETATM   12  C   UNL     1       5.322  27.593  54.133  1.00  0.00     0.222 C 
HETATM   13  O   UNL     1       4.808  27.394  55.239  1.00  0.00    -0.273 OA
HETATM   14  H   UNL     1       3.826  28.786  53.659  1.00  0.00     0.169 HD
BRANCH  12  15
HETATM   15  C   UNL     1       6.740  27.124  53.862  1.00  0.00     0.104 C 
BRANCH  15  16
HETATM   16  C   UNL     1       7.088  25.685  54.277  1.00  0.00     0.023 C 
BRANCH  16  17
HETATM   17  C   UNL     1       7.005  24.565  53.190  1.00  0.00    -0.020 C 
HETATM   18  C   UNL     1       7.825  24.962  51.941  1.00  0.00     0.020 C 
HETATM   19  C   UNL     1       5.529  24.503  52.703  1.00  0.00     0.020 C 
BRANCH  17  20
HETATM   20  C   UNL     1       7.382  23.193  53.775  1.00  0.00    -0.050 A 
HETATM   21  C   UNL     1       7.350  22.924  55.153  1.00  0.00     0.008 A 
HETATM   22  C   UNL     1       7.714  21.672  55.659  1.00  0.00     0.001 A 
HETATM   23  C   UNL     1       8.116  20.657  54.797  1.00  0.00     0.000 A 
HETATM   24  C   UNL     1       8.147  20.891  53.428  1.00  0.00     0.001 A 
HETATM   25  C   UNL     1       7.783  22.143  52.924  1.00  0.00     0.008 A 
ENDBRANCH  17  20
ENDBRANCH  16  17
ENDBRANCH  15  16
ENDBRANCH  12  15
ENDBRANCH   1  11
BRANCH   8  26
HETATM   26  C   UNL     1       2.735  26.364  48.268  1.00  0.00     0.270 C 
HETATM   27  N   UNL     1       3.198  25.158  48.718  1.00  0.00    -0.365 N 
HETATM   28  H   UNL     1       4.150  25.100  49.060  1.00  0.00     0.159 HD
HETATM   29  H   UNL     1       2.614  24.340  48.650  1.00  0.00     0.159 HD
HETATM   30  O   UNL     1       1.603  26.482  47.808  1.00  0.00    -0.266 OA
ENDBRANCH   8  26
TORSDOF 6
ENDMDL
MODEL 10
REMARK VINA RESULT:      -8.7      2.704      5.156
REMARK  6 active torsions:
REMARK  status: ('A' for Active; 'I' for Inactive)
REMARK    1  A    between atoms: C_2  and  C_3 
REMARK    2  A    between atoms: C_2  and  C_9 
REMARK    3  A    between atoms: C_9  and  C_10 
REMARK    4  A    between atoms: C_10  and  C_11 
REMARK       I    between atoms: C_11  and  N_12 
REMARK    5  A    between atoms: N_12  and  C_13 
REMARK    6  A    between atoms: C_20  and  C_21 
REMARK       I    between atoms: C_21  and  N_22 
ROOT
HETATM    1  C   UNL     1       8.381  32.044  60.530  1.00  0.00     0.035 A 
HETATM    2  C   UNL     1       7.006  32.224  60.325  1.00  0.00     0.046 A 
HETATM    3  C   UNL     1       6.139  32.262  61.434  1.00  0.00     0.030 A 
HETATM    4  C   UNL     1       6.682  32.196  62.710  1.00  0.00     0.063 A 
HETATM    5  N   UNL     1       5.612  32.259  63.560  1.00  0.00    -0.277 N 
HETATM    6  H   UNL     1       5.631  32.245  64.573  1.00  0.00     0.189 HD
HETATM    7  N   UNL     1       4.418  32.323  62.946  1.00  0.00    -0.168 NA
HETATM    8  C   UNL     1       4.729  32.328  61.631  1.00  0.00     0.156 A 
HETATM    9  C   UNL     1       8.054  32.092  62.949  1.00  0.00     0.034 A 
HETATM   10  C   UNL     1       8.894  32.012  61.828  1.00  0.00     0.032 A 
ENDROOT
BRANCH   1  11
HETATM   11  N   UNL     1       9.178  31.929  59.383  1.00  0.00    -0.327 N 
HETATM   12  C   UNL     1       9.359  30.908  58.498  1.00  0.00     0.222 C 
HETATM   13  O   UNL     1      10.252  31.031  57.654  1.00  0.00    -0.273 OA
HETATM   14  H   UNL     1       9.653  32.770  59.073  1.00  0.00     0.169 HD
BRANCH  12  15
HETATM   15  C   UNL     1       8.456  29.688  58.472  1.00  0.00     0.104 C 
BRANCH  15  16
HETATM   16  C   UNL     1       8.796  28.591  57.450  1.00  0.00     0.023 C 
BRANCH  16  17
HETATM   17  C   UNL     1       7.630  27.986  56.605  1.00  0.00    -0.020 C 
HETATM   18  C   UNL     1       7.488  28.737  55.261  1.00  0.00     0.020 C 
HETATM   19  C   UNL     1       6.307  28.272  57.371  1.00  0.00     0.020 C 
BRANCH  17  20
HETATM   20  C   UNL     1       7.784  26.462  56.455  1.00  0.00    -0.050 A 
HETATM   21  C   UNL     1       8.446  25.672  57.408  1.00  0.00     0.008 A 
HETATM   22  C   UNL     1       8.586  24.290  57.239  1.00  0.00     0.001 A 
HETATM   23  C   UNL     1       8.064  23.666  56.111  1.00  0.00     0.000 A 
HETATM   24  C   UNL     1       7.394  24.421  55.156  1.00  0.00     0.001 A 
HETATM   25  C   UNL     1       7.255  25.801  55.327  1.00  0.00     0.008 A 
ENDBRANCH  17  20
ENDBRANCH  16  17
ENDBRANCH  15  16
ENDBRANCH  12  15
ENDBRANCH   1  11
BRANCH   8  26
HETATM   26  C   UNL     1       3.691  32.364  60.592  1.00  0.00     0.270 C 
HETATM   27  N   UNL     1       3.059  31.168  60.388  1.00  0.00    -0.365 N 
HETATM   28  H   UNL     1       3.352  30.365  60.932  1.00  0.00     0.159 HD
HETATM   29  H   UNL     1       2.358  31.088  59.668  1.00  0.00     0.159 HD
HETATM   30  O   UNL     1       3.402  33.359  59.935  1.00  0.00    -0.266 OA
ENDBRANCH   8  26
TORSDOF 6
ENDMDL
