MODEL 1
REMARK VINA RESULT:      -7.8      0.000      0.000
REMARK  3 active torsions:
REMARK  status: ('A' for Active; 'I' for Inactive)
REMARK    1  A    between atoms: C_4  and  C_5 
REMARK    2  A    between atoms: C_11  and  C_12 
REMARK    3  A    between atoms: C_21  and  N_22 
ROOT
HETATM    1  C   UNL     1       5.106  32.534  60.866  1.00  0.00     0.071 A 
HETATM    2  N   UNL     1       4.270  31.557  60.360  1.00  0.00    -0.274 N 
HETATM    3  H   UNL     1       4.507  30.593  60.155  1.00  0.00     0.189 HD
HETATM    4  N   UNL     1       3.032  31.987  60.053  1.00  0.00    -0.148 NA
HETATM    5  C   UNL     1       3.089  33.265  60.401  1.00  0.00     0.199 A 
HETATM    6  C   UNL     1       4.314  33.666  60.957  1.00  0.00     0.036 A 
HETATM    7  C   UNL     1       4.507  35.082  61.409  1.00  0.00     0.079 C 
HETATM    8  C   UNL     1       3.433  35.954  60.731  1.00  0.00     0.063 C 
HETATM    9  C   UNL     1       3.712  37.447  60.681  1.00  0.00     0.020 C 
HETATM   10  N   UNL     1       3.944  38.686  60.639  1.00  0.00    -0.096 N 
HETATM   11  C   UNL     1       2.299  35.456  60.178  1.00  0.00     0.139 C 
HETATM   12  O   UNL     1       2.052  34.079  60.129  1.00  0.00    -0.277 OA
ENDROOT
BRANCH   7  13
HETATM   13  C   UNL     1       4.429  35.309  62.965  1.00  0.00     0.022 C 
HETATM   14  C   UNL     1       3.771  34.188  63.743  1.00  0.00    -0.025 C 
HETATM   15  C   UNL     1       4.355  33.537  64.758  1.00  0.00    -0.030 C 
HETATM   16  C   UNL     1       5.744  33.825  65.238  1.00  0.00     0.027 C 
HETATM   17  C   UNL     1       6.570  34.629  64.238  1.00  0.00     0.004 C 
HETATM   18  C   UNL     1       5.775  35.754  63.589  1.00  0.00     0.010 C 
ENDBRANCH   7  13
BRANCH  11  19
HETATM   19  N   UNL     1       1.298  36.204  59.597  1.00  0.00    -0.282 NA
HETATM   20  H   UNL     1       1.238  37.173  59.894  1.00  0.00     0.126 HD
HETATM   21  H   UNL     1       1.289  36.096  58.584  1.00  0.00     0.126 HD
ENDBRANCH  11  19
BRANCH   1  22
HETATM   22  C   UNL     1       6.512  32.268  61.140  1.00  0.00    -0.007 A 
HETATM   23  C   UNL     1       7.493  32.567  60.188  1.00  0.00     0.014 A 
HETATM   24  C   UNL     1       8.840  32.309  60.453  1.00  0.00     0.001 A 
HETATM   25  C   UNL     1       9.217  31.747  61.671  1.00  0.00     0.000 A 
HETATM   26  C   UNL     1       8.250  31.440  62.624  1.00  0.00     0.001 A 
HETATM   27  C   UNL     1       6.902  31.696  62.359  1.00  0.00     0.014 A 
ENDBRANCH   1  22
TORSDOF 3
ENDMDL
MODEL 2
REMARK VINA RESULT:      -7.5      7.855     10.262
REMARK  3 active torsions:
REMARK  status: ('A' for Active; 'I' for Inactive)
REMARK    1  A    between atoms: C_4  and  C_5 
REMARK    2  A    between atoms: C_11  and  C_12 
REMARK    3  A    between atoms: C_21  and  N_22 
ROOT
HETATM    1  C   UNL     1       5.015  27.826  54.794  1.00  0.00     0.071 A 
HETATM    2  N   UNL     1       3.836  28.430  55.187  1.00  0.00    -0.274 N 
HETATM    3  H   UNL     1       2.944  28.404  54.707  1.00  0.00     0.189 HD
HETATM    4  N   UNL     1       3.940  29.184  56.297  1.00  0.00    -0.148 NA
HETATM    5  C   UNL     1       5.215  29.026  56.620  1.00  0.00     0.199 A 
HETATM    6  C   UNL     1       5.932  28.165  55.775  1.00  0.00     0.036 A 
HETATM    7  C   UNL     1       7.381  27.886  56.037  1.00  0.00     0.079 C 
HETATM    8  C   UNL     1       7.926  28.998  56.955  1.00  0.00     0.063 C 
HETATM    9  C   UNL     1       9.436  29.171  56.977  1.00  0.00     0.020 C 
HETATM   10  N   UNL     1      10.689  29.315  56.996  1.00  0.00    -0.096 N 
HETATM   11  C   UNL     1       7.138  29.812  57.699  1.00  0.00     0.139 C 
HETATM   12  O   UNL     1       5.742  29.738  57.635  1.00  0.00    -0.277 OA
ENDROOT
BRANCH   7  13
HETATM   13  C   UNL     1       7.689  26.492  56.701  1.00  0.00     0.022 C 
HETATM   14  C   UNL     1       6.474  25.740  57.202  1.00  0.00    -0.025 C 
HETATM   15  C   UNL     1       6.154  24.495  56.823  1.00  0.00    -0.030 C 
HETATM   16  C   UNL     1       6.952  23.698  55.838  1.00  0.00     0.027 C 
HETATM   17  C   UNL     1       7.913  24.549  55.014  1.00  0.00     0.004 C 
HETATM   18  C   UNL     1       8.629  25.602  55.850  1.00  0.00     0.010 C 
ENDBRANCH   7  13
BRANCH  11  19
HETATM   19  N   UNL     1       7.586  30.791  58.559  1.00  0.00    -0.282 NA
HETATM   20  H   UNL     1       8.581  30.781  58.764  1.00  0.00     0.126 HD
HETATM   21  H   UNL     1       7.244  31.712  58.290  1.00  0.00     0.126 HD
ENDBRANCH  11  19
BRANCH   1  22
HETATM   22  C   UNL     1       5.108  27.072  53.550  1.00  0.00    -0.007 A 
HETATM   23  C   UNL     1       4.882  25.691  53.535  1.00  0.00     0.014 A 
HETATM   24  C   UNL     1       4.973  24.971  52.342  1.00  0.00     0.001 A 
HETATM   25  C   UNL     1       5.294  25.625  51.154  1.00  0.00     0.000 A 
HETATM   26  C   UNL     1       5.527  26.997  51.157  1.00  0.00     0.001 A 
HETATM   27  C   UNL     1       5.438  27.719  52.351  1.00  0.00     0.014 A 
ENDBRANCH   1  22
TORSDOF 3
ENDMDL
MODEL 3
REMARK VINA RESULT:      -7.4      1.864      2.625
REMARK  3 active torsions:
REMARK  status: ('A' for Active; 'I' for Inactive)
REMARK    1  A    between atoms: C_4  and  C_5 
REMARK    2  A    between atoms: C_11  and  C_12 
REMARK    3  A    between atoms: C_21  and  N_22 
ROOT
HETATM    1  C   UNL     1       6.300  32.084  61.901  1.00  0.00     0.071 A 
HETATM    2  N   UNL     1       5.842  31.010  62.639  1.00  0.00    -0.274 N 
HETATM    3  H   UNL     1       6.270  30.094  62.720  1.00  0.00     0.189 HD
HETATM    4  N   UNL     1       4.660  31.216  63.249  1.00  0.00    -0.148 NA
HETATM    5  C   UNL     1       4.385  32.465  62.903  1.00  0.00     0.199 A 
HETATM    6  C   UNL     1       5.368  33.085  62.116  1.00  0.00     0.036 A 
HETATM    7  C   UNL     1       5.188  34.504  61.668  1.00  0.00     0.079 C 
HETATM    8  C   UNL     1       3.694  34.861  61.789  1.00  0.00     0.063 C 
HETATM    9  C   UNL     1       3.222  36.058  60.980  1.00  0.00     0.020 C 
HETATM   10  N   UNL     1       2.829  37.051  60.308  1.00  0.00    -0.096 N 
HETATM   11  C   UNL     1       2.812  34.161  62.545  1.00  0.00     0.139 C 
HETATM   12  O   UNL     1       3.196  33.004  63.232  1.00  0.00    -0.277 OA
ENDROOT
BRANCH   7  13
HETATM   13  C   UNL     1       6.026  35.573  62.465  1.00  0.00     0.022 C 
HETATM   14  C   UNL     1       5.870  36.999  61.980  1.00  0.00    -0.025 C 
HETATM   15  C   UNL     1       5.483  38.018  62.759  1.00  0.00    -0.030 C 
HETATM   16  C   UNL     1       5.135  37.868  64.208  1.00  0.00     0.027 C 
HETATM   17  C   UNL     1       4.876  36.421  64.617  1.00  0.00     0.004 C 
HETATM   18  C   UNL     1       5.875  35.449  64.001  1.00  0.00     0.010 C 
ENDBRANCH   7  13
BRANCH  11  19
HETATM   19  N   UNL     1       1.480  34.469  62.709  1.00  0.00    -0.282 NA
HETATM   20  H   UNL     1       0.968  33.892  63.370  1.00  0.00     0.126 HD
HETATM   21  H   UNL     1       1.341  35.467  62.861  1.00  0.00     0.126 HD
ENDBRANCH  11  19
BRANCH   1  22
HETATM   22  C   UNL     1       7.503  31.991  61.083  1.00  0.00    -0.007 A 
HETATM   23  C   UNL     1       7.412  31.767  59.705  1.00  0.00     0.014 A 
HETATM   24  C   UNL     1       8.566  31.677  58.924  1.00  0.00     0.001 A 
HETATM   25  C   UNL     1       9.821  31.806  59.515  1.00  0.00     0.000 A 
HETATM   26  C   UNL     1       9.925  32.023  60.886  1.00  0.00     0.001 A 
HETATM   27  C   UNL     1       8.771  32.112  61.669  1.00  0.00     0.014 A 
ENDBRANCH   1  22
TORSDOF 3
ENDMDL
MODEL 4
REMARK VINA RESULT:      -7.4      2.140      3.262
REMARK  3 active torsions:
REMARK  status: ('A' for Active; 'I' for Inactive)
REMARK    1  A    between atoms: C_4  and  C_5 
REMARK    2  A    between atoms: C_11  and  C_12 
REMARK    3  A    between atoms: C_21  and  N_22 
ROOT
HETATM    1  C   UNL     1       4.093  33.837  63.021  1.00  0.00     0.071 A 
HETATM    2  N   UNL     1       3.195  33.569  64.037  1.00  0.00    -0.274 N 
HETATM    3  H   UNL     1       3.386  33.111  64.921  1.00  0.00     0.189 HD
HETATM    4  N   UNL     1       1.922  33.906  63.758  1.00  0.00    -0.148 NA
HETATM    5  C   UNL     1       2.033  34.423  62.543  1.00  0.00     0.199 A 
HETATM    6  C   UNL     1       3.342  34.462  62.040  1.00  0.00     0.036 A 
HETATM    7  C   UNL     1       3.610  35.037  60.682  1.00  0.00     0.079 C 
HETATM    8  C   UNL     1       2.284  35.056  59.898  1.00  0.00     0.063 C 
HETATM    9  C   UNL     1       2.399  35.163  58.386  1.00  0.00     0.020 C 
HETATM   10  N   UNL     1       2.493  35.251  57.131  1.00  0.00    -0.096 N 
HETATM   11  C   UNL     1       1.064  34.962  60.481  1.00  0.00     0.139 C 
HETATM   12  O   UNL     1       0.926  34.774  61.862  1.00  0.00    -0.277 OA
ENDROOT
BRANCH   7  13
HETATM   13  C   UNL     1       4.219  36.489  60.673  1.00  0.00     0.022 C 
HETATM   14  C   UNL     1       3.316  37.565  61.238  1.00  0.00    -0.025 C 
HETATM   15  C   UNL     1       3.661  38.381  62.243  1.00  0.00    -0.030 C 
HETATM   16  C   UNL     1       4.980  38.316  62.949  1.00  0.00     0.027 C 
HETATM   17  C   UNL     1       5.729  37.010  62.703  1.00  0.00     0.004 C 
HETATM   18  C   UNL     1       5.655  36.555  61.251  1.00  0.00     0.010 C 
ENDBRANCH   7  13
BRANCH  11  19
HETATM   19  N   UNL     1      -0.144  35.013  59.821  1.00  0.00    -0.282 NA
HETATM   20  H   UNL     1      -0.911  35.443  60.330  1.00  0.00     0.126 HD
HETATM   21  H   UNL     1      -0.040  35.377  58.875  1.00  0.00     0.126 HD
ENDBRANCH  11  19
BRANCH   1  22
HETATM   22  C   UNL     1       5.489  33.428  63.110  1.00  0.00    -0.007 A 
HETATM   23  C   UNL     1       6.204  33.586  64.302  1.00  0.00     0.014 A 
HETATM   24  C   UNL     1       7.542  33.194  64.384  1.00  0.00     0.001 A 
HETATM   25  C   UNL     1       8.177  32.643  63.273  1.00  0.00     0.000 A 
HETATM   26  C   UNL     1       7.478  32.485  62.079  1.00  0.00     0.001 A 
HETATM   27  C   UNL     1       6.140  32.879  61.996  1.00  0.00     0.014 A 
ENDBRANCH   1  22
TORSDOF 3
ENDMDL
MODEL 5
REMARK VINA RESULT:      -7.3      1.771      2.606
REMARK  3 active torsions:
REMARK  status: ('A' for Active; 'I' for Inactive)
REMARK    1  A    between atoms: C_4  and  C_5 
REMARK    2  A    between atoms: C_11  and  C_12 
REMARK    3  A    between atoms: C_21  and  N_22 
ROOT
HETATM    1  C   UNL     1       5.913  31.948  59.666  1.00  0.00     0.071 A 
HETATM    2  N   UNL     1       4.806  31.500  58.970  1.00  0.00    -0.274 N 
HETATM    3  H   UNL     1       4.791  30.850  58.193  1.00  0.00     0.189 HD
HETATM    4  N   UNL     1       3.644  32.062  59.351  1.00  0.00    -0.148 NA
HETATM    5  C   UNL     1       4.034  32.866  60.329  1.00  0.00     0.199 A 
HETATM    6  C   UNL     1       5.406  32.816  60.617  1.00  0.00     0.036 A 
HETATM    7  C   UNL     1       5.977  33.665  61.713  1.00  0.00     0.079 C 
HETATM    8  C   UNL     1       4.978  34.798  62.013  1.00  0.00     0.063 C 
HETATM    9  C   UNL     1       5.536  36.009  62.744  1.00  0.00     0.020 C 
HETATM   10  N   UNL     1       5.998  37.015  63.349  1.00  0.00    -0.096 N 
HETATM   11  C   UNL     1       3.674  34.768  61.645  1.00  0.00     0.139 C 
HETATM   12  O   UNL     1       3.149  33.709  60.896  1.00  0.00    -0.277 OA
ENDROOT
BRANCH   7  13
HETATM   13  C   UNL     1       6.294  32.906  63.057  1.00  0.00     0.022 C 
HETATM   14  C   UNL     1       7.479  33.443  63.831  1.00  0.00    -0.025 C 
HETATM   15  C   UNL     1       7.420  33.850  65.107  1.00  0.00    -0.030 C 
HETATM   16  C   UNL     1       6.164  33.842  65.921  1.00  0.00     0.027 C 
HETATM   17  C   UNL     1       4.900  33.714  65.076  1.00  0.00     0.004 C 
HETATM   18  C   UNL     1       5.047  32.697  63.951  1.00  0.00     0.010 C 
ENDBRANCH   7  13
BRANCH  11  19
HETATM   19  N   UNL     1       2.741  35.742  61.927  1.00  0.00    -0.282 NA
HETATM   20  H   UNL     1       1.982  35.467  62.543  1.00  0.00     0.126 HD
HETATM   21  H   UNL     1       3.184  36.617  62.206  1.00  0.00     0.126 HD
ENDBRANCH  11  19
BRANCH   1  22
HETATM   22  C   UNL     1       7.261  31.531  59.303  1.00  0.00    -0.007 A 
HETATM   23  C   UNL     1       8.377  32.213  59.800  1.00  0.00     0.014 A 
HETATM   24  C   UNL     1       9.668  31.812  59.449  1.00  0.00     0.001 A 
HETATM   25  C   UNL     1       9.854  30.727  58.595  1.00  0.00     0.000 A 
HETATM   26  C   UNL     1       8.752  30.043  58.089  1.00  0.00     0.001 A 
HETATM   27  C   UNL     1       7.460  30.445  58.438  1.00  0.00     0.014 A 
ENDBRANCH   1  22
TORSDOF 3
ENDMDL
MODEL 6
REMARK VINA RESULT:      -7.3      7.259      9.493
REMARK  3 active torsions:
REMARK  status: ('A' for Active; 'I' for Inactive)
REMARK    1  A    between atoms: C_4  and  C_5 
REMARK    2  A    between atoms: C_11  and  C_12 
REMARK    3  A    between atoms: C_21  and  N_22 
ROOT
HETATM    1  C   UNL     1       8.085  27.292  56.802  1.00  0.00     0.071 A 
HETATM    2  N   UNL     1       8.385  26.075  57.384  1.00  0.00    -0.274 N 
HETATM    3  H   UNL     1       9.001  25.906  58.171  1.00  0.00     0.189 HD
HETATM    4  N   UNL     1       7.835  25.012  56.768  1.00  0.00    -0.148 NA
HETATM    5  C   UNL     1       7.150  25.584  55.788  1.00  0.00     0.199 A 
HETATM    6  C   UNL     1       7.212  26.986  55.772  1.00  0.00     0.036 A 
HETATM    7  C   UNL     1       6.470  27.761  54.724  1.00  0.00     0.079 C 
HETATM    8  C   UNL     1       6.142  26.804  53.562  1.00  0.00     0.063 C 
HETATM    9  C   UNL     1       5.810  27.455  52.229  1.00  0.00     0.020 C 
HETATM   10  N   UNL     1       5.535  27.995  51.123  1.00  0.00    -0.096 N 
HETATM   11  C   UNL     1       6.158  25.453  53.672  1.00  0.00     0.139 C 
HETATM   12  O   UNL     1       6.544  24.820  54.860  1.00  0.00    -0.277 OA
ENDROOT
BRANCH   7  13
HETATM   13  C   UNL     1       5.133  28.438  55.209  1.00  0.00     0.022 C 
HETATM   14  C   UNL     1       4.770  28.175  56.655  1.00  0.00    -0.025 C 
HETATM   15  C   UNL     1       4.549  29.138  57.560  1.00  0.00    -0.030 C 
HETATM   16  C   UNL     1       4.655  30.600  57.257  1.00  0.00     0.027 C 
HETATM   17  C   UNL     1       5.410  30.893  55.964  1.00  0.00     0.004 C 
HETATM   18  C   UNL     1       5.036  29.938  54.837  1.00  0.00     0.010 C 
ENDBRANCH   7  13
BRANCH  11  19
HETATM   19  N   UNL     1       5.835  24.565  52.669  1.00  0.00    -0.282 NA
HETATM   20  H   UNL     1       6.150  24.814  51.736  1.00  0.00     0.126 HD
HETATM   21  H   UNL     1       6.070  23.607  52.927  1.00  0.00     0.126 HD
ENDBRANCH  11  19
BRANCH   1  22
HETATM   22  C   UNL     1       8.692  28.531  57.270  1.00  0.00    -0.007 A 
HETATM   23  C   UNL     1       9.913  28.970  56.746  1.00  0.00     0.014 A 
HETATM   24  C   UNL     1      10.493  30.157  57.197  1.00  0.00     0.001 A 
HETATM   25  C   UNL     1       9.858  30.915  58.180  1.00  0.00     0.000 A 
HETATM   26  C   UNL     1       8.646  30.486  58.714  1.00  0.00     0.001 A 
HETATM   27  C   UNL     1       8.066  29.297  58.264  1.00  0.00     0.014 A 
ENDBRANCH   1  22
TORSDOF 3
ENDMDL
MODEL 7
REMARK VINA RESULT:      -7.2      8.907     11.363
REMARK  3 active torsions:
REMARK  status: ('A' for Active; 'I' for Inactive)
REMARK    1  A    between atoms: C_4  and  C_5 
REMARK    2  A    between atoms: C_11  and  C_12 
REMARK    3  A    between atoms: C_21  and  N_22 
ROOT
HETATM    1  C   UNL     1       4.835  28.198  53.035  1.00  0.00     0.071 A 
HETATM    2  N   UNL     1       3.594  28.311  53.631  1.00  0.00    -0.274 N 
HETATM    3  H   UNL     1       2.691  28.334  53.170  1.00  0.00     0.189 HD
HETATM    4  N   UNL     1       3.630  28.474  54.967  1.00  0.00    -0.148 NA
HETATM    5  C   UNL     1       4.931  28.437  55.215  1.00  0.00     0.199 A 
HETATM    6  C   UNL     1       5.736  28.220  54.086  1.00  0.00     0.036 A 
HETATM    7  C   UNL     1       7.227  28.140  54.229  1.00  0.00     0.079 C 
HETATM    8  C   UNL     1       7.616  28.787  55.572  1.00  0.00     0.063 C 
HETATM    9  C   UNL     1       9.066  29.222  55.713  1.00  0.00     0.020 C 
HETATM   10  N   UNL     1      10.269  29.582  55.830  1.00  0.00    -0.096 N 
HETATM   11  C   UNL     1       6.743  28.997  56.587  1.00  0.00     0.139 C 
HETATM   12  O   UNL     1       5.383  28.690  56.458  1.00  0.00    -0.277 OA
ENDROOT
BRANCH   7  13
HETATM   13  C   UNL     1       7.831  26.687  54.178  1.00  0.00     0.022 C 
HETATM   14  C   UNL     1       7.131  25.672  55.057  1.00  0.00    -0.025 C 
HETATM   15  C   UNL     1       6.616  24.519  54.607  1.00  0.00    -0.030 C 
HETATM   16  C   UNL     1       6.652  24.101  53.170  1.00  0.00     0.027 C 
HETATM   17  C   UNL     1       6.959  25.252  52.216  1.00  0.00     0.004 C 
HETATM   18  C   UNL     1       8.059  26.168  52.737  1.00  0.00     0.010 C 
ENDBRANCH   7  13
BRANCH  11  19
HETATM   19  N   UNL     1       7.058  29.537  57.815  1.00  0.00    -0.282 NA
HETATM   20  H   UNL     1       6.275  29.720  58.435  1.00  0.00     0.126 HD
HETATM   21  H   UNL     1       7.814  29.024  58.267  1.00  0.00     0.126 HD
ENDBRANCH  11  19
BRANCH   1  22
HETATM   22  C   UNL     1       4.983  28.135  51.587  1.00  0.00    -0.007 A 
HETATM   23  C   UNL     1       5.544  29.204  50.880  1.00  0.00     0.014 A 
HETATM   24  C   UNL     1       5.683  29.140  49.491  1.00  0.00     0.001 A 
HETATM   25  C   UNL     1       5.258  28.008  48.798  1.00  0.00     0.000 A 
HETATM   26  C   UNL     1       4.693  26.941  49.490  1.00  0.00     0.001 A 
HETATM   27  C   UNL     1       4.552  27.004  50.878  1.00  0.00     0.014 A 
ENDBRANCH   1  22
TORSDOF 3
ENDMDL
MODEL 8
REMARK VINA RESULT:      -7.2      1.517      1.977
REMARK  3 active torsions:
REMARK  status: ('A' for Active; 'I' for Inactive)
REMARK    1  A    between atoms: C_4  and  C_5 
REMARK    2  A    between atoms: C_11  and  C_12 
REMARK    3  A    between atoms: C_21  and  N_22 
ROOT
HETATM    1  C   UNL     1       4.680  33.064  61.245  1.00  0.00     0.071 A 
HETATM    2  N   UNL     1       3.873  31.980  60.957  1.00  0.00    -0.274 N 
HETATM    3  H   UNL     1       3.982  31.028  61.290  1.00  0.00     0.189 HD
HETATM    4  N   UNL     1       2.884  32.238  60.081  1.00  0.00    -0.148 NA
HETATM    5  C   UNL     1       3.063  33.528  59.835  1.00  0.00     0.199 A 
HETATM    6  C   UNL     1       4.115  34.120  60.550  1.00  0.00     0.036 A 
HETATM    7  C   UNL     1       4.416  35.578  60.377  1.00  0.00     0.079 C 
HETATM    8  C   UNL     1       3.772  36.049  59.059  1.00  0.00     0.063 C 
HETATM    9  C   UNL     1       4.319  37.337  58.466  1.00  0.00     0.020 C 
HETATM   10  N   UNL     1       4.772  38.406  57.973  1.00  0.00    -0.096 N 
HETATM   11  C   UNL     1       2.787  35.371  58.419  1.00  0.00     0.139 C 
HETATM   12  O   UNL     1       2.322  34.138  58.892  1.00  0.00    -0.277 OA
ENDROOT
BRANCH   7  13
HETATM   13  C   UNL     1       3.915  36.513  61.541  1.00  0.00     0.022 C 
HETATM   14  C   UNL     1       3.165  35.806  62.651  1.00  0.00    -0.025 C 
HETATM   15  C   UNL     1       3.510  35.862  63.944  1.00  0.00    -0.030 C 
HETATM   16  C   UNL     1       4.698  36.619  64.452  1.00  0.00     0.027 C 
HETATM   17  C   UNL     1       5.694  36.982  63.354  1.00  0.00     0.004 C 
HETATM   18  C   UNL     1       5.013  37.463  62.080  1.00  0.00     0.010 C 
ENDBRANCH   7  13
BRANCH  11  19
HETATM   19  N   UNL     1       2.159  35.776  57.261  1.00  0.00    -0.282 NA
HETATM   20  H   UNL     1       2.769  35.990  56.477  1.00  0.00     0.126 HD
HETATM   21  H   UNL     1       1.393  35.152  57.012  1.00  0.00     0.126 HD
ENDBRANCH  11  19
BRANCH   1  22
HETATM   22  C   UNL     1       5.866  32.931  62.081  1.00  0.00    -0.007 A 
HETATM   23  C   UNL     1       7.070  32.464  61.542  1.00  0.00     0.014 A 
HETATM   24  C   UNL     1       8.205  32.337  62.346  1.00  0.00     0.001 A 
HETATM   25  C   UNL     1       8.144  32.672  63.697  1.00  0.00     0.000 A 
HETATM   26  C   UNL     1       6.951  33.133  64.247  1.00  0.00     0.001 A 
HETATM   27  C   UNL     1       5.815  33.259  63.444  1.00  0.00     0.014 A 
ENDBRANCH   1  22
TORSDOF 3
ENDMDL
MODEL 9
REMARK VINA RESULT:      -7.1      1.679      2.069
REMARK  3 active torsions:
REMARK  status: ('A' for Active; 'I' for Inactive)
REMARK    1  A    between atoms: C_4  and  C_5 
REMARK    2  A    between atoms: C_11  and  C_12 
REMARK    3  A    between atoms: C_21  and  N_22 
ROOT
HETATM    1  C   UNL     1       5.863  32.207  62.118  1.00  0.00     0.071 A 
HETATM    2  N   UNL     1       5.089  31.079  62.311  1.00  0.00    -0.274 N 
HETATM    3  H   UNL     1       5.366  30.114  62.175  1.00  0.00     0.189 HD
HETATM    4  N   UNL     1       3.811  31.333  62.649  1.00  0.00    -0.148 NA
HETATM    5  C   UNL     1       3.794  32.657  62.694  1.00  0.00     0.199 A 
HETATM    6  C   UNL     1       5.030  33.268  62.429  1.00  0.00     0.036 A 
HETATM    7  C   UNL     1       5.154  34.761  62.463  1.00  0.00     0.079 C 
HETATM    8  C   UNL     1       3.742  35.364  62.333  1.00  0.00     0.063 C 
HETATM    9  C   UNL     1       3.669  36.817  61.893  1.00  0.00     0.020 C 
HETATM   10  N   UNL     1       3.608  38.022  61.527  1.00  0.00    -0.096 N 
HETATM   11  C   UNL     1       2.602  34.667  62.568  1.00  0.00     0.139 C 
HETATM   12  O   UNL     1       2.631  33.305  62.889  1.00  0.00    -0.277 OA
ENDROOT
BRANCH   7  13
HETATM   13  C   UNL     1       5.835  35.351  63.754  1.00  0.00     0.022 C 
HETATM   14  C   UNL     1       4.885  35.667  64.890  1.00  0.00    -0.025 C 
HETATM   15  C   UNL     1       5.005  35.169  66.129  1.00  0.00    -0.030 C 
HETATM   16  C   UNL     1       6.086  34.217  66.538  1.00  0.00     0.027 C 
HETATM   17  C   UNL     1       6.789  33.561  65.353  1.00  0.00     0.004 C 
HETATM   18  C   UNL     1       7.069  34.541  64.221  1.00  0.00     0.010 C 
ENDBRANCH   7  13
BRANCH  11  19
HETATM   19  N   UNL     1       1.324  35.178  62.500  1.00  0.00    -0.282 NA
HETATM   20  H   UNL     1       0.849  35.070  61.609  1.00  0.00     0.126 HD
HETATM   21  H   UNL     1       0.758  34.880  63.293  1.00  0.00     0.126 HD
ENDBRANCH  11  19
BRANCH   1  22
HETATM   22  C   UNL     1       7.235  32.116  61.634  1.00  0.00    -0.007 A 
HETATM   23  C   UNL     1       8.261  31.672  62.476  1.00  0.00     0.014 A 
HETATM   24  C   UNL     1       9.574  31.588  62.009  1.00  0.00     0.001 A 
HETATM   25  C   UNL     1       9.874  31.950  60.697  1.00  0.00     0.000 A 
HETATM   26  C   UNL     1       8.863  32.398  59.851  1.00  0.00     0.001 A 
HETATM   27  C   UNL     1       7.549  32.485  60.318  1.00  0.00     0.014 A 
ENDBRANCH   1  22
TORSDOF 3
ENDMDL
MODEL 10
REMARK VINA RESULT:      -7.1      3.045      6.008
REMARK  3 active torsions:
REMARK  status: ('A' for Active; 'I' for Inactive)
REMARK    1  A    between atoms: C_4  and  C_5 
REMARK    2  A    between atoms: C_11  and  C_12 
REMARK    3  A    between atoms: C_21  and  N_22 
ROOT
HETATM    1  C   UNL     1       6.090  35.113  63.395  1.00  0.00     0.071 A 
HETATM    2  N   UNL     1       6.487  34.973  64.711  1.00  0.00    -0.274 N 
HETATM    3  H   UNL     1       6.426  35.667  65.448  1.00  0.00     0.189 HD
HETATM    4  N   UNL     1       7.079  33.797  64.992  1.00  0.00    -0.148 NA
HETATM    5  C   UNL     1       7.026  33.175  63.823  1.00  0.00     0.199 A 
HETATM    6  C   UNL     1       6.388  33.898  62.804  1.00  0.00     0.036 A 
HETATM    7  C   UNL     1       6.246  33.303  61.435  1.00  0.00     0.079 C 
HETATM    8  C   UNL     1       7.268  32.158  61.300  1.00  0.00     0.063 C 
HETATM    9  C   UNL     1       7.612  31.728  59.883  1.00  0.00     0.020 C 
HETATM   10  N   UNL     1       7.898  31.370  58.708  1.00  0.00    -0.096 N 
HETATM   11  C   UNL     1       7.867  31.556  62.357  1.00  0.00     0.139 C 
HETATM   12  O   UNL     1       7.639  31.986  63.669  1.00  0.00    -0.277 OA
ENDROOT
BRANCH   7  13
HETATM   13  C   UNL     1       4.816  32.742  61.089  1.00  0.00     0.022 C 
HETATM   14  C   UNL     1       3.814  32.800  62.224  1.00  0.00    -0.025 C 
HETATM   15  C   UNL     1       2.625  33.412  62.143  1.00  0.00    -0.030 C 
HETATM   16  C   UNL     1       2.145  34.133  60.923  1.00  0.00     0.027 C 
HETATM   17  C   UNL     1       3.263  34.453  59.935  1.00  0.00     0.004 C 
HETATM   18  C   UNL     1       4.242  33.299  59.763  1.00  0.00     0.010 C 
ENDBRANCH   7  13
BRANCH  11  19
HETATM   19  N   UNL     1       8.756  30.506  62.281  1.00  0.00    -0.282 NA
HETATM   20  H   UNL     1       9.163  30.333  61.367  1.00  0.00     0.126 HD
HETATM   21  H   UNL     1       9.451  30.548  63.025  1.00  0.00     0.126 HD
ENDBRANCH  11  19
BRANCH   1  22
HETATM   22  C   UNL     1       5.541  36.367  62.894  1.00  0.00    -0.007 A 
HETATM   23  C   UNL     1       4.160  36.592  62.896  1.00  0.00     0.014 A 
HETATM   24  C   UNL     1       3.637  37.794  62.413  1.00  0.00     0.001 A 
HETATM   25  C   UNL     1       4.490  38.779  61.922  1.00  0.00     0.000 A 
HETATM   26  C   UNL     1       5.866  38.565  61.910  1.00  0.00     0.001 A 
HETATM   27  C   UNL     1       6.390  37.363  62.391  1.00  0.00     0.014 A 
ENDBRANCH   1  22
TORSDOF 3
ENDMDL
