MODEL 1
REMARK VINA RESULT:      -9.4      0.000      0.000
REMARK  9 active torsions:
REMARK  status: ('A' for Active; 'I' for Inactive)
REMARK    1  A    between atoms: C_2  and  C_3 
REMARK    2  A    between atoms: C_3  and  O_4 
REMARK    3  A    between atoms: O_4  and  C_5 
REMARK    4  A    between atoms: C_6  and  C_7 
REMARK    5  A    between atoms: C_7  and  N_8 
REMARK    6  A    between atoms: C_17  and  C_18 
REMARK    7  A    between atoms: C_18  and  N_19 
REMARK    8  A    between atoms: C_23  and  O_24 
REMARK    9  A    between atoms: C_23  and  C_25 
ROOT
HETATM    1  N   UNL     1       8.361  29.391  56.714  1.00  0.00    -0.061 N 
HETATM    2  H   UNL     1       7.856  29.194  55.843  1.00  0.00     0.280 HD
HETATM    3  C   UNL     1       7.772  30.692  57.212  1.00  0.00     0.276 C 
HETATM    4  C   UNL     1       8.242  31.149  58.565  1.00  0.00     0.002 A 
HETATM    5  C   UNL     1       9.582  31.479  58.764  1.00  0.00     0.076 A 
HETATM    6  O   UNL     1      10.490  31.372  57.747  1.00  0.00    -0.349 OA
HETATM    7  C   UNL     1      10.744  29.999  57.414  1.00  0.00     0.203 C 
HETATM    8  C   UNL     1       9.817  29.520  56.291  1.00  0.00     0.262 C 
HETATM    9  C   UNL     1       7.350  31.288  59.645  1.00  0.00     0.020 A 
HETATM   10  C   UNL     1       7.793  31.741  60.903  1.00  0.00    -0.032 A 
HETATM   11  C   UNL     1       9.141  32.102  61.052  1.00  0.00     0.011 A 
HETATM   12  C   UNL     1      10.028  31.981  59.982  1.00  0.00     0.038 A 
ENDROOT
BRANCH  10  13
HETATM   13  C   UNL     1       6.862  31.799  62.088  1.00  0.00     0.273 C 
BRANCH  13  14
HETATM   14  N   UNL     1       5.738  32.808  61.966  1.00  0.00    -0.067 N 
HETATM   15  H   UNL     1       5.482  32.848  60.969  1.00  0.00     0.280 HD
HETATM   16  C   UNL     1       4.506  32.390  62.732  1.00  0.00     0.238 C 
HETATM   17  C   UNL     1       3.424  33.455  62.637  1.00  0.00     0.071 C 
HETATM   18  C   UNL     1       3.905  34.841  63.113  1.00  0.00     0.089 C 
HETATM   19  C   UNL     1       5.109  35.201  62.222  1.00  0.00     0.071 C 
HETATM   20  C   UNL     1       6.230  34.187  62.355  1.00  0.00     0.238 C 
BRANCH  18  21
HETATM   21  O   UNL     1       2.865  35.761  62.779  1.00  0.00    -0.385 OA
HETATM   22  H   UNL     1       1.998  35.412  63.058  1.00  0.00     0.211 HD
ENDBRANCH  18  21
BRANCH  18  23
HETATM   23  C   UNL     1       4.196  34.964  64.605  1.00  0.00    -0.006 A 
HETATM   24  C   UNL     1       4.311  33.856  65.445  1.00  0.00     0.126 A 
HETATM   25  N   UNL     1       4.639  33.910  66.754  1.00  0.00    -0.272 NA
HETATM   26  C   UNL     1       4.775  35.130  67.308  1.00  0.00     0.116 A 
HETATM   27  C   UNL     1       4.617  36.301  66.595  1.00  0.00     0.020 A 
HETATM   28  C   UNL     1       4.321  36.214  65.234  1.00  0.00     0.013 A 
ENDBRANCH  18  23
ENDBRANCH  13  14
ENDBRANCH  10  13
BRANCH   1  29
HETATM   29  C   UNL     1       8.097  28.181  57.597  1.00  0.00     0.276 C 
BRANCH  29  30
HETATM   30  C   UNL     1       7.950  26.877  56.850  1.00  0.00     0.001 A 
HETATM   31  C   UNL     1       7.273  26.821  55.613  1.00  0.00     0.077 A 
HETATM   32  C   UNL     1       7.163  25.602  54.941  1.00  0.00     0.037 A 
HETATM   33  C   UNL     1       7.715  24.441  55.486  1.00  0.00     0.003 A 
HETATM   34  C   UNL     1       8.363  24.483  56.715  1.00  0.00     0.001 A 
HETATM   35  C   UNL     1       8.472  25.691  57.401  1.00  0.00     0.012 A 
BRANCH  31  36
HETATM   36  O   UNL     1       6.762  28.009  55.164  1.00  0.00    -0.347 OA
BRANCH  36  37
HETATM   37  C   UNL     1       5.380  28.105  54.808  1.00  0.00     0.202 C 
BRANCH  37  38
HETATM   38  C   UNL     1       4.511  28.246  56.016  1.00  0.00    -0.011 C 
HETATM   39  C   UNL     1       4.599  29.249  56.900  1.00  0.00     0.009 C 
ENDBRANCH  37  38
ENDBRANCH  36  37
ENDBRANCH  31  36
ENDBRANCH  29  30
ENDBRANCH   1  29
TORSDOF 9
ENDMDL
MODEL 2
REMARK VINA RESULT:      -9.2      6.472     11.190
REMARK  9 active torsions:
REMARK  status: ('A' for Active; 'I' for Inactive)
REMARK    1  A    between atoms: C_2  and  C_3 
REMARK    2  A    between atoms: C_3  and  O_4 
REMARK    3  A    between atoms: O_4  and  C_5 
REMARK    4  A    between atoms: C_6  and  C_7 
REMARK    5  A    between atoms: C_7  and  N_8 
REMARK    6  A    between atoms: C_17  and  C_18 
REMARK    7  A    between atoms: C_18  and  N_19 
REMARK    8  A    between atoms: C_23  and  O_24 
REMARK    9  A    between atoms: C_23  and  C_25 
ROOT
HETATM    1  N   UNL     1       7.924  26.839  55.777  1.00  0.00    -0.061 N 
HETATM    2  H   UNL     1       8.828  26.416  55.540  1.00  0.00     0.280 HD
HETATM    3  C   UNL     1       7.711  27.904  54.727  1.00  0.00     0.276 C 
HETATM    4  C   UNL     1       6.378  28.598  54.756  1.00  0.00     0.002 A 
HETATM    5  C   UNL     1       6.018  29.371  55.861  1.00  0.00     0.076 A 
HETATM    6  O   UNL     1       6.853  29.491  56.936  1.00  0.00    -0.349 OA
HETATM    7  C   UNL     1       6.948  28.259  57.666  1.00  0.00     0.203 C 
HETATM    8  C   UNL     1       8.125  27.411  57.173  1.00  0.00     0.262 C 
HETATM    9  C   UNL     1       5.481  28.518  53.674  1.00  0.00     0.020 A 
HETATM   10  C   UNL     1       4.245  29.192  53.699  1.00  0.00    -0.032 A 
HETATM   11  C   UNL     1       3.937  29.992  54.810  1.00  0.00     0.011 A 
HETATM   12  C   UNL     1       4.826  30.088  55.881  1.00  0.00     0.038 A 
ENDROOT
BRANCH  10  13
HETATM   13  C   UNL     1       3.242  29.031  52.584  1.00  0.00     0.273 C 
BRANCH  13  14
HETATM   14  N   UNL     1       3.632  29.689  51.277  1.00  0.00    -0.067 N 
HETATM   15  H   UNL     1       3.938  30.646  51.506  1.00  0.00     0.280 HD
HETATM   16  C   UNL     1       4.792  28.993  50.608  1.00  0.00     0.238 C 
HETATM   17  C   UNL     1       5.113  29.643  49.270  1.00  0.00     0.071 C 
HETATM   18  C   UNL     1       3.899  29.692  48.321  1.00  0.00     0.089 C 
HETATM   19  C   UNL     1       2.808  30.483  49.068  1.00  0.00     0.071 C 
HETATM   20  C   UNL     1       2.423  29.813  50.373  1.00  0.00     0.238 C 
BRANCH  18  21
HETATM   21  O   UNL     1       4.293  30.496  47.209  1.00  0.00    -0.385 OA
HETATM   22  H   UNL     1       4.755  29.954  46.542  1.00  0.00     0.211 HD
ENDBRANCH  18  21
BRANCH  18  23
HETATM   23  C   UNL     1       3.417  28.344  47.793  1.00  0.00    -0.006 A 
HETATM   24  C   UNL     1       4.264  27.247  47.640  1.00  0.00     0.126 A 
HETATM   25  N   UNL     1       3.872  26.016  47.246  1.00  0.00    -0.272 NA
HETATM   26  C   UNL     1       2.581  25.863  46.890  1.00  0.00     0.116 A 
HETATM   27  C   UNL     1       1.662  26.892  46.934  1.00  0.00     0.020 A 
HETATM   28  C   UNL     1       2.088  28.142  47.385  1.00  0.00     0.013 A 
ENDBRANCH  18  23
ENDBRANCH  13  14
ENDBRANCH  10  13
BRANCH   1  29
HETATM   29  C   UNL     1       6.933  25.684  55.740  1.00  0.00     0.276 C 
BRANCH  29  30
HETATM   30  C   UNL     1       7.489  24.398  55.177  1.00  0.00     0.001 A 
HETATM   31  C   UNL     1       7.781  24.272  53.802  1.00  0.00     0.077 A 
HETATM   32  C   UNL     1       8.303  23.072  53.314  1.00  0.00     0.037 A 
HETATM   33  C   UNL     1       8.535  21.998  54.176  1.00  0.00     0.003 A 
HETATM   34  C   UNL     1       8.228  22.106  55.528  1.00  0.00     0.001 A 
HETATM   35  C   UNL     1       7.697  23.294  56.027  1.00  0.00     0.012 A 
BRANCH  31  36
HETATM   36  O   UNL     1       7.514  25.376  53.037  1.00  0.00    -0.347 OA
BRANCH  36  37
HETATM   37  C   UNL     1       6.856  25.231  51.776  1.00  0.00     0.202 C 
BRANCH  37  38
HETATM   38  C   UNL     1       5.386  25.474  51.892  1.00  0.00    -0.011 C 
HETATM   39  C   UNL     1       4.602  24.938  52.838  1.00  0.00     0.009 C 
ENDBRANCH  37  38
ENDBRANCH  36  37
ENDBRANCH  31  36
ENDBRANCH  29  30
ENDBRANCH   1  29
TORSDOF 9
ENDMDL
MODEL 3
REMARK VINA RESULT:      -9.1      6.338     11.592
REMARK  9 active torsions:
REMARK  status: ('A' for Active; 'I' for Inactive)
REMARK    1  A    between atoms: C_2  and  C_3 
REMARK    2  A    between atoms: C_3  and  O_4 
REMARK    3  A    between atoms: O_4  and  C_5 
REMARK    4  A    between atoms: C_6  and  C_7 
REMARK    5  A    between atoms: C_7  and  N_8 
REMARK    6  A    between atoms: C_17  and  C_18 
REMARK    7  A    between atoms: C_18  and  N_19 
REMARK    8  A    between atoms: C_23  and  O_24 
REMARK    9  A    between atoms: C_23  and  C_25 
ROOT
HETATM    1  N   UNL     1       7.801  26.849  56.185  1.00  0.00    -0.061 N 
HETATM    2  H   UNL     1       8.678  26.321  56.116  1.00  0.00     0.280 HD
HETATM    3  C   UNL     1       7.858  27.837  55.043  1.00  0.00     0.276 C 
HETATM    4  C   UNL     1       6.618  28.658  54.823  1.00  0.00     0.002 A 
HETATM    5  C   UNL     1       6.191  29.553  55.804  1.00  0.00     0.076 A 
HETATM    6  O   UNL     1       6.873  29.682  56.982  1.00  0.00    -0.349 OA
HETATM    7  C   UNL     1       6.728  28.513  57.802  1.00  0.00     0.203 C 
HETATM    8  C   UNL     1       7.864  27.515  57.552  1.00  0.00     0.262 C 
HETATM    9  C   UNL     1       5.881  28.573  53.627  1.00  0.00     0.020 A 
HETATM   10  C   UNL     1       4.735  29.365  53.419  1.00  0.00    -0.032 A 
HETATM   11  C   UNL     1       4.361  30.283  54.412  1.00  0.00     0.011 A 
HETATM   12  C   UNL     1       5.094  30.382  55.595  1.00  0.00     0.038 A 
ENDROOT
BRANCH  10  13
HETATM   13  C   UNL     1       3.889  29.209  52.179  1.00  0.00     0.273 C 
BRANCH  13  14
HETATM   14  N   UNL     1       4.605  28.599  50.992  1.00  0.00    -0.067 N 
HETATM   15  H   UNL     1       5.589  28.472  51.272  1.00  0.00     0.280 HD
HETATM   16  C   UNL     1       4.060  27.239  50.630  1.00  0.00     0.238 C 
HETATM   17  C   UNL     1       4.761  26.687  49.397  1.00  0.00     0.071 C 
HETATM   18  C   UNL     1       4.676  27.637  48.185  1.00  0.00     0.089 C 
HETATM   19  C   UNL     1       5.323  28.961  48.638  1.00  0.00     0.071 C 
HETATM   20  C   UNL     1       4.595  29.564  49.825  1.00  0.00     0.238 C 
BRANCH  18  21
HETATM   21  O   UNL     1       5.536  27.088  47.186  1.00  0.00    -0.385 OA
HETATM   22  H   UNL     1       6.458  27.065  47.505  1.00  0.00     0.211 HD
ENDBRANCH  18  21
BRANCH  18  23
HETATM   23  C   UNL     1       3.288  27.816  47.580  1.00  0.00    -0.006 A 
HETATM   24  C   UNL     1       2.806  29.052  47.149  1.00  0.00     0.126 A 
HETATM   25  N   UNL     1       1.616  29.250  46.543  1.00  0.00    -0.272 NA
HETATM   26  C   UNL     1       0.797  28.186  46.427  1.00  0.00     0.116 A 
HETATM   27  C   UNL     1       1.134  26.926  46.878  1.00  0.00     0.020 A 
HETATM   28  C   UNL     1       2.388  26.744  47.462  1.00  0.00     0.013 A 
ENDBRANCH  18  23
ENDBRANCH  13  14
ENDBRANCH  10  13
BRANCH   1  29
HETATM   29  C   UNL     1       6.707  25.798  56.080  1.00  0.00     0.276 C 
BRANCH  29  30
HETATM   30  C   UNL     1       6.690  25.035  54.776  1.00  0.00     0.001 A 
HETATM   31  C   UNL     1       7.707  24.109  54.463  1.00  0.00     0.077 A 
HETATM   32  C   UNL     1       7.658  23.412  53.254  1.00  0.00     0.037 A 
HETATM   33  C   UNL     1       6.613  23.629  52.354  1.00  0.00     0.003 A 
HETATM   34  C   UNL     1       5.619  24.557  52.645  1.00  0.00     0.001 A 
HETATM   35  C   UNL     1       5.661  25.266  53.843  1.00  0.00     0.012 A 
BRANCH  31  36
HETATM   36  O   UNL     1       8.691  23.970  55.405  1.00  0.00    -0.347 OA
BRANCH  36  37
HETATM   37  C   UNL     1       9.248  22.681  55.675  1.00  0.00     0.202 C 
BRANCH  37  38
HETATM   38  C   UNL     1       8.321  21.844  56.498  1.00  0.00    -0.011 C 
HETATM   39  C   UNL     1       7.921  20.609  56.166  1.00  0.00     0.009 C 
ENDBRANCH  37  38
ENDBRANCH  36  37
ENDBRANCH  31  36
ENDBRANCH  29  30
ENDBRANCH   1  29
TORSDOF 9
ENDMDL
MODEL 4
REMARK VINA RESULT:      -9.1      3.053      5.820
REMARK  9 active torsions:
REMARK  status: ('A' for Active; 'I' for Inactive)
REMARK    1  A    between atoms: C_2  and  C_3 
REMARK    2  A    between atoms: C_3  and  O_4 
REMARK    3  A    between atoms: O_4  and  C_5 
REMARK    4  A    between atoms: C_6  and  C_7 
REMARK    5  A    between atoms: C_7  and  N_8 
REMARK    6  A    between atoms: C_17  and  C_18 
REMARK    7  A    between atoms: C_18  and  N_19 
REMARK    8  A    between atoms: C_23  and  O_24 
REMARK    9  A    between atoms: C_23  and  C_25 
ROOT
HETATM    1  N   UNL     1       5.724  25.426  52.353  1.00  0.00    -0.061 N 
HETATM    2  H   UNL     1       5.624  24.413  52.226  1.00  0.00     0.280 HD
HETATM    3  C   UNL     1       4.606  25.805  53.298  1.00  0.00     0.276 C 
HETATM    4  C   UNL     1       4.602  27.233  53.769  1.00  0.00     0.002 A 
HETATM    5  C   UNL     1       4.413  28.269  52.855  1.00  0.00     0.076 A 
HETATM    6  O   UNL     1       4.254  28.009  51.522  1.00  0.00    -0.349 OA
HETATM    7  C   UNL     1       5.474  27.536  50.931  1.00  0.00     0.203 C 
HETATM    8  C   UNL     1       5.546  26.006  50.957  1.00  0.00     0.262 C 
HETATM    9  C   UNL     1       4.752  27.559  55.130  1.00  0.00     0.020 A 
HETATM   10  C   UNL     1       4.720  28.898  55.567  1.00  0.00    -0.032 A 
HETATM   11  C   UNL     1       4.488  29.909  54.622  1.00  0.00     0.011 A 
HETATM   12  C   UNL     1       4.325  29.592  53.273  1.00  0.00     0.038 A 
ENDROOT
BRANCH  10  13
HETATM   13  C   UNL     1       4.976  29.258  57.010  1.00  0.00     0.273 C 
BRANCH  13  14
HETATM   14  N   UNL     1       4.656  30.693  57.374  1.00  0.00    -0.067 N 
HETATM   15  H   UNL     1       4.198  31.113  56.552  1.00  0.00     0.280 HD
HETATM   16  C   UNL     1       3.687  30.788  58.528  1.00  0.00     0.238 C 
HETATM   17  C   UNL     1       3.438  32.241  58.905  1.00  0.00     0.071 C 
HETATM   18  C   UNL     1       4.737  33.005  59.233  1.00  0.00     0.089 C 
HETATM   19  C   UNL     1       5.616  32.908  57.971  1.00  0.00     0.071 C 
HETATM   20  C   UNL     1       5.934  31.468  57.617  1.00  0.00     0.238 C 
BRANCH  18  21
HETATM   21  O   UNL     1       4.370  34.378  59.366  1.00  0.00    -0.385 OA
HETATM   22  H   UNL     1       4.792  34.913  58.666  1.00  0.00     0.211 HD
ENDBRANCH  18  21
BRANCH  18  23
HETATM   23  C   UNL     1       5.455  32.573  60.507  1.00  0.00    -0.006 A 
HETATM   24  C   UNL     1       4.780  32.284  61.693  1.00  0.00     0.126 A 
HETATM   25  N   UNL     1       5.364  31.829  62.823  1.00  0.00    -0.272 NA
HETATM   26  C   UNL     1       6.707  31.735  62.830  1.00  0.00     0.116 A 
HETATM   27  C   UNL     1       7.490  32.058  61.741  1.00  0.00     0.020 A 
HETATM   28  C   UNL     1       6.856  32.484  60.573  1.00  0.00     0.013 A 
ENDBRANCH  18  23
ENDBRANCH  13  14
ENDBRANCH  10  13
BRANCH   1  29
HETATM   29  C   UNL     1       7.130  25.611  52.904  1.00  0.00     0.276 C 
BRANCH  29  30
HETATM   30  C   UNL     1       7.705  24.391  53.582  1.00  0.00     0.001 A 
HETATM   31  C   UNL     1       7.990  24.393  54.964  1.00  0.00     0.077 A 
HETATM   32  C   UNL     1       8.512  23.245  55.564  1.00  0.00     0.037 A 
HETATM   33  C   UNL     1       8.757  22.099  54.804  1.00  0.00     0.003 A 
HETATM   34  C   UNL     1       8.501  22.096  53.438  1.00  0.00     0.001 A 
HETATM   35  C   UNL     1       7.989  23.238  52.825  1.00  0.00     0.012 A 
BRANCH  31  36
HETATM   36  O   UNL     1       7.722  25.564  55.621  1.00  0.00    -0.347 OA
BRANCH  36  37
HETATM   37  C   UNL     1       7.852  25.633  57.044  1.00  0.00     0.202 C 
BRANCH  37  38
HETATM   38  C   UNL     1       7.769  27.042  57.536  1.00  0.00    -0.011 C 
HETATM   39  C   UNL     1       8.545  28.043  57.099  1.00  0.00     0.009 C 
ENDBRANCH  37  38
ENDBRANCH  36  37
ENDBRANCH  31  36
ENDBRANCH  29  30
ENDBRANCH   1  29
TORSDOF 9
ENDMDL
MODEL 5
REMARK VINA RESULT:      -9.0      2.784     10.704
REMARK  9 active torsions:
REMARK  status: ('A' for Active; 'I' for Inactive)
REMARK    1  A    between atoms: C_2  and  C_3 
REMARK    2  A    between atoms: C_3  and  O_4 
REMARK    3  A    between atoms: O_4  and  C_5 
REMARK    4  A    between atoms: C_6  and  C_7 
REMARK    5  A    between atoms: C_7  and  N_8 
REMARK    6  A    between atoms: C_17  and  C_18 
REMARK    7  A    between atoms: C_18  and  N_19 
REMARK    8  A    between atoms: C_23  and  O_24 
REMARK    9  A    between atoms: C_23  and  C_25 
ROOT
HETATM    1  N   UNL     1       5.481  33.029  59.621  1.00  0.00    -0.061 N 
HETATM    2  H   UNL     1       6.189  33.700  59.939  1.00  0.00     0.280 HD
HETATM    3  C   UNL     1       5.980  32.552  58.277  1.00  0.00     0.276 C 
HETATM    4  C   UNL     1       5.191  31.443  57.640  1.00  0.00     0.002 A 
HETATM    5  C   UNL     1       3.864  31.657  57.265  1.00  0.00     0.076 A 
HETATM    6  O   UNL     1       3.256  32.860  57.489  1.00  0.00    -0.349 OA
HETATM    7  C   UNL     1       3.031  33.080  58.890  1.00  0.00     0.203 C 
HETATM    8  C   UNL     1       4.198  33.843  59.526  1.00  0.00     0.262 C 
HETATM    9  C   UNL     1       5.768  30.186  57.375  1.00  0.00     0.020 A 
HETATM   10  C   UNL     1       5.028  29.161  56.754  1.00  0.00    -0.032 A 
HETATM   11  C   UNL     1       3.710  29.428  56.356  1.00  0.00     0.011 A 
HETATM   12  C   UNL     1       3.136  30.675  56.601  1.00  0.00     0.038 A 
ENDROOT
BRANCH  10  13
HETATM   13  C   UNL     1       5.612  27.784  56.557  1.00  0.00     0.273 C 
BRANCH  13  14
HETATM   14  N   UNL     1       5.929  27.426  55.119  1.00  0.00    -0.067 N 
HETATM   15  H   UNL     1       5.561  28.191  54.535  1.00  0.00     0.280 HD
HETATM   16  C   UNL     1       7.414  27.338  54.864  1.00  0.00     0.238 C 
HETATM   17  C   UNL     1       7.691  26.917  53.429  1.00  0.00     0.071 C 
HETATM   18  C   UNL     1       7.004  25.589  53.051  1.00  0.00     0.089 C 
HETATM   19  C   UNL     1       5.496  25.813  53.276  1.00  0.00     0.071 C 
HETATM   20  C   UNL     1       5.190  26.166  54.719  1.00  0.00     0.238 C 
BRANCH  18  21
HETATM   21  O   UNL     1       7.184  25.432  51.643  1.00  0.00    -0.385 OA
HETATM   22  H   UNL     1       7.140  26.298  51.195  1.00  0.00     0.211 HD
ENDBRANCH  18  21
BRANCH  18  23
HETATM   23  C   UNL     1       7.543  24.344  53.747  1.00  0.00    -0.006 A 
HETATM   24  C   UNL     1       8.203  24.392  54.975  1.00  0.00     0.126 A 
HETATM   25  N   UNL     1       8.633  23.313  55.664  1.00  0.00    -0.272 NA
HETATM   26  C   UNL     1       8.493  22.108  55.077  1.00  0.00     0.116 A 
HETATM   27  C   UNL     1       7.918  21.940  53.834  1.00  0.00     0.020 A 
HETATM   28  C   UNL     1       7.444  23.069  53.165  1.00  0.00     0.013 A 
ENDBRANCH  18  23
ENDBRANCH  13  14
ENDBRANCH  10  13
BRANCH   1  29
HETATM   29  C   UNL     1       5.437  31.967  60.711  1.00  0.00     0.276 C 
BRANCH  29  30
HETATM   30  C   UNL     1       6.184  32.329  61.972  1.00  0.00     0.001 A 
HETATM   31  C   UNL     1       7.579  32.140  62.069  1.00  0.00     0.077 A 
HETATM   32  C   UNL     1       8.243  32.495  63.246  1.00  0.00     0.037 A 
HETATM   33  C   UNL     1       7.536  33.030  64.324  1.00  0.00     0.003 A 
HETATM   34  C   UNL     1       6.158  33.199  64.244  1.00  0.00     0.001 A 
HETATM   35  C   UNL     1       5.482  32.840  63.080  1.00  0.00     0.012 A 
BRANCH  31  36
HETATM   36  O   UNL     1       8.183  31.604  60.964  1.00  0.00    -0.347 OA
BRANCH  36  37
HETATM   37  C   UNL     1       9.185  32.345  60.264  1.00  0.00     0.202 C 
BRANCH  37  38
HETATM   38  C   UNL     1       9.656  31.618  59.046  1.00  0.00    -0.011 C 
HETATM   39  C   UNL     1       9.215  30.411  58.667  1.00  0.00     0.009 C 
ENDBRANCH  37  38
ENDBRANCH  36  37
ENDBRANCH  31  36
ENDBRANCH  29  30
ENDBRANCH   1  29
TORSDOF 9
ENDMDL
MODEL 6
REMARK VINA RESULT:      -9.0      5.365     11.875
REMARK  9 active torsions:
REMARK  status: ('A' for Active; 'I' for Inactive)
REMARK    1  A    between atoms: C_2  and  C_3 
REMARK    2  A    between atoms: C_3  and  O_4 
REMARK    3  A    between atoms: O_4  and  C_5 
REMARK    4  A    between atoms: C_6  and  C_7 
REMARK    5  A    between atoms: C_7  and  N_8 
REMARK    6  A    between atoms: C_17  and  C_18 
REMARK    7  A    between atoms: C_18  and  N_19 
REMARK    8  A    between atoms: C_23  and  O_24 
REMARK    9  A    between atoms: C_23  and  C_25 
ROOT
HETATM    1  N   UNL     1       7.598  26.921  57.178  1.00  0.00    -0.061 N 
HETATM    2  H   UNL     1       7.567  27.380  58.095  1.00  0.00     0.280 HD
HETATM    3  C   UNL     1       6.149  26.704  56.808  1.00  0.00     0.276 C 
HETATM    4  C   UNL     1       5.898  26.163  55.428  1.00  0.00     0.002 A 
HETATM    5  C   UNL     1       6.356  24.891  55.083  1.00  0.00     0.076 A 
HETATM    6  O   UNL     1       7.055  24.130  55.978  1.00  0.00    -0.349 OA
HETATM    7  C   UNL     1       8.361  24.676  56.221  1.00  0.00     0.203 C 
HETATM    8  C   UNL     1       8.350  25.621  57.427  1.00  0.00     0.262 C 
HETATM    9  C   UNL     1       5.175  26.898  54.469  1.00  0.00     0.020 A 
HETATM   10  C   UNL     1       4.922  26.373  53.187  1.00  0.00    -0.032 A 
HETATM   11  C   UNL     1       5.365  25.074  52.892  1.00  0.00     0.011 A 
HETATM   12  C   UNL     1       6.069  24.334  53.841  1.00  0.00     0.038 A 
ENDROOT
BRANCH  10  13
HETATM   13  C   UNL     1       4.232  27.194  52.126  1.00  0.00     0.273 C 
BRANCH  13  14
HETATM   14  N   UNL     1       4.926  27.207  50.780  1.00  0.00    -0.067 N 
HETATM   15  H   UNL     1       5.896  26.901  50.942  1.00  0.00     0.280 HD
HETATM   16  C   UNL     1       4.304  26.236  49.806  1.00  0.00     0.238 C 
HETATM   17  C   UNL     1       4.985  26.322  48.448  1.00  0.00     0.071 C 
HETATM   18  C   UNL     1       4.974  27.748  47.862  1.00  0.00     0.089 C 
HETATM   19  C   UNL     1       5.695  28.637  48.895  1.00  0.00     0.071 C 
HETATM   20  C   UNL     1       4.990  28.620  50.238  1.00  0.00     0.238 C 
BRANCH  18  21
HETATM   21  O   UNL     1       5.812  27.712  46.706  1.00  0.00    -0.385 OA
HETATM   22  H   UNL     1       6.492  27.018  46.799  1.00  0.00     0.211 HD
ENDBRANCH  18  21
BRANCH  18  23
HETATM   23  C   UNL     1       3.607  28.284  47.449  1.00  0.00    -0.006 A 
HETATM   24  C   UNL     1       3.362  29.640  47.232  1.00  0.00     0.126 A 
HETATM   25  N   UNL     1       2.192  30.154  46.797  1.00  0.00    -0.272 NA
HETATM   26  C   UNL     1       1.159  29.301  46.649  1.00  0.00     0.116 A 
HETATM   27  C   UNL     1       1.260  27.948  46.899  1.00  0.00     0.020 A 
HETATM   28  C   UNL     1       2.494  27.439  47.306  1.00  0.00     0.013 A 
ENDBRANCH  18  23
ENDBRANCH  13  14
ENDBRANCH  10  13
BRANCH   1  29
HETATM   29  C   UNL     1       8.357  27.891  56.284  1.00  0.00     0.276 C 
BRANCH  29  30
HETATM   30  C   UNL     1       9.009  29.040  57.015  1.00  0.00     0.001 A 
HETATM   31  C   UNL     1       8.273  29.838  57.917  1.00  0.00     0.077 A 
HETATM   32  C   UNL     1       8.908  30.889  58.586  1.00  0.00     0.037 A 
HETATM   33  C   UNL     1      10.261  31.154  58.364  1.00  0.00     0.003 A 
HETATM   34  C   UNL     1      10.986  30.386  57.460  1.00  0.00     0.001 A 
HETATM   35  C   UNL     1      10.364  29.342  56.779  1.00  0.00     0.012 A 
BRANCH  31  36
HETATM   36  O   UNL     1       6.954  29.505  58.062  1.00  0.00    -0.347 OA
BRANCH  36  37
HETATM   37  C   UNL     1       5.935  30.458  57.747  1.00  0.00     0.202 C 
BRANCH  37  38
HETATM   38  C   UNL     1       5.557  30.400  56.302  1.00  0.00    -0.011 C 
HETATM   39  C   UNL     1       4.321  30.139  55.853  1.00  0.00     0.009 C 
ENDBRANCH  37  38
ENDBRANCH  36  37
ENDBRANCH  31  36
ENDBRANCH  29  30
ENDBRANCH   1  29
TORSDOF 9
ENDMDL
MODEL 7
REMARK VINA RESULT:      -9.0      5.464     10.731
REMARK  9 active torsions:
REMARK  status: ('A' for Active; 'I' for Inactive)
REMARK    1  A    between atoms: C_2  and  C_3 
REMARK    2  A    between atoms: C_3  and  O_4 
REMARK    3  A    between atoms: O_4  and  C_5 
REMARK    4  A    between atoms: C_6  and  C_7 
REMARK    5  A    between atoms: C_7  and  N_8 
REMARK    6  A    between atoms: C_17  and  C_18 
REMARK    7  A    between atoms: C_18  and  N_19 
REMARK    8  A    between atoms: C_23  and  O_24 
REMARK    9  A    between atoms: C_23  and  C_25 
ROOT
HETATM    1  N   UNL     1       7.478  25.873  57.538  1.00  0.00    -0.061 N 
HETATM    2  H   UNL     1       7.169  26.203  58.459  1.00  0.00     0.280 HD
HETATM    3  C   UNL     1       6.266  25.186  56.951  1.00  0.00     0.276 C 
HETATM    4  C   UNL     1       6.402  24.722  55.527  1.00  0.00     0.002 A 
HETATM    5  C   UNL     1       7.334  23.736  55.200  1.00  0.00     0.076 A 
HETATM    6  O   UNL     1       8.149  23.197  56.155  1.00  0.00    -0.349 OA
HETATM    7  C   UNL     1       9.123  24.148  56.611  1.00  0.00     0.203 C 
HETATM    8  C   UNL     1       8.619  24.911  57.841  1.00  0.00     0.262 C 
HETATM    9  C   UNL     1       5.582  25.235  54.504  1.00  0.00     0.020 A 
HETATM   10  C   UNL     1       5.698  24.775  53.178  1.00  0.00    -0.032 A 
HETATM   11  C   UNL     1       6.619  23.754  52.897  1.00  0.00     0.011 A 
HETATM   12  C   UNL     1       7.425  23.231  53.908  1.00  0.00     0.038 A 
ENDROOT
BRANCH  10  13
HETATM   13  C   UNL     1       4.889  25.390  52.063  1.00  0.00     0.273 C 
BRANCH  13  14
HETATM   14  N   UNL     1       5.479  26.652  51.469  1.00  0.00    -0.067 N 
HETATM   15  H   UNL     1       6.503  26.553  51.518  1.00  0.00     0.280 HD
HETATM   16  C   UNL     1       5.111  26.828  50.016  1.00  0.00     0.238 C 
HETATM   17  C   UNL     1       5.669  28.136  49.473  1.00  0.00     0.071 C 
HETATM   18  C   UNL     1       5.219  29.364  50.290  1.00  0.00     0.089 C 
HETATM   19  C   UNL     1       5.707  29.115  51.731  1.00  0.00     0.071 C 
HETATM   20  C   UNL     1       5.107  27.851  52.317  1.00  0.00     0.238 C 
BRANCH  18  21
HETATM   21  O   UNL     1       5.972  30.471  49.795  1.00  0.00    -0.385 OA
HETATM   22  H   UNL     1       5.418  31.026  49.213  1.00  0.00     0.211 HD
ENDBRANCH  18  21
BRANCH  18  23
HETATM   23  C   UNL     1       3.737  29.711  50.204  1.00  0.00    -0.006 A 
HETATM   24  C   UNL     1       3.147  30.702  50.988  1.00  0.00     0.126 A 
HETATM   25  N   UNL     1       1.857  31.094  50.897  1.00  0.00    -0.272 NA
HETATM   26  C   UNL     1       1.063  30.415  50.047  1.00  0.00     0.116 A 
HETATM   27  C   UNL     1       1.516  29.370  49.268  1.00  0.00     0.020 A 
HETATM   28  C   UNL     1       2.863  29.015  49.352  1.00  0.00     0.013 A 
ENDBRANCH  18  23
ENDBRANCH  13  14
ENDBRANCH  10  13
BRANCH   1  29
HETATM   29  C   UNL     1       7.930  27.128  56.808  1.00  0.00     0.276 C 
BRANCH  29  30
HETATM   30  C   UNL     1       7.030  28.326  57.000  1.00  0.00     0.001 A 
HETATM   31  C   UNL     1       7.392  29.373  57.875  1.00  0.00     0.077 A 
HETATM   32  C   UNL     1       6.543  30.472  58.023  1.00  0.00     0.037 A 
HETATM   33  C   UNL     1       5.341  30.539  57.316  1.00  0.00     0.003 A 
HETATM   34  C   UNL     1       4.967  29.501  56.471  1.00  0.00     0.001 A 
HETATM   35  C   UNL     1       5.799  28.394  56.320  1.00  0.00     0.012 A 
BRANCH  31  36
HETATM   36  O   UNL     1       8.585  29.214  58.527  1.00  0.00    -0.347 OA
BRANCH  36  37
HETATM   37  C   UNL     1       9.452  30.335  58.718  1.00  0.00     0.202 C 
BRANCH  37  38
HETATM   38  C   UNL     1      10.371  30.524  57.555  1.00  0.00    -0.011 C 
HETATM   39  C   UNL     1      10.841  29.527  56.792  1.00  0.00     0.009 C 
ENDBRANCH  37  38
ENDBRANCH  36  37
ENDBRANCH  31  36
ENDBRANCH  29  30
ENDBRANCH   1  29
TORSDOF 9
ENDMDL
MODEL 8
REMARK VINA RESULT:      -9.0      2.773      4.603
REMARK  9 active torsions:
REMARK  status: ('A' for Active; 'I' for Inactive)
REMARK    1  A    between atoms: C_2  and  C_3 
REMARK    2  A    between atoms: C_3  and  O_4 
REMARK    3  A    between atoms: O_4  and  C_5 
REMARK    4  A    between atoms: C_6  and  C_7 
REMARK    5  A    between atoms: C_7  and  N_8 
REMARK    6  A    between atoms: C_17  and  C_18 
REMARK    7  A    between atoms: C_18  and  N_19 
REMARK    8  A    between atoms: C_23  and  O_24 
REMARK    9  A    between atoms: C_23  and  C_25 
ROOT
HETATM    1  N   UNL     1       4.695  27.445  54.522  1.00  0.00    -0.061 N 
HETATM    2  H   UNL     1       4.440  26.453  54.585  1.00  0.00     0.280 HD
HETATM    3  C   UNL     1       4.191  28.053  55.810  1.00  0.00     0.276 C 
HETATM    4  C   UNL     1       4.558  29.492  56.044  1.00  0.00     0.002 A 
HETATM    5  C   UNL     1       4.080  30.483  55.186  1.00  0.00     0.076 A 
HETATM    6  O   UNL     1       3.294  30.164  54.114  1.00  0.00    -0.349 OA
HETATM    7  C   UNL     1       4.042  29.470  53.104  1.00  0.00     0.203 C 
HETATM    8  C   UNL     1       3.953  27.951  53.293  1.00  0.00     0.262 C 
HETATM    9  C   UNL     1       5.356  29.880  57.137  1.00  0.00     0.020 A 
HETATM   10  C   UNL     1       5.674  31.234  57.363  1.00  0.00    -0.032 A 
HETATM   11  C   UNL     1       5.140  32.204  56.501  1.00  0.00     0.011 A 
HETATM   12  C   UNL     1       4.337  31.829  55.424  1.00  0.00     0.038 A 
ENDROOT
BRANCH  10  13
HETATM   13  C   UNL     1       6.606  31.644  58.476  1.00  0.00     0.273 C 
BRANCH  13  14
HETATM   14  N   UNL     1       5.988  31.638  59.859  1.00  0.00    -0.067 N 
HETATM   15  H   UNL     1       5.876  30.650  60.130  1.00  0.00     0.280 HD
HETATM   16  C   UNL     1       6.880  32.290  60.888  1.00  0.00     0.238 C 
HETATM   17  C   UNL     1       6.200  32.321  62.249  1.00  0.00     0.071 C 
HETATM   18  C   UNL     1       4.824  33.018  62.215  1.00  0.00     0.089 C 
HETATM   19  C   UNL     1       3.976  32.232  61.196  1.00  0.00     0.071 C 
HETATM   20  C   UNL     1       4.602  32.248  59.814  1.00  0.00     0.238 C 
BRANCH  18  21
HETATM   21  O   UNL     1       4.230  32.793  63.494  1.00  0.00    -0.385 OA
HETATM   22  H   UNL     1       4.040  31.844  63.619  1.00  0.00     0.211 HD
ENDBRANCH  18  21
BRANCH  18  23
HETATM   23  C   UNL     1       4.849  34.520  61.954  1.00  0.00    -0.006 A 
HETATM   24  C   UNL     1       5.794  35.371  62.529  1.00  0.00     0.126 A 
HETATM   25  N   UNL     1       5.902  36.692  62.272  1.00  0.00    -0.272 NA
HETATM   26  C   UNL     1       4.970  37.244  61.470  1.00  0.00     0.116 A 
HETATM   27  C   UNL     1       3.946  36.519  60.897  1.00  0.00     0.020 A 
HETATM   28  C   UNL     1       3.885  35.147  61.146  1.00  0.00     0.013 A 
ENDBRANCH  18  23
ENDBRANCH  13  14
ENDBRANCH  10  13
BRANCH   1  29
HETATM   29  C   UNL     1       6.207  27.446  54.352  1.00  0.00     0.276 C 
BRANCH  29  30
HETATM   30  C   UNL     1       6.795  26.119  53.936  1.00  0.00     0.001 A 
HETATM   31  C   UNL     1       6.867  25.040  54.842  1.00  0.00     0.077 A 
HETATM   32  C   UNL     1       7.406  23.821  54.423  1.00  0.00     0.037 A 
HETATM   33  C   UNL     1       7.876  23.666  53.118  1.00  0.00     0.003 A 
HETATM   34  C   UNL     1       7.829  24.732  52.225  1.00  0.00     0.001 A 
HETATM   35  C   UNL     1       7.303  25.955  52.633  1.00  0.00     0.012 A 
BRANCH  31  36
HETATM   36  O   UNL     1       6.387  25.290  56.100  1.00  0.00    -0.347 OA
BRANCH  36  37
HETATM   37  C   UNL     1       7.288  25.365  57.208  1.00  0.00     0.202 C 
BRANCH  37  38
HETATM   38  C   UNL     1       7.489  26.777  57.657  1.00  0.00    -0.011 C 
HETATM   39  C   UNL     1       8.428  27.600  57.170  1.00  0.00     0.009 C 
ENDBRANCH  37  38
ENDBRANCH  36  37
ENDBRANCH  31  36
ENDBRANCH  29  30
ENDBRANCH   1  29
TORSDOF 9
ENDMDL
MODEL 9
REMARK VINA RESULT:      -8.7      3.273     10.033
REMARK  9 active torsions:
REMARK  status: ('A' for Active; 'I' for Inactive)
REMARK    1  A    between atoms: C_2  and  C_3 
REMARK    2  A    between atoms: C_3  and  O_4 
REMARK    3  A    between atoms: O_4  and  C_5 
REMARK    4  A    between atoms: C_6  and  C_7 
REMARK    5  A    between atoms: C_7  and  N_8 
REMARK    6  A    between atoms: C_17  and  C_18 
REMARK    7  A    between atoms: C_18  and  N_19 
REMARK    8  A    between atoms: C_23  and  O_24 
REMARK    9  A    between atoms: C_23  and  C_25 
ROOT
HETATM    1  N   UNL     1       5.495  33.134  59.055  1.00  0.00    -0.061 N 
HETATM    2  H   UNL     1       6.185  33.825  59.369  1.00  0.00     0.280 HD
HETATM    3  C   UNL     1       5.728  33.006  57.567  1.00  0.00     0.276 C 
HETATM    4  C   UNL     1       4.931  31.941  56.867  1.00  0.00     0.002 A 
HETATM    5  C   UNL     1       3.540  32.032  56.816  1.00  0.00     0.076 A 
HETATM    6  O   UNL     1       2.881  33.068  57.416  1.00  0.00    -0.349 OA
HETATM    7  C   UNL     1       2.951  32.975  58.846  1.00  0.00     0.203 C 
HETATM    8  C   UNL     1       4.149  33.758  59.395  1.00  0.00     0.262 C 
HETATM    9  C   UNL     1       5.557  30.857  56.223  1.00  0.00     0.020 A 
HETATM   10  C   UNL     1       4.803  29.878  55.547  1.00  0.00    -0.032 A 
HETATM   11  C   UNL     1       3.410  30.025  55.484  1.00  0.00     0.011 A 
HETATM   12  C   UNL     1       2.784  31.104  56.107  1.00  0.00     0.038 A 
ENDROOT
BRANCH  10  13
HETATM   13  C   UNL     1       5.462  28.664  54.939  1.00  0.00     0.273 C 
BRANCH  13  14
HETATM   14  N   UNL     1       6.004  27.665  55.941  1.00  0.00    -0.067 N 
HETATM   15  H   UNL     1       5.967  28.120  56.864  1.00  0.00     0.280 HD
HETATM   16  C   UNL     1       5.158  26.417  56.019  1.00  0.00     0.238 C 
HETATM   17  C   UNL     1       5.766  25.413  56.987  1.00  0.00     0.071 C 
HETATM   18  C   UNL     1       7.223  25.049  56.636  1.00  0.00     0.089 C 
HETATM   19  C   UNL     1       8.008  26.376  56.656  1.00  0.00     0.071 C 
HETATM   20  C   UNL     1       7.460  27.368  55.647  1.00  0.00     0.238 C 
BRANCH  18  21
HETATM   21  O   UNL     1       7.716  24.272  57.727  1.00  0.00    -0.385 OA
HETATM   22  H   UNL     1       8.658  24.469  57.888  1.00  0.00     0.211 HD
ENDBRANCH  18  21
BRANCH  18  23
HETATM   23  C   UNL     1       7.415  24.251  55.350  1.00  0.00    -0.006 A 
HETATM   24  C   UNL     1       6.526  24.322  54.278  1.00  0.00     0.126 A 
HETATM   25  N   UNL     1       6.690  23.693  53.095  1.00  0.00    -0.272 NA
HETATM   26  C   UNL     1       7.746  22.865  52.976  1.00  0.00     0.116 A 
HETATM   27  C   UNL     1       8.658  22.659  53.992  1.00  0.00     0.020 A 
HETATM   28  C   UNL     1       8.486  23.356  55.188  1.00  0.00     0.013 A 
ENDBRANCH  18  23
ENDBRANCH  13  14
ENDBRANCH  10  13
BRANCH   1  29
HETATM   29  C   UNL     1       5.799  31.885  59.869  1.00  0.00     0.276 C 
BRANCH  29  30
HETATM   30  C   UNL     1       7.130  31.906  60.580  1.00  0.00     0.001 A 
HETATM   31  C   UNL     1       8.316  31.531  59.914  1.00  0.00     0.077 A 
HETATM   32  C   UNL     1       9.535  31.571  60.596  1.00  0.00     0.037 A 
HETATM   33  C   UNL     1       9.584  31.977  61.931  1.00  0.00     0.003 A 
HETATM   34  C   UNL     1       8.418  32.326  62.602  1.00  0.00     0.001 A 
HETATM   35  C   UNL     1       7.195  32.281  61.936  1.00  0.00     0.012 A 
BRANCH  31  36
HETATM   36  O   UNL     1       8.165  31.142  58.610  1.00  0.00    -0.347 OA
BRANCH  36  37
HETATM   37  C   UNL     1       8.570  29.833  58.201  1.00  0.00     0.202 C 
BRANCH  37  38
HETATM   38  C   UNL     1       9.609  29.890  57.128  1.00  0.00    -0.011 C 
HETATM   39  C   UNL     1      10.919  30.060  57.351  1.00  0.00     0.009 C 
ENDBRANCH  37  38
ENDBRANCH  36  37
ENDBRANCH  31  36
ENDBRANCH  29  30
ENDBRANCH   1  29
TORSDOF 9
ENDMDL
MODEL 10
REMARK VINA RESULT:      -8.6      1.452      2.515
REMARK  9 active torsions:
REMARK  status: ('A' for Active; 'I' for Inactive)
REMARK    1  A    between atoms: C_2  and  C_3 
REMARK    2  A    between atoms: C_3  and  O_4 
REMARK    3  A    between atoms: O_4  and  C_5 
REMARK    4  A    between atoms: C_6  and  C_7 
REMARK    5  A    between atoms: C_7  and  N_8 
REMARK    6  A    between atoms: C_17  and  C_18 
REMARK    7  A    between atoms: C_18  and  N_19 
REMARK    8  A    between atoms: C_23  and  O_24 
REMARK    9  A    between atoms: C_23  and  C_25 
ROOT
HETATM    1  N   UNL     1       8.048  29.563  57.037  1.00  0.00    -0.061 N 
HETATM    2  H   UNL     1       7.516  29.410  56.173  1.00  0.00     0.280 HD
HETATM    3  C   UNL     1       7.478  30.837  57.617  1.00  0.00     0.276 C 
HETATM    4  C   UNL     1       7.989  31.225  58.977  1.00  0.00     0.002 A 
HETATM    5  C   UNL     1       9.336  31.544  59.150  1.00  0.00     0.076 A 
HETATM    6  O   UNL     1      10.212  31.488  58.103  1.00  0.00    -0.349 OA
HETATM    7  C   UNL     1      10.452  30.133  57.693  1.00  0.00     0.203 C 
HETATM    8  C   UNL     1       9.490  29.712  56.576  1.00  0.00     0.262 C 
HETATM    9  C   UNL     1       7.131  31.309  60.089  1.00  0.00     0.020 A 
HETATM   10  C   UNL     1       7.613  31.699  61.354  1.00  0.00    -0.032 A 
HETATM   11  C   UNL     1       8.966  32.050  61.479  1.00  0.00     0.011 A 
HETATM   12  C   UNL     1       9.819  31.983  60.378  1.00  0.00     0.038 A 
ENDROOT
BRANCH  10  13
HETATM   13  C   UNL     1       6.718  31.697  62.568  1.00  0.00     0.273 C 
BRANCH  13  14
HETATM   14  N   UNL     1       6.365  33.071  63.101  1.00  0.00    -0.067 N 
HETATM   15  H   UNL     1       7.090  33.317  63.791  1.00  0.00     0.280 HD
HETATM   16  C   UNL     1       6.392  34.127  62.023  1.00  0.00     0.238 C 
HETATM   17  C   UNL     1       5.972  35.479  62.582  1.00  0.00     0.071 C 
HETATM   18  C   UNL     1       4.588  35.443  63.261  1.00  0.00     0.089 C 
HETATM   19  C   UNL     1       4.695  34.393  64.385  1.00  0.00     0.071 C 
HETATM   20  C   UNL     1       5.044  33.021  63.840  1.00  0.00     0.238 C 
BRANCH  18  21
HETATM   21  O   UNL     1       4.424  36.707  63.903  1.00  0.00    -0.385 OA
HETATM   22  H   UNL     1       3.781  37.256  63.416  1.00  0.00     0.211 HD
ENDBRANCH  18  21
BRANCH  18  23
HETATM   23  C   UNL     1       3.400  35.217  62.331  1.00  0.00    -0.006 A 
HETATM   24  C   UNL     1       2.195  34.665  62.767  1.00  0.00     0.126 A 
HETATM   25  N   UNL     1       1.093  34.512  62.001  1.00  0.00    -0.272 NA
HETATM   26  C   UNL     1       1.197  34.835  60.697  1.00  0.00     0.116 A 
HETATM   27  C   UNL     1       2.357  35.326  60.134  1.00  0.00     0.020 A 
HETATM   28  C   UNL     1       3.467  35.513  60.959  1.00  0.00     0.013 A 
ENDBRANCH  18  23
ENDBRANCH  13  14
ENDBRANCH  10  13
BRANCH   1  29
HETATM   29  C   UNL     1       7.809  28.309  57.865  1.00  0.00     0.276 C 
BRANCH  29  30
HETATM   30  C   UNL     1       7.582  27.055  57.056  1.00  0.00     0.001 A 
HETATM   31  C   UNL     1       6.626  27.022  56.019  1.00  0.00     0.077 A 
HETATM   32  C   UNL     1       6.446  25.849  55.282  1.00  0.00     0.037 A 
HETATM   33  C   UNL     1       7.204  24.711  55.567  1.00  0.00     0.003 A 
HETATM   34  C   UNL     1       8.131  24.728  56.603  1.00  0.00     0.001 A 
HETATM   35  C   UNL     1       8.314  25.888  57.352  1.00  0.00     0.012 A 
BRANCH  31  36
HETATM   36  O   UNL     1       5.929  28.183  55.819  1.00  0.00    -0.347 OA
BRANCH  36  37
HETATM   37  C   UNL     1       4.528  28.236  56.101  1.00  0.00     0.202 C 
BRANCH  37  38
HETATM   38  C   UNL     1       4.097  29.614  56.488  1.00  0.00    -0.011 C 
HETATM   39  C   UNL     1       3.946  30.630  55.628  1.00  0.00     0.009 C 
ENDBRANCH  37  38
ENDBRANCH  36  37
ENDBRANCH  31  36
ENDBRANCH  29  30
ENDBRANCH   1  29
TORSDOF 9
ENDMDL
