MODEL 1
REMARK VINA RESULT:      -9.9      0.000      0.000
REMARK  9 active torsions:
REMARK  status: ('A' for Active; 'I' for Inactive)
REMARK    1  A    between atoms: C_2  and  C_3 
REMARK    2  A    between atoms: C_8  and  O_9 
REMARK    3  A    between atoms: C_10  and  C_11 
REMARK    4  A    between atoms: C_11  and  N_12 
REMARK       I    between atoms: N_12  and  C_13 
REMARK    5  A    between atoms: N_12  and  C_23 
REMARK       I    between atoms: C_13  and  N_14 
REMARK    6  A    between atoms: N_14  and  C_15 
REMARK    7  A    between atoms: C_23  and  C_24 
REMARK    8  A    between atoms: C_24  and  C_25 
REMARK    9  A    between atoms: C_25  and  N_26 
ROOT
HETATM    1  N   UNL     1       6.289  26.277  53.306  1.00  0.00    -0.330 N 
HETATM    2  C   UNL     1       6.298  24.976  53.791  1.00  0.00     0.323 C 
HETATM    3  N   UNL     1       7.436  24.272  53.487  1.00  0.00    -0.309 N 
HETATM    4  O   UNL     1       5.276  24.465  54.245  1.00  0.00    -0.247 OA
HETATM    5  H   UNL     1       8.185  24.782  53.036  1.00  0.00     0.170 HD
ENDROOT
BRANCH   1   6
HETATM    6  C   UNL     1       5.334  27.205  53.946  1.00  0.00     0.170 C 
BRANCH   6   7
HETATM    7  C   UNL     1       5.878  27.967  55.121  1.00  0.00     0.013 A 
HETATM    8  C   UNL     1       5.073  28.264  56.207  1.00  0.00     0.170 A 
HETATM    9  N   UNL     1       5.444  28.934  57.305  1.00  0.00    -0.224 NA
HETATM   10  C   UNL     1       6.717  29.361  57.363  1.00  0.00     0.070 A 
HETATM   11  C   UNL     1       7.634  29.147  56.312  1.00  0.00    -0.006 A 
HETATM   12  C   UNL     1       7.156  30.039  58.490  1.00  0.00     0.033 A 
HETATM   13  C   UNL     1       8.956  29.614  56.421  1.00  0.00     0.021 A 
HETATM   14  C   UNL     1       7.185  28.453  55.176  1.00  0.00     0.027 A 
HETATM   15  C   UNL     1       9.386  30.283  57.574  1.00  0.00    -0.058 A 
HETATM   16  C   UNL     1       8.471  30.499  58.606  1.00  0.00     0.009 A 
BRANCH   8  17
HETATM   17  O   UNL     1       3.771  27.881  56.246  1.00  0.00    -0.344 OA
HETATM   18  H   UNL     1       3.756  27.481  57.137  1.00  0.00     0.219 HD
ENDBRANCH   8  17
BRANCH  15  19
HETATM   19  C   UNL     1      10.803  30.783  57.692  1.00  0.00     0.034 C 
HETATM   20  C   UNL     1      11.817  29.717  57.307  1.00  0.00     0.010 C 
ENDBRANCH  15  19
ENDBRANCH   6   7
ENDBRANCH   1   6
BRANCH   1  21
HETATM   21  C   UNL     1       6.447  26.455  51.860  1.00  0.00     0.129 C 
BRANCH  21  22
HETATM   22  C   UNL     1       5.195  26.116  51.024  1.00  0.00     0.048 C 
BRANCH  22  23
HETATM   23  C   UNL     1       4.492  27.289  50.329  1.00  0.00     0.236 C 
BRANCH  23  24
HETATM   24  N   UNL     1       3.515  26.926  49.242  1.00  0.00    -0.067 N 
HETATM   25  H   UNL     1       2.554  26.882  49.613  1.00  0.00     0.280 HD
HETATM   26  C   UNL     1       3.416  27.923  48.089  1.00  0.00     0.261 C 
HETATM   27  C   UNL     1       2.418  27.411  47.040  1.00  0.00     0.195 C 
HETATM   28  O   UNL     1       2.802  26.117  46.558  1.00  0.00    -0.388 OA
HETATM   29  C   UNL     1       2.797  25.152  47.614  1.00  0.00     0.195 C 
HETATM   30  C   UNL     1       3.812  25.528  48.695  1.00  0.00     0.261 C 
ENDBRANCH  23  24
ENDBRANCH  22  23
ENDBRANCH  21  22
ENDBRANCH   1  21
BRANCH   3  31
HETATM   31  C   UNL     1       7.705  22.935  53.847  1.00  0.00     0.037 A 
HETATM   32  C   UNL     1       7.849  22.644  55.207  1.00  0.00     0.053 A 
HETATM   33  C   UNL     1       8.147  21.342  55.614  1.00  0.00     0.036 A 
HETATM   34 CL   UNL     1       8.394  21.011  57.284  1.00  0.00    -0.084 Cl
HETATM   35  C   UNL     1       8.264  20.313  54.682  1.00  0.00     0.024 A 
HETATM   36  C   UNL     1       8.089  20.592  53.329  1.00  0.00     0.004 A 
HETATM   37  C   UNL     1       7.820  21.899  52.914  1.00  0.00     0.029 A 
ENDBRANCH   3  31
TORSDOF 9
ENDMDL
MODEL 2
REMARK VINA RESULT:      -9.8      2.167      7.905
REMARK  9 active torsions:
REMARK  status: ('A' for Active; 'I' for Inactive)
REMARK    1  A    between atoms: C_2  and  C_3 
REMARK    2  A    between atoms: C_8  and  O_9 
REMARK    3  A    between atoms: C_10  and  C_11 
REMARK    4  A    between atoms: C_11  and  N_12 
REMARK       I    between atoms: N_12  and  C_13 
REMARK    5  A    between atoms: N_12  and  C_23 
REMARK       I    between atoms: C_13  and  N_14 
REMARK    6  A    between atoms: N_14  and  C_15 
REMARK    7  A    between atoms: C_23  and  C_24 
REMARK    8  A    between atoms: C_24  and  C_25 
REMARK    9  A    between atoms: C_25  and  N_26 
ROOT
HETATM    1  N   UNL     1       6.151  26.957  54.811  1.00  0.00    -0.330 N 
HETATM    2  C   UNL     1       6.925  25.910  54.329  1.00  0.00     0.323 C 
HETATM    3  N   UNL     1       6.536  24.673  54.778  1.00  0.00    -0.309 N 
HETATM    4  O   UNL     1       7.984  26.125  53.745  1.00  0.00    -0.247 OA
HETATM    5  H   UNL     1       5.685  24.629  55.324  1.00  0.00     0.170 HD
ENDROOT
BRANCH   1   6
HETATM    6  C   UNL     1       6.223  28.223  54.053  1.00  0.00     0.170 C 
BRANCH   6   7
HETATM    7  C   UNL     1       5.172  28.392  52.994  1.00  0.00     0.013 A 
HETATM    8  C   UNL     1       4.082  29.218  53.202  1.00  0.00     0.170 A 
HETATM    9  N   UNL     1       3.086  29.446  52.336  1.00  0.00    -0.224 NA
HETATM   10  C   UNL     1       3.146  28.814  51.151  1.00  0.00     0.070 A 
HETATM   11  C   UNL     1       4.191  27.924  50.822  1.00  0.00    -0.006 A 
HETATM   12  C   UNL     1       2.151  29.036  50.212  1.00  0.00     0.033 A 
HETATM   13  C   UNL     1       4.209  27.288  49.568  1.00  0.00     0.021 A 
HETATM   14  C   UNL     1       5.200  27.710  51.775  1.00  0.00     0.027 A 
HETATM   15  C   UNL     1       3.204  27.536  48.625  1.00  0.00    -0.058 A 
HETATM   16  C   UNL     1       2.168  28.411  48.961  1.00  0.00     0.009 A 
BRANCH   8  17
HETATM   17  O   UNL     1       3.925  29.898  54.367  1.00  0.00    -0.344 OA
HETATM   18  H   UNL     1       3.023  30.245  54.220  1.00  0.00     0.219 HD
ENDBRANCH   8  17
BRANCH  15  19
HETATM   19  C   UNL     1       3.222  26.856  47.280  1.00  0.00     0.034 C 
HETATM   20  C   UNL     1       3.014  25.354  47.400  1.00  0.00     0.010 C 
ENDBRANCH  15  19
ENDBRANCH   6   7
ENDBRANCH   1   6
BRANCH   1  21
HETATM   21  C   UNL     1       6.064  27.114  56.266  1.00  0.00     0.129 C 
BRANCH  21  22
HETATM   22  C   UNL     1       7.381  27.534  56.952  1.00  0.00     0.048 C 
BRANCH  22  23
HETATM   23  C   UNL     1       7.339  28.812  57.799  1.00  0.00     0.236 C 
BRANCH  23  24
HETATM   24  N   UNL     1       8.666  29.465  58.079  1.00  0.00    -0.067 N 
HETATM   25  H   UNL     1       9.155  28.986  58.851  1.00  0.00     0.280 HD
HETATM   26  C   UNL     1       9.672  29.426  56.930  1.00  0.00     0.261 C 
HETATM   27  C   UNL     1      10.959  30.158  57.338  1.00  0.00     0.195 C 
HETATM   28  O   UNL     1      10.678  31.512  57.717  1.00  0.00    -0.388 OA
HETATM   29  C   UNL     1       9.818  31.558  58.859  1.00  0.00     0.195 C 
HETATM   30  C   UNL     1       8.469  30.910  58.545  1.00  0.00     0.261 C 
ENDBRANCH  23  24
ENDBRANCH  22  23
ENDBRANCH  21  22
ENDBRANCH   1  21
BRANCH   3  31
HETATM   31  C   UNL     1       7.146  23.443  54.455  1.00  0.00     0.037 A 
HETATM   32  C   UNL     1       7.577  22.633  55.510  1.00  0.00     0.053 A 
HETATM   33  C   UNL     1       8.214  21.419  55.242  1.00  0.00     0.036 A 
HETATM   34 CL   UNL     1       8.805  20.466  56.547  1.00  0.00    -0.084 Cl
HETATM   35  C   UNL     1       8.392  20.982  53.932  1.00  0.00     0.024 A 
HETATM   36  C   UNL     1       7.934  21.770  52.879  1.00  0.00     0.004 A 
HETATM   37  C   UNL     1       7.323  22.999  53.140  1.00  0.00     0.029 A 
ENDBRANCH   3  31
TORSDOF 9
ENDMDL
MODEL 3
REMARK VINA RESULT:      -9.8      1.658      2.180
REMARK  9 active torsions:
REMARK  status: ('A' for Active; 'I' for Inactive)
REMARK    1  A    between atoms: C_2  and  C_3 
REMARK    2  A    between atoms: C_8  and  O_9 
REMARK    3  A    between atoms: C_10  and  C_11 
REMARK    4  A    between atoms: C_11  and  N_12 
REMARK       I    between atoms: N_12  and  C_13 
REMARK    5  A    between atoms: N_12  and  C_23 
REMARK       I    between atoms: C_13  and  N_14 
REMARK    6  A    between atoms: N_14  and  C_15 
REMARK    7  A    between atoms: C_23  and  C_24 
REMARK    8  A    between atoms: C_24  and  C_25 
REMARK    9  A    between atoms: C_25  and  N_26 
ROOT
HETATM    1  N   UNL     1       6.308  27.013  54.546  1.00  0.00    -0.330 N 
HETATM    2  C   UNL     1       6.248  25.627  54.521  1.00  0.00     0.323 C 
HETATM    3  N   UNL     1       7.461  25.017  54.318  1.00  0.00    -0.309 N 
HETATM    4  O   UNL     1       5.169  25.043  54.459  1.00  0.00    -0.247 OA
HETATM    5  H   UNL     1       8.278  25.614  54.307  1.00  0.00     0.170 HD
ENDROOT
BRANCH   1   6
HETATM    6  C   UNL     1       5.165  27.703  55.179  1.00  0.00     0.170 C 
BRANCH   6   7
HETATM    7  C   UNL     1       5.533  28.801  56.135  1.00  0.00     0.013 A 
HETATM    8  C   UNL     1       4.817  29.984  56.166  1.00  0.00     0.170 A 
HETATM    9  N   UNL     1       5.051  31.030  56.970  1.00  0.00    -0.224 NA
HETATM   10  C   UNL     1       6.078  30.924  57.830  1.00  0.00     0.070 A 
HETATM   11  C   UNL     1       6.905  29.781  57.883  1.00  0.00    -0.006 A 
HETATM   12  C   UNL     1       6.347  31.969  58.700  1.00  0.00     0.033 A 
HETATM   13  C   UNL     1       7.968  29.719  58.801  1.00  0.00     0.021 A 
HETATM   14  C   UNL     1       6.623  28.722  57.004  1.00  0.00     0.027 A 
HETATM   15  C   UNL     1       8.214  30.778  59.684  1.00  0.00    -0.058 A 
HETATM   16  C   UNL     1       7.398  31.910  59.619  1.00  0.00     0.009 A 
BRANCH   8  17
HETATM   17  O   UNL     1       3.763  30.193  55.335  1.00  0.00    -0.344 OA
HETATM   18  H   UNL     1       3.835  31.163  55.238  1.00  0.00     0.219 HD
ENDBRANCH   8  17
BRANCH  15  19
HETATM   19  C   UNL     1       9.352  30.713  60.670  1.00  0.00     0.034 C 
HETATM   20  C   UNL     1       9.327  31.879  61.646  1.00  0.00     0.010 C 
ENDBRANCH  15  19
ENDBRANCH   6   7
ENDBRANCH   1   6
BRANCH   1  21
HETATM   21  C   UNL     1       6.855  27.684  53.363  1.00  0.00     0.129 C 
BRANCH  21  22
HETATM   22  C   UNL     1       5.835  27.939  52.233  1.00  0.00     0.048 C 
BRANCH  22  23
HETATM   23  C   UNL     1       5.518  26.755  51.311  1.00  0.00     0.236 C 
BRANCH  23  24
HETATM   24  N   UNL     1       5.409  27.070  49.842  1.00  0.00    -0.067 N 
HETATM   25  H   UNL     1       6.257  26.768  49.339  1.00  0.00     0.280 HD
HETATM   26  C   UNL     1       4.274  26.363  49.102  1.00  0.00     0.261 C 
HETATM   27  C   UNL     1       4.256  26.803  47.632  1.00  0.00     0.195 C 
HETATM   28  O   UNL     1       4.119  28.226  47.526  1.00  0.00    -0.388 OA
HETATM   29  C   UNL     1       5.231  28.897  48.126  1.00  0.00     0.195 C 
HETATM   30  C   UNL     1       5.310  28.581  49.620  1.00  0.00     0.261 C 
ENDBRANCH  23  24
ENDBRANCH  22  23
ENDBRANCH  21  22
ENDBRANCH   1  21
BRANCH   3  31
HETATM   31  C   UNL     1       7.688  23.627  54.242  1.00  0.00     0.037 A 
HETATM   32  C   UNL     1       7.878  22.932  55.440  1.00  0.00     0.053 A 
HETATM   33  C   UNL     1       8.137  21.560  55.417  1.00  0.00     0.036 A 
HETATM   34 CL   UNL     1       8.441  20.730  56.893  1.00  0.00    -0.084 Cl
HETATM   35  C   UNL     1       8.170  20.861  54.213  1.00  0.00     0.024 A 
HETATM   36  C   UNL     1       7.948  21.543  53.019  1.00  0.00     0.004 A 
HETATM   37  C   UNL     1       7.718  22.922  53.034  1.00  0.00     0.029 A 
ENDBRANCH   3  31
TORSDOF 9
ENDMDL
MODEL 4
REMARK VINA RESULT:      -9.5      2.406      8.113
REMARK  9 active torsions:
REMARK  status: ('A' for Active; 'I' for Inactive)
REMARK    1  A    between atoms: C_2  and  C_3 
REMARK    2  A    between atoms: C_8  and  O_9 
REMARK    3  A    between atoms: C_10  and  C_11 
REMARK    4  A    between atoms: C_11  and  N_12 
REMARK       I    between atoms: N_12  and  C_13 
REMARK    5  A    between atoms: N_12  and  C_23 
REMARK       I    between atoms: C_13  and  N_14 
REMARK    6  A    between atoms: N_14  and  C_15 
REMARK    7  A    between atoms: C_23  and  C_24 
REMARK    8  A    between atoms: C_24  and  C_25 
REMARK    9  A    between atoms: C_25  and  N_26 
ROOT
HETATM    1  N   UNL     1       5.519  27.089  52.722  1.00  0.00    -0.330 N 
HETATM    2  C   UNL     1       6.482  26.233  53.238  1.00  0.00     0.323 C 
HETATM    3  N   UNL     1       6.015  24.975  53.531  1.00  0.00    -0.309 N 
HETATM    4  O   UNL     1       7.577  26.658  53.599  1.00  0.00    -0.247 OA
HETATM    5  H   UNL     1       5.063  24.764  53.259  1.00  0.00     0.170 HD
ENDROOT
BRANCH   1   6
HETATM    6  C   UNL     1       6.022  28.271  51.993  1.00  0.00     0.170 C 
BRANCH   6   7
HETATM    7  C   UNL     1       5.206  28.678  50.800  1.00  0.00     0.013 A 
HETATM    8  C   UNL     1       5.345  29.937  50.242  1.00  0.00     0.170 A 
HETATM    9  N   UNL     1       4.676  30.411  49.183  1.00  0.00    -0.224 NA
HETATM   10  C   UNL     1       3.783  29.590  48.604  1.00  0.00     0.070 A 
HETATM   11  C   UNL     1       3.527  28.289  49.090  1.00  0.00    -0.006 A 
HETATM   12  C   UNL     1       3.082  30.024  47.490  1.00  0.00     0.033 A 
HETATM   13  C   UNL     1       2.583  27.468  48.448  1.00  0.00     0.021 A 
HETATM   14  C   UNL     1       4.246  27.851  50.214  1.00  0.00     0.027 A 
HETATM   15  C   UNL     1       1.896  27.918  47.314  1.00  0.00    -0.058 A 
HETATM   16  C   UNL     1       2.148  29.209  46.844  1.00  0.00     0.009 A 
BRANCH   8  17
HETATM   17  O   UNL     1       6.216  30.844  50.755  1.00  0.00    -0.344 OA
HETATM   18  H   UNL     1       5.687  31.654  50.625  1.00  0.00     0.219 HD
ENDBRANCH   8  17
BRANCH  15  19
HETATM   19  C   UNL     1       0.885  27.039  46.624  1.00  0.00     0.034 C 
HETATM   20  C   UNL     1      -0.281  27.841  46.067  1.00  0.00     0.010 C 
ENDBRANCH  15  19
ENDBRANCH   6   7
ENDBRANCH   1   6
BRANCH   1  21
HETATM   21  C   UNL     1       4.326  27.329  53.539  1.00  0.00     0.129 C 
BRANCH  21  22
HETATM   22  C   UNL     1       4.373  28.614  54.392  1.00  0.00     0.048 C 
BRANCH  22  23
HETATM   23  C   UNL     1       4.877  28.467  55.833  1.00  0.00     0.236 C 
BRANCH  23  24
HETATM   24  N   UNL     1       6.360  28.268  55.999  1.00  0.00    -0.067 N 
HETATM   25  H   UNL     1       6.784  27.925  55.124  1.00  0.00     0.280 HD
HETATM   26  C   UNL     1       7.159  29.529  56.322  1.00  0.00     0.261 C 
HETATM   27  C   UNL     1       8.643  29.175  56.502  1.00  0.00     0.195 C 
HETATM   28  O   UNL     1       8.812  28.193  57.532  1.00  0.00    -0.388 OA
HETATM   29  C   UNL     1       8.153  26.970  57.191  1.00  0.00     0.195 C 
HETATM   30  C   UNL     1       6.645  27.191  57.049  1.00  0.00     0.261 C 
ENDBRANCH  23  24
ENDBRANCH  22  23
ENDBRANCH  21  22
ENDBRANCH   1  21
BRANCH   3  31
HETATM   31  C   UNL     1       6.772  23.914  54.070  1.00  0.00     0.037 A 
HETATM   32  C   UNL     1       7.225  22.926  53.191  1.00  0.00     0.053 A 
HETATM   33  C   UNL     1       7.953  21.839  53.679  1.00  0.00     0.036 A 
HETATM   34 CL   UNL     1       8.442  20.593  52.598  1.00  0.00    -0.084 Cl
HETATM   35  C   UNL     1       8.270  21.742  55.031  1.00  0.00     0.024 A 
HETATM   36  C   UNL     1       7.849  22.741  55.906  1.00  0.00     0.004 A 
HETATM   37  C   UNL     1       7.095  23.817  55.428  1.00  0.00     0.029 A 
ENDBRANCH   3  31
TORSDOF 9
ENDMDL
MODEL 5
REMARK VINA RESULT:      -9.4      3.450      9.284
REMARK  9 active torsions:
REMARK  status: ('A' for Active; 'I' for Inactive)
REMARK    1  A    between atoms: C_2  and  C_3 
REMARK    2  A    between atoms: C_8  and  O_9 
REMARK    3  A    between atoms: C_10  and  C_11 
REMARK    4  A    between atoms: C_11  and  N_12 
REMARK       I    between atoms: N_12  and  C_13 
REMARK    5  A    between atoms: N_12  and  C_23 
REMARK       I    between atoms: C_13  and  N_14 
REMARK    6  A    between atoms: N_14  and  C_15 
REMARK    7  A    between atoms: C_23  and  C_24 
REMARK    8  A    between atoms: C_24  and  C_25 
REMARK    9  A    between atoms: C_25  and  N_26 
ROOT
HETATM    1  N   UNL     1       5.716  28.745  55.448  1.00  0.00    -0.330 N 
HETATM    2  C   UNL     1       4.978  28.710  54.273  1.00  0.00     0.323 C 
HETATM    3  N   UNL     1       5.486  29.496  53.269  1.00  0.00    -0.309 N 
HETATM    4  O   UNL     1       3.862  28.196  54.244  1.00  0.00    -0.247 OA
HETATM    5  H   UNL     1       6.380  29.938  53.440  1.00  0.00     0.170 HD
ENDROOT
BRANCH   1   6
HETATM    6  C   UNL     1       5.496  27.627  56.389  1.00  0.00     0.170 C 
BRANCH   6   7
HETATM    7  C   UNL     1       6.420  26.456  56.214  1.00  0.00     0.013 A 
HETATM    8  C   UNL     1       7.469  26.244  57.090  1.00  0.00     0.170 A 
HETATM    9  N   UNL     1       8.355  25.241  57.036  1.00  0.00    -0.224 NA
HETATM   10  C   UNL     1       8.214  24.353  56.037  1.00  0.00     0.070 A 
HETATM   11  C   UNL     1       7.201  24.467  55.061  1.00  0.00    -0.006 A 
HETATM   12  C   UNL     1       9.091  23.282  55.951  1.00  0.00     0.033 A 
HETATM   13  C   UNL     1       7.096  23.512  54.035  1.00  0.00     0.021 A 
HETATM   14  C   UNL     1       6.311  25.550  55.158  1.00  0.00     0.027 A 
HETATM   15  C   UNL     1       7.980  22.428  53.973  1.00  0.00    -0.058 A 
HETATM   16  C   UNL     1       8.986  22.325  54.937  1.00  0.00     0.009 A 
BRANCH   8  17
HETATM   17  O   UNL     1       7.701  27.086  58.131  1.00  0.00    -0.344 OA
HETATM   18  H   UNL     1       7.447  27.928  57.706  1.00  0.00     0.219 HD
ENDBRANCH   8  17
BRANCH  15  19
HETATM   19  C   UNL     1       7.868  21.401  52.875  1.00  0.00     0.034 C 
HETATM   20  C   UNL     1       8.686  20.154  53.176  1.00  0.00     0.010 C 
ENDBRANCH  15  19
ENDBRANCH   6   7
ENDBRANCH   1   6
BRANCH   1  21
HETATM   21  C   UNL     1       5.912  30.053  56.080  1.00  0.00     0.129 C 
BRANCH  21  22
HETATM   22  C   UNL     1       6.061  30.016  57.615  1.00  0.00     0.048 C 
BRANCH  22  23
HETATM   23  C   UNL     1       6.762  31.214  58.268  1.00  0.00     0.236 C 
BRANCH  23  24
HETATM   24  N   UNL     1       7.222  31.019  59.689  1.00  0.00    -0.067 N 
HETATM   25  H   UNL     1       6.738  30.220  60.124  1.00  0.00     0.280 HD
HETATM   26  C   UNL     1       8.704  30.683  59.858  1.00  0.00     0.261 C 
HETATM   27  C   UNL     1       9.041  30.550  61.350  1.00  0.00     0.195 C 
HETATM   28  O   UNL     1       8.711  31.753  62.058  1.00  0.00    -0.388 OA
HETATM   29  C   UNL     1       7.308  32.020  61.992  1.00  0.00     0.195 C 
HETATM   30  C   UNL     1       6.867  32.237  60.543  1.00  0.00     0.261 C 
ENDBRANCH  23  24
ENDBRANCH  22  23
ENDBRANCH  21  22
ENDBRANCH   1  21
BRANCH   3  31
HETATM   31  C   UNL     1       4.936  29.652  51.979  1.00  0.00     0.037 A 
HETATM   32  C   UNL     1       5.103  28.604  51.070  1.00  0.00     0.053 A 
HETATM   33  C   UNL     1       4.604  28.722  49.771  1.00  0.00     0.036 A 
HETATM   34 CL   UNL     1       4.879  27.456  48.639  1.00  0.00    -0.084 Cl
HETATM   35  C   UNL     1       3.904  29.859  49.376  1.00  0.00     0.024 A 
HETATM   36  C   UNL     1       3.706  30.892  50.290  1.00  0.00     0.004 A 
HETATM   37  C   UNL     1       4.229  30.792  51.582  1.00  0.00     0.029 A 
ENDBRANCH   3  31
TORSDOF 9
ENDMDL
MODEL 6
REMARK VINA RESULT:      -9.3      2.075      8.690
REMARK  9 active torsions:
REMARK  status: ('A' for Active; 'I' for Inactive)
REMARK    1  A    between atoms: C_2  and  C_3 
REMARK    2  A    between atoms: C_8  and  O_9 
REMARK    3  A    between atoms: C_10  and  C_11 
REMARK    4  A    between atoms: C_11  and  N_12 
REMARK       I    between atoms: N_12  and  C_13 
REMARK    5  A    between atoms: N_12  and  C_23 
REMARK       I    between atoms: C_13  and  N_14 
REMARK    6  A    between atoms: N_14  and  C_15 
REMARK    7  A    between atoms: C_23  and  C_24 
REMARK    8  A    between atoms: C_24  and  C_25 
REMARK    9  A    between atoms: C_25  and  N_26 
ROOT
HETATM    1  N   UNL     1       4.964  27.629  53.298  1.00  0.00    -0.330 N 
HETATM    2  C   UNL     1       6.002  26.770  53.633  1.00  0.00     0.323 C 
HETATM    3  N   UNL     1       5.643  25.764  54.494  1.00  0.00    -0.309 N 
HETATM    4  O   UNL     1       7.166  27.048  53.351  1.00  0.00    -0.247 OA
HETATM    5  H   UNL     1       4.659  25.683  54.720  1.00  0.00     0.170 HD
ENDROOT
BRANCH   1   6
HETATM    6  C   UNL     1       5.155  28.438  52.078  1.00  0.00     0.170 C 
BRANCH   6   7
HETATM    7  C   UNL     1       4.514  27.883  50.838  1.00  0.00     0.013 A 
HETATM    8  C   UNL     1       5.034  26.766  50.210  1.00  0.00     0.170 A 
HETATM    9  N   UNL     1       4.551  26.184  49.105  1.00  0.00    -0.224 NA
HETATM   10  C   UNL     1       3.458  26.733  48.550  1.00  0.00     0.070 A 
HETATM   11  C   UNL     1       2.843  27.890  49.076  1.00  0.00    -0.006 A 
HETATM   12  C   UNL     1       2.905  26.154  47.418  1.00  0.00     0.033 A 
HETATM   13  C   UNL     1       1.700  28.427  48.458  1.00  0.00     0.021 A 
HETATM   14  C   UNL     1       3.403  28.469  50.227  1.00  0.00     0.027 A 
HETATM   15  C   UNL     1       1.146  27.818  47.325  1.00  0.00    -0.058 A 
HETATM   16  C   UNL     1       1.765  26.679  46.804  1.00  0.00     0.009 A 
BRANCH   8  17
HETATM   17  O   UNL     1       6.139  26.138  50.688  1.00  0.00    -0.344 OA
HETATM   18  H   UNL     1       5.852  26.007  51.613  1.00  0.00     0.219 HD
ENDBRANCH   8  17
BRANCH  15  19
HETATM   19  C   UNL     1      -0.080  28.392  46.662  1.00  0.00     0.034 C 
HETATM   20  C   UNL     1      -0.493  27.588  45.438  1.00  0.00     0.010 C 
ENDBRANCH  15  19
ENDBRANCH   6   7
ENDBRANCH   1   6
BRANCH   1  21
HETATM   21  C   UNL     1       4.285  28.321  54.397  1.00  0.00     0.129 C 
BRANCH  21  22
HETATM   22  C   UNL     1       5.205  29.179  55.291  1.00  0.00     0.048 C 
BRANCH  22  23
HETATM   23  C   UNL     1       5.295  28.782  56.769  1.00  0.00     0.236 C 
BRANCH  23  24
HETATM   24  N   UNL     1       6.674  28.784  57.373  1.00  0.00    -0.067 N 
HETATM   25  H   UNL     1       6.768  28.036  58.077  1.00  0.00     0.280 HD
HETATM   26  C   UNL     1       7.818  28.512  56.397  1.00  0.00     0.261 C 
HETATM   27  C   UNL     1       9.163  28.582  57.136  1.00  0.00     0.195 C 
HETATM   28  O   UNL     1       9.332  29.857  57.770  1.00  0.00    -0.388 OA
HETATM   29  C   UNL     1       8.324  30.077  58.760  1.00  0.00     0.195 C 
HETATM   30  C   UNL     1       6.933  30.093  58.122  1.00  0.00     0.261 C 
ENDBRANCH  23  24
ENDBRANCH  22  23
ENDBRANCH  21  22
ENDBRANCH   1  21
BRANCH   3  31
HETATM   31  C   UNL     1       6.496  24.761  55.000  1.00  0.00     0.037 A 
HETATM   32  C   UNL     1       6.818  23.694  54.156  1.00  0.00     0.053 A 
HETATM   33  C   UNL     1       7.633  22.659  54.619  1.00  0.00     0.036 A 
HETATM   34 CL   UNL     1       7.963  21.316  53.596  1.00  0.00    -0.084 Cl
HETATM   35  C   UNL     1       8.167  22.694  55.905  1.00  0.00     0.024 A 
HETATM   36  C   UNL     1       7.876  23.772  56.738  1.00  0.00     0.004 A 
HETATM   37  C   UNL     1       7.036  24.795  56.290  1.00  0.00     0.029 A 
ENDBRANCH   3  31
TORSDOF 9
ENDMDL
MODEL 7
REMARK VINA RESULT:      -9.3      2.320      7.619
REMARK  9 active torsions:
REMARK  status: ('A' for Active; 'I' for Inactive)
REMARK    1  A    between atoms: C_2  and  C_3 
REMARK    2  A    between atoms: C_8  and  O_9 
REMARK    3  A    between atoms: C_10  and  C_11 
REMARK    4  A    between atoms: C_11  and  N_12 
REMARK       I    between atoms: N_12  and  C_13 
REMARK    5  A    between atoms: N_12  and  C_23 
REMARK       I    between atoms: C_13  and  N_14 
REMARK    6  A    between atoms: N_14  and  C_15 
REMARK    7  A    between atoms: C_23  and  C_24 
REMARK    8  A    between atoms: C_24  and  C_25 
REMARK    9  A    between atoms: C_25  and  N_26 
ROOT
HETATM    1  N   UNL     1       6.587  26.543  55.127  1.00  0.00    -0.330 N 
HETATM    2  C   UNL     1       6.621  25.163  54.979  1.00  0.00     0.323 C 
HETATM    3  N   UNL     1       7.693  24.560  55.588  1.00  0.00    -0.309 N 
HETATM    4  O   UNL     1       5.876  24.595  54.183  1.00  0.00    -0.247 OA
HETATM    5  H   UNL     1       8.289  25.149  56.156  1.00  0.00     0.170 HD
ENDROOT
BRANCH   1   6
HETATM    6  C   UNL     1       5.281  27.192  54.892  1.00  0.00     0.170 C 
BRANCH   6   7
HETATM    7  C   UNL     1       5.071  27.715  53.500  1.00  0.00     0.013 A 
HETATM    8  C   UNL     1       4.976  29.074  53.260  1.00  0.00     0.170 A 
HETATM    9  N   UNL     1       4.790  29.656  52.068  1.00  0.00    -0.224 NA
HETATM   10  C   UNL     1       4.685  28.846  51.000  1.00  0.00     0.070 A 
HETATM   11  C   UNL     1       4.740  27.440  51.110  1.00  0.00    -0.006 A 
HETATM   12  C   UNL     1       4.515  29.400  49.741  1.00  0.00     0.033 A 
HETATM   13  C   UNL     1       4.625  26.636  49.962  1.00  0.00     0.021 A 
HETATM   14  C   UNL     1       4.919  26.884  52.388  1.00  0.00     0.027 A 
HETATM   15  C   UNL     1       4.471  27.214  48.696  1.00  0.00    -0.058 A 
HETATM   16  C   UNL     1       4.408  28.606  48.596  1.00  0.00     0.009 A 
BRANCH   8  17
HETATM   17  O   UNL     1       5.064  29.977  54.271  1.00  0.00    -0.344 OA
HETATM   18  H   UNL     1       6.035  30.083  54.296  1.00  0.00     0.219 HD
ENDBRANCH   8  17
BRANCH  15  19
HETATM   19  C   UNL     1       4.349  26.354  47.464  1.00  0.00     0.034 C 
HETATM   20  C   UNL     1       3.219  25.344  47.585  1.00  0.00     0.010 C 
ENDBRANCH  15  19
ENDBRANCH   6   7
ENDBRANCH   1   6
BRANCH   1  21
HETATM   21  C   UNL     1       7.747  27.299  54.644  1.00  0.00     0.129 C 
BRANCH  21  22
HETATM   22  C   UNL     1       8.154  28.496  55.528  1.00  0.00     0.048 C 
BRANCH  22  23
HETATM   23  C   UNL     1       8.322  28.220  57.027  1.00  0.00     0.236 C 
BRANCH  23  24
HETATM   24  N   UNL     1       7.796  29.280  57.959  1.00  0.00    -0.067 N 
HETATM   25  H   UNL     1       7.315  28.854  58.765  1.00  0.00     0.280 HD
HETATM   26  C   UNL     1       8.856  30.176  58.599  1.00  0.00     0.261 C 
HETATM   27  C   UNL     1       8.181  31.230  59.488  1.00  0.00     0.195 C 
HETATM   28  O   UNL     1       7.247  32.013  58.734  1.00  0.00    -0.388 OA
HETATM   29  C   UNL     1       6.192  31.197  58.217  1.00  0.00     0.195 C 
HETATM   30  C   UNL     1       6.745  30.143  57.257  1.00  0.00     0.261 C 
ENDBRANCH  23  24
ENDBRANCH  22  23
ENDBRANCH  21  22
ENDBRANCH   1  21
BRANCH   3  31
HETATM   31  C   UNL     1       7.976  23.178  55.591  1.00  0.00     0.037 A 
HETATM   32  C   UNL     1       8.049  22.527  54.356  1.00  0.00     0.053 A 
HETATM   33  C   UNL     1       8.297  21.153  54.306  1.00  0.00     0.036 A 
HETATM   34 CL   UNL     1       8.311  20.349  52.786  1.00  0.00    -0.084 Cl
HETATM   35  C   UNL     1       8.514  20.425  55.473  1.00  0.00     0.024 A 
HETATM   36  C   UNL     1       8.476  21.077  56.704  1.00  0.00     0.004 A 
HETATM   37  C   UNL     1       8.199  22.445  56.762  1.00  0.00     0.029 A 
ENDBRANCH   3  31
TORSDOF 9
ENDMDL
MODEL 8
REMARK VINA RESULT:      -9.1      4.385      8.638
REMARK  9 active torsions:
REMARK  status: ('A' for Active; 'I' for Inactive)
REMARK    1  A    between atoms: C_2  and  C_3 
REMARK    2  A    between atoms: C_8  and  O_9 
REMARK    3  A    between atoms: C_10  and  C_11 
REMARK    4  A    between atoms: C_11  and  N_12 
REMARK       I    between atoms: N_12  and  C_13 
REMARK    5  A    between atoms: N_12  and  C_23 
REMARK       I    between atoms: C_13  and  N_14 
REMARK    6  A    between atoms: N_14  and  C_15 
REMARK    7  A    between atoms: C_23  and  C_24 
REMARK    8  A    between atoms: C_24  and  C_25 
REMARK    9  A    between atoms: C_25  and  N_26 
ROOT
HETATM    1  N   UNL     1       6.062  30.879  57.995  1.00  0.00    -0.330 N 
HETATM    2  C   UNL     1       6.753  31.524  59.012  1.00  0.00     0.323 C 
HETATM    3  N   UNL     1       6.088  31.550  60.212  1.00  0.00    -0.309 N 
HETATM    4  O   UNL     1       7.753  32.195  58.768  1.00  0.00    -0.247 OA
HETATM    5  H   UNL     1       5.225  31.024  60.270  1.00  0.00     0.170 HD
ENDROOT
BRANCH   1   6
HETATM    6  C   UNL     1       6.869  30.437  56.839  1.00  0.00     0.170 C 
BRANCH   6   7
HETATM    7  C   UNL     1       7.168  28.966  56.797  1.00  0.00     0.013 A 
HETATM    8  C   UNL     1       7.708  28.321  57.895  1.00  0.00     0.170 A 
HETATM    9  N   UNL     1       8.016  27.020  57.976  1.00  0.00    -0.224 NA
HETATM   10  C   UNL     1       7.781  26.265  56.889  1.00  0.00     0.070 A 
HETATM   11  C   UNL     1       7.256  26.804  55.695  1.00  0.00    -0.006 A 
HETATM   12  C   UNL     1       8.061  24.908  56.930  1.00  0.00     0.033 A 
HETATM   13  C   UNL     1       7.028  25.972  54.584  1.00  0.00     0.021 A 
HETATM   14  C   UNL     1       6.968  28.178  55.662  1.00  0.00     0.027 A 
HETATM   15  C   UNL     1       7.301  24.600  54.650  1.00  0.00    -0.058 A 
HETATM   16  C   UNL     1       7.828  24.075  55.832  1.00  0.00     0.009 A 
BRANCH   8  17
HETATM   17  O   UNL     1       7.988  28.993  59.042  1.00  0.00    -0.344 OA
HETATM   18  H   UNL     1       7.075  29.185  59.332  1.00  0.00     0.219 HD
ENDBRANCH   8  17
BRANCH  15  19
HETATM   19  C   UNL     1       7.055  23.706  53.461  1.00  0.00     0.034 C 
HETATM   20  C   UNL     1       8.215  22.753  53.216  1.00  0.00     0.010 C 
ENDBRANCH  15  19
ENDBRANCH   6   7
ENDBRANCH   1   6
BRANCH   1  21
HETATM   21  C   UNL     1       4.730  31.390  57.658  1.00  0.00     0.129 C 
BRANCH  21  22
HETATM   22  C   UNL     1       3.862  30.432  56.816  1.00  0.00     0.048 C 
BRANCH  22  23
HETATM   23  C   UNL     1       3.421  30.936  55.436  1.00  0.00     0.236 C 
BRANCH  23  24
HETATM   24  N   UNL     1       3.987  30.201  54.250  1.00  0.00    -0.067 N 
HETATM   25  H   UNL     1       5.013  30.297  54.215  1.00  0.00     0.280 HD
HETATM   26  C   UNL     1       3.762  28.690  54.245  1.00  0.00     0.261 C 
HETATM   27  C   UNL     1       4.353  28.078  52.967  1.00  0.00     0.195 C 
HETATM   28  O   UNL     1       3.777  28.678  51.799  1.00  0.00    -0.388 OA
HETATM   29  C   UNL     1       4.072  30.076  51.741  1.00  0.00     0.195 C 
HETATM   30  C   UNL     1       3.469  30.806  52.943  1.00  0.00     0.261 C 
ENDBRANCH  23  24
ENDBRANCH  22  23
ENDBRANCH  21  22
ENDBRANCH   1  21
BRANCH   3  31
HETATM   31  C   UNL     1       6.552  32.142  61.405  1.00  0.00     0.037 A 
HETATM   32  C   UNL     1       5.991  33.365  61.785  1.00  0.00     0.053 A 
HETATM   33  C   UNL     1       6.437  34.008  62.942  1.00  0.00     0.036 A 
HETATM   34 CL   UNL     1       5.792  35.547  63.359  1.00  0.00    -0.084 Cl
HETATM   35  C   UNL     1       7.410  33.426  63.750  1.00  0.00     0.024 A 
HETATM   36  C   UNL     1       7.948  32.191  63.394  1.00  0.00     0.004 A 
HETATM   37  C   UNL     1       7.526  31.558  62.221  1.00  0.00     0.029 A 
ENDBRANCH   3  31
TORSDOF 9
ENDMDL
MODEL 9
REMARK VINA RESULT:      -9.1      4.175     10.372
REMARK  9 active torsions:
REMARK  status: ('A' for Active; 'I' for Inactive)
REMARK    1  A    between atoms: C_2  and  C_3 
REMARK    2  A    between atoms: C_8  and  O_9 
REMARK    3  A    between atoms: C_10  and  C_11 
REMARK    4  A    between atoms: C_11  and  N_12 
REMARK       I    between atoms: N_12  and  C_13 
REMARK    5  A    between atoms: N_12  and  C_23 
REMARK       I    between atoms: C_13  and  N_14 
REMARK    6  A    between atoms: N_14  and  C_15 
REMARK    7  A    between atoms: C_23  and  C_24 
REMARK    8  A    between atoms: C_24  and  C_25 
REMARK    9  A    between atoms: C_25  and  N_26 
ROOT
HETATM    1  N   UNL     1       5.836  29.169  56.585  1.00  0.00    -0.330 N 
HETATM    2  C   UNL     1       5.017  30.194  57.039  1.00  0.00     0.323 C 
HETATM    3  N   UNL     1       5.241  31.402  56.428  1.00  0.00    -0.309 N 
HETATM    4  O   UNL     1       4.331  30.053  58.049  1.00  0.00    -0.247 OA
HETATM    5  H   UNL     1       5.894  31.411  55.654  1.00  0.00     0.170 HD
ENDROOT
BRANCH   1   6
HETATM    6  C   UNL     1       5.373  27.794  56.863  1.00  0.00     0.170 C 
BRANCH   6   7
HETATM    7  C   UNL     1       5.706  26.783  55.803  1.00  0.00     0.013 A 
HETATM    8  C   UNL     1       5.075  26.813  54.572  1.00  0.00     0.170 A 
HETATM    9  N   UNL     1       5.287  25.969  53.554  1.00  0.00    -0.224 NA
HETATM   10  C   UNL     1       6.198  24.999  53.741  1.00  0.00     0.070 A 
HETATM   11  C   UNL     1       6.895  24.842  54.959  1.00  0.00    -0.006 A 
HETATM   12  C   UNL     1       6.472  24.114  52.710  1.00  0.00     0.033 A 
HETATM   13  C   UNL     1       7.839  23.810  55.105  1.00  0.00     0.021 A 
HETATM   14  C   UNL     1       6.619  25.745  55.998  1.00  0.00     0.027 A 
HETATM   15  C   UNL     1       8.114  22.936  54.046  1.00  0.00    -0.058 A 
HETATM   16  C   UNL     1       7.415  23.092  52.847  1.00  0.00     0.009 A 
BRANCH   8  17
HETATM   17  O   UNL     1       4.135  27.750  54.283  1.00  0.00    -0.344 OA
HETATM   18  H   UNL     1       4.047  28.155  55.168  1.00  0.00     0.219 HD
ENDBRANCH   8  17
BRANCH  15  19
HETATM   19  C   UNL     1       9.127  21.830  54.201  1.00  0.00     0.034 C 
HETATM   20  C   UNL     1       8.782  20.619  53.348  1.00  0.00     0.010 C 
ENDBRANCH  15  19
ENDBRANCH   6   7
ENDBRANCH   1   6
BRANCH   1  21
HETATM   21  C   UNL     1       7.284  29.366  56.697  1.00  0.00     0.129 C 
BRANCH  21  22
HETATM   22  C   UNL     1       7.870  29.088  58.097  1.00  0.00     0.048 C 
BRANCH  22  23
HETATM   23  C   UNL     1       8.497  30.280  58.831  1.00  0.00     0.236 C 
BRANCH  23  24
HETATM   24  N   UNL     1       7.944  30.580  60.199  1.00  0.00    -0.067 N 
HETATM   25  H   UNL     1       7.302  29.835  60.507  1.00  0.00     0.280 HD
HETATM   26  C   UNL     1       8.978  30.657  61.322  1.00  0.00     0.261 C 
HETATM   27  C   UNL     1       8.285  31.007  62.646  1.00  0.00     0.195 C 
HETATM   28  O   UNL     1       7.565  32.242  62.536  1.00  0.00    -0.388 OA
HETATM   29  C   UNL     1       6.526  32.146  61.559  1.00  0.00     0.195 C 
HETATM   30  C   UNL     1       7.110  31.863  60.174  1.00  0.00     0.261 C 
ENDBRANCH  23  24
ENDBRANCH  22  23
ENDBRANCH  21  22
ENDBRANCH   1  21
BRANCH   3  31
HETATM   31  C   UNL     1       4.560  32.608  56.698  1.00  0.00     0.037 A 
HETATM   32  C   UNL     1       3.371  32.853  56.005  1.00  0.00     0.053 A 
HETATM   33  C   UNL     1       2.675  34.046  56.214  1.00  0.00     0.036 A 
HETATM   34 CL   UNL     1       1.253  34.369  55.302  1.00  0.00    -0.084 Cl
HETATM   35  C   UNL     1       3.129  34.983  57.139  1.00  0.00     0.024 A 
HETATM   36  C   UNL     1       4.296  34.728  57.856  1.00  0.00     0.004 A 
HETATM   37  C   UNL     1       5.012  33.549  57.629  1.00  0.00     0.029 A 
ENDBRANCH   3  31
TORSDOF 9
ENDMDL
MODEL 10
REMARK VINA RESULT:      -8.9      2.695      7.438
REMARK  9 active torsions:
REMARK  status: ('A' for Active; 'I' for Inactive)
REMARK    1  A    between atoms: C_2  and  C_3 
REMARK    2  A    between atoms: C_8  and  O_9 
REMARK    3  A    between atoms: C_10  and  C_11 
REMARK    4  A    between atoms: C_11  and  N_12 
REMARK       I    between atoms: N_12  and  C_13 
REMARK    5  A    between atoms: N_12  and  C_23 
REMARK       I    between atoms: C_13  and  N_14 
REMARK    6  A    between atoms: N_14  and  C_15 
REMARK    7  A    between atoms: C_23  and  C_24 
REMARK    8  A    between atoms: C_24  and  C_25 
REMARK    9  A    between atoms: C_25  and  N_26 
ROOT
HETATM    1  N   UNL     1       6.354  26.540  53.932  1.00  0.00    -0.330 N 
HETATM    2  C   UNL     1       6.445  25.157  54.018  1.00  0.00     0.323 C 
HETATM    3  N   UNL     1       7.495  24.711  54.782  1.00  0.00    -0.309 N 
HETATM    4  O   UNL     1       5.776  24.434  53.284  1.00  0.00    -0.247 OA
HETATM    5  H   UNL     1       8.030  25.412  55.279  1.00  0.00     0.170 HD
ENDROOT
BRANCH   1   6
HETATM    6  C   UNL     1       5.044  27.081  53.513  1.00  0.00     0.170 C 
BRANCH   6   7
HETATM    7  C   UNL     1       5.031  27.748  52.168  1.00  0.00     0.013 A 
HETATM    8  C   UNL     1       4.799  27.017  51.016  1.00  0.00     0.170 A 
HETATM    9  N   UNL     1       4.764  27.499  49.767  1.00  0.00    -0.224 NA
HETATM   10  C   UNL     1       4.975  28.817  49.612  1.00  0.00     0.070 A 
HETATM   11  C   UNL     1       5.249  29.672  50.702  1.00  0.00    -0.006 A 
HETATM   12  C   UNL     1       4.925  29.369  48.341  1.00  0.00     0.033 A 
HETATM   13  C   UNL     1       5.463  31.045  50.487  1.00  0.00     0.021 A 
HETATM   14  C   UNL     1       5.291  29.108  51.988  1.00  0.00     0.027 A 
HETATM   15  C   UNL     1       5.393  31.587  49.198  1.00  0.00    -0.058 A 
HETATM   16  C   UNL     1       5.130  30.734  48.124  1.00  0.00     0.009 A 
BRANCH   8  17
HETATM   17  O   UNL     1       4.578  25.678  51.063  1.00  0.00    -0.344 OA
HETATM   18  H   UNL     1       5.073  25.414  50.264  1.00  0.00     0.219 HD
ENDBRANCH   8  17
BRANCH  15  19
HETATM   19  C   UNL     1       5.620  33.059  48.966  1.00  0.00     0.034 C 
HETATM   20  C   UNL     1       6.154  33.339  47.570  1.00  0.00     0.010 C 
ENDBRANCH  15  19
ENDBRANCH   6   7
ENDBRANCH   1   6
BRANCH   1  21
HETATM   21  C   UNL     1       7.516  27.258  53.401  1.00  0.00     0.129 C 
BRANCH  21  22
HETATM   22  C   UNL     1       8.203  28.210  54.403  1.00  0.00     0.048 C 
BRANCH  22  23
HETATM   23  C   UNL     1       7.492  28.428  55.745  1.00  0.00     0.236 C 
BRANCH  23  24
HETATM   24  N   UNL     1       8.089  29.473  56.649  1.00  0.00    -0.067 N 
HETATM   25  H   UNL     1       7.822  30.420  56.341  1.00  0.00     0.280 HD
HETATM   26  C   UNL     1       7.630  29.420  58.106  1.00  0.00     0.261 C 
HETATM   27  C   UNL     1       8.343  30.511  58.917  1.00  0.00     0.195 C 
HETATM   28  O   UNL     1       9.767  30.365  58.831  1.00  0.00    -0.388 OA
HETATM   29  C   UNL     1      10.218  30.516  57.482  1.00  0.00     0.195 C 
HETATM   30  C   UNL     1       9.617  29.432  56.586  1.00  0.00     0.261 C 
ENDBRANCH  23  24
ENDBRANCH  22  23
ENDBRANCH  21  22
ENDBRANCH   1  21
BRANCH   3  31
HETATM   31  C   UNL     1       7.825  23.363  55.032  1.00  0.00     0.037 A 
HETATM   32  C   UNL     1       8.045  22.533  53.929  1.00  0.00     0.053 A 
HETATM   33  C   UNL     1       8.346  21.182  54.122  1.00  0.00     0.036 A 
HETATM   34 CL   UNL     1       8.542  20.154  52.757  1.00  0.00    -0.084 Cl
HETATM   35  C   UNL     1       8.470  20.656  55.405  1.00  0.00     0.024 A 
HETATM   36  C   UNL     1       8.285  21.488  56.507  1.00  0.00     0.004 A 
HETATM   37  C   UNL     1       7.955  22.833  56.320  1.00  0.00     0.029 A 
ENDBRANCH   3  31
TORSDOF 9
ENDMDL
