MODEL 1
REMARK VINA RESULT:      -8.0      0.000      0.000
REMARK  7 active torsions:
REMARK  status: ('A' for Active; 'I' for Inactive)
REMARK    1  A    between atoms: C_4  and  C_5 
REMARK    2  A    between atoms: C_10  and  C_11 
REMARK       I    between atoms: C_11  and  N_12 
REMARK    3  A    between atoms: N_12  and  C_13 
REMARK    4  A    between atoms: C_13  and  C_14 
REMARK    5  A    between atoms: C_14  and  C_15 
REMARK    6  A    between atoms: C_15  and  N_16 
REMARK    7  A    between atoms: C_26  and  C_27 
ROOT
HETATM    1  C   UNL     1       5.997  26.578  55.976  1.00  0.00     0.125 C 
HETATM    2  N   UNL     1       5.035  27.114  55.007  1.00  0.00    -0.365 N 
HETATM    3  C   UNL     1       5.225  26.978  53.672  1.00  0.00     0.141 A 
HETATM    4  N   UNL     1       6.220  26.174  53.178  1.00  0.00    -0.238 N 
HETATM    5  N   UNL     1       6.307  26.189  51.835  1.00  0.00    -0.163 NA
HETATM    6  C   UNL     1       5.266  26.962  51.445  1.00  0.00     0.165 A 
HETATM    7  C   UNL     1       4.588  27.488  52.570  1.00  0.00     0.092 A 
HETATM    8 BR   UNL     1       3.103  28.627  52.557  1.00  0.00    -0.044 Br
HETATM    9  C   UNL     1       7.162  25.444  54.013  1.00  0.00     0.221 C 
HETATM   10  C   UNL     1       6.576  25.262  55.425  1.00  0.00     0.067 C 
HETATM   11  H   UNL     1       4.436  27.857  55.371  1.00  0.00     0.162 HD
ENDROOT
BRANCH   6  12
HETATM   12  C   UNL     1       4.976  27.122  50.015  1.00  0.00     0.273 C 
HETATM   13  N   UNL     1       4.082  26.189  49.529  1.00  0.00    -0.355 N 
HETATM   14  H   UNL     1       3.790  25.478  50.204  1.00  0.00     0.162 HD
HETATM   15  O   UNL     1       5.403  28.026  49.296  1.00  0.00    -0.266 OA
BRANCH  13  16
HETATM   16  C   UNL     1       3.684  26.100  48.147  1.00  0.00     0.124 C 
BRANCH  16  17
HETATM   17  C   UNL     1       2.273  26.625  47.888  1.00  0.00     0.047 C 
BRANCH  17  18
HETATM   18  C   UNL     1       2.154  27.958  47.144  1.00  0.00     0.236 C 
BRANCH  18  19
HETATM   19  N   UNL     1       3.009  29.058  47.714  1.00  0.00    -0.067 N 
HETATM   20  H   UNL     1       3.842  28.604  48.147  1.00  0.00     0.280 HD
HETATM   21  C   UNL     1       3.478  30.092  46.707  1.00  0.00     0.261 C 
HETATM   22  C   UNL     1       4.330  31.156  47.407  1.00  0.00     0.195 C 
HETATM   23  O   UNL     1       3.606  31.776  48.475  1.00  0.00    -0.388 OA
HETATM   24  C   UNL     1       3.236  30.821  49.476  1.00  0.00     0.195 C 
HETATM   25  C   UNL     1       2.313  29.749  48.887  1.00  0.00     0.261 C 
ENDBRANCH  18  19
ENDBRANCH  17  18
ENDBRANCH  16  17
ENDBRANCH  13  16
ENDBRANCH   6  12
BRANCH   9  26
HETATM   26  C   UNL     1       7.505  24.092  53.423  1.00  0.00     0.409 C 
HETATM   27  F   UNL     1       6.404  23.421  53.012  1.00  0.00    -0.169 F 
HETATM   28  F   UNL     1       8.356  24.174  52.378  1.00  0.00    -0.169 F 
HETATM   29  F   UNL     1       8.114  23.316  54.354  1.00  0.00    -0.169 F 
ENDBRANCH   9  26
BRANCH   1  30
HETATM   30  C   UNL     1       7.088  27.541  56.390  1.00  0.00     0.005 A 
HETATM   31  S   UNL     1       6.880  29.225  56.107  1.00  0.00    -0.104 SA
HETATM   32  C   UNL     1       8.396  29.599  56.799  1.00  0.00     0.050 A 
HETATM   33  C   UNL     1       9.059  28.473  57.228  1.00  0.00     0.008 A 
HETATM   34  C   UNL     1       8.309  27.286  56.987  1.00  0.00     0.017 A 
ENDBRANCH   1  30
TORSDOF 7
ENDMDL
MODEL 2
REMARK VINA RESULT:      -7.8      1.566      2.060
REMARK  7 active torsions:
REMARK  status: ('A' for Active; 'I' for Inactive)
REMARK    1  A    between atoms: C_4  and  C_5 
REMARK    2  A    between atoms: C_10  and  C_11 
REMARK       I    between atoms: C_11  and  N_12 
REMARK    3  A    between atoms: N_12  and  C_13 
REMARK    4  A    between atoms: C_13  and  C_14 
REMARK    5  A    between atoms: C_14  and  C_15 
REMARK    6  A    between atoms: C_15  and  N_16 
REMARK    7  A    between atoms: C_26  and  C_27 
ROOT
HETATM    1  C   UNL     1       5.969  26.635  56.115  1.00  0.00     0.125 C 
HETATM    2  N   UNL     1       5.015  27.144  55.124  1.00  0.00    -0.365 N 
HETATM    3  C   UNL     1       5.239  27.011  53.794  1.00  0.00     0.141 A 
HETATM    4  N   UNL     1       6.266  26.234  53.324  1.00  0.00    -0.238 N 
HETATM    5  N   UNL     1       6.383  26.249  51.984  1.00  0.00    -0.163 NA
HETATM    6  C   UNL     1       5.331  26.993  51.568  1.00  0.00     0.165 A 
HETATM    7  C   UNL     1       4.613  27.502  52.676  1.00  0.00     0.092 A 
HETATM    8 BR   UNL     1       3.099  28.602  52.628  1.00  0.00    -0.044 Br
HETATM    9  C   UNL     1       7.208  25.530  54.181  1.00  0.00     0.221 C 
HETATM   10  C   UNL     1       6.595  25.334  55.580  1.00  0.00     0.067 C 
HETATM   11  H   UNL     1       4.389  27.871  55.473  1.00  0.00     0.162 HD
ENDROOT
BRANCH   6  12
HETATM   12  C   UNL     1       5.069  27.143  50.132  1.00  0.00     0.273 C 
HETATM   13  N   UNL     1       4.253  26.156  49.617  1.00  0.00    -0.355 N 
HETATM   14  H   UNL     1       3.991  25.422  50.281  1.00  0.00     0.162 HD
HETATM   15  O   UNL     1       5.453  28.079  49.429  1.00  0.00    -0.266 OA
BRANCH  13  16
HETATM   16  C   UNL     1       3.898  26.050  48.224  1.00  0.00     0.124 C 
BRANCH  16  17
HETATM   17  C   UNL     1       2.559  26.705  47.888  1.00  0.00     0.047 C 
BRANCH  17  18
HETATM   18  C   UNL     1       2.602  28.144  47.369  1.00  0.00     0.236 C 
BRANCH  18  19
HETATM   19  N   UNL     1       1.466  28.498  46.446  1.00  0.00    -0.067 N 
HETATM   20  H   UNL     1       1.867  28.583  45.487  1.00  0.00     0.280 HD
HETATM   21  C   UNL     1       0.326  27.497  46.419  1.00  0.00     0.261 C 
HETATM   22  C   UNL     1      -0.764  27.972  45.452  1.00  0.00     0.195 C 
HETATM   23  O   UNL     1      -1.238  29.275  45.808  1.00  0.00    -0.388 OA
HETATM   24  C   UNL     1      -0.186  30.245  45.751  1.00  0.00     0.195 C 
HETATM   25  C   UNL     1       0.926  29.898  46.745  1.00  0.00     0.261 C 
ENDBRANCH  18  19
ENDBRANCH  17  18
ENDBRANCH  16  17
ENDBRANCH  13  16
ENDBRANCH   6  12
BRANCH   9  26
HETATM   26  C   UNL     1       7.600  24.187  53.602  1.00  0.00     0.409 C 
HETATM   27  F   UNL     1       6.522  23.459  53.228  1.00  0.00    -0.169 F 
HETATM   28  F   UNL     1       8.421  24.293  52.535  1.00  0.00    -0.169 F 
HETATM   29  F   UNL     1       8.268  23.454  54.528  1.00  0.00    -0.169 F 
ENDBRANCH   9  26
BRANCH   1  30
HETATM   30  C   UNL     1       7.024  27.627  56.552  1.00  0.00     0.005 A 
HETATM   31  S   UNL     1       6.702  29.313  56.428  1.00  0.00    -0.104 SA
HETATM   32  C   UNL     1       8.232  29.723  57.067  1.00  0.00     0.050 A 
HETATM   33  C   UNL     1       8.984  28.609  57.360  1.00  0.00     0.008 A 
HETATM   34  C   UNL     1       8.292  27.401  57.058  1.00  0.00     0.017 A 
ENDBRANCH   1  30
TORSDOF 7
ENDMDL
MODEL 3
REMARK VINA RESULT:      -7.6      7.836     11.120
REMARK  7 active torsions:
REMARK  status: ('A' for Active; 'I' for Inactive)
REMARK    1  A    between atoms: C_4  and  C_5 
REMARK    2  A    between atoms: C_10  and  C_11 
REMARK       I    between atoms: C_11  and  N_12 
REMARK    3  A    between atoms: N_12  and  C_13 
REMARK    4  A    between atoms: C_13  and  C_14 
REMARK    5  A    between atoms: C_14  and  C_15 
REMARK    6  A    between atoms: C_15  and  N_16 
REMARK    7  A    between atoms: C_26  and  C_27 
ROOT
HETATM    1  C   UNL     1       4.096  33.595  62.312  1.00  0.00     0.125 C 
HETATM    2  N   UNL     1       4.458  32.885  61.080  1.00  0.00    -0.365 N 
HETATM    3  C   UNL     1       5.753  32.661  60.748  1.00  0.00     0.141 A 
HETATM    4  N   UNL     1       6.766  32.920  61.635  1.00  0.00    -0.238 N 
HETATM    5  N   UNL     1       7.992  32.692  61.131  1.00  0.00    -0.163 NA
HETATM    6  C   UNL     1       7.756  32.178  59.902  1.00  0.00     0.165 A 
HETATM    7  C   UNL     1       6.368  32.169  59.625  1.00  0.00     0.092 A 
HETATM    8 BR   UNL     1       5.538  31.580  58.054  1.00  0.00    -0.044 Br
HETATM    9  C   UNL     1       6.558  33.477  62.963  1.00  0.00     0.221 C 
HETATM   10  C   UNL     1       5.107  33.226  63.413  1.00  0.00     0.067 C 
HETATM   11  H   UNL     1       3.732  32.885  60.362  1.00  0.00     0.162 HD
ENDROOT
BRANCH   6  12
HETATM   12  C   UNL     1       8.878  31.704  59.084  1.00  0.00     0.273 C 
HETATM   13  N   UNL     1       8.714  30.413  58.623  1.00  0.00    -0.355 N 
HETATM   14  H   UNL     1       7.873  29.938  58.959  1.00  0.00     0.162 HD
HETATM   15  O   UNL     1       9.855  32.377  58.751  1.00  0.00    -0.266 OA
BRANCH  13  16
HETATM   16  C   UNL     1       9.703  29.702  57.851  1.00  0.00     0.124 C 
BRANCH  16  17
HETATM   17  C   UNL     1       9.117  28.566  57.015  1.00  0.00     0.047 C 
BRANCH  17  18
HETATM   18  C   UNL     1       7.795  27.963  57.494  1.00  0.00     0.236 C 
BRANCH  18  19
HETATM   19  N   UNL     1       7.475  26.623  56.887  1.00  0.00    -0.067 N 
HETATM   20  H   UNL     1       6.567  26.312  57.294  1.00  0.00     0.280 HD
HETATM   21  C   UNL     1       7.365  26.615  55.373  1.00  0.00     0.261 C 
HETATM   22  C   UNL     1       7.043  25.201  54.878  1.00  0.00     0.195 C 
HETATM   23  O   UNL     1       8.028  24.262  55.323  1.00  0.00    -0.388 OA
HETATM   24  C   UNL     1       8.077  24.197  56.753  1.00  0.00     0.195 C 
HETATM   25  C   UNL     1       8.469  25.555  57.344  1.00  0.00     0.261 C 
ENDBRANCH  18  19
ENDBRANCH  17  18
ENDBRANCH  16  17
ENDBRANCH  13  16
ENDBRANCH   6  12
BRANCH   9  26
HETATM   26  C   UNL     1       7.517  32.889  63.976  1.00  0.00     0.409 C 
HETATM   27  F   UNL     1       6.991  32.864  65.222  1.00  0.00    -0.169 F 
HETATM   28  F   UNL     1       7.907  31.634  63.664  1.00  0.00    -0.169 F 
HETATM   29  F   UNL     1       8.647  33.636  64.040  1.00  0.00    -0.169 F 
ENDBRANCH   9  26
BRANCH   1  30
HETATM   30  C   UNL     1       3.949  35.093  62.164  1.00  0.00     0.005 A 
HETATM   31  S   UNL     1       3.722  36.062  63.567  1.00  0.00    -0.104 SA
HETATM   32  C   UNL     1       3.660  37.501  62.648  1.00  0.00     0.050 A 
HETATM   33  C   UNL     1       3.794  37.259  61.301  1.00  0.00     0.008 A 
HETATM   34  C   UNL     1       3.956  35.871  61.020  1.00  0.00     0.017 A 
ENDBRANCH   1  30
TORSDOF 7
ENDMDL
MODEL 4
REMARK VINA RESULT:      -7.6      7.041     10.318
REMARK  7 active torsions:
REMARK  status: ('A' for Active; 'I' for Inactive)
REMARK    1  A    between atoms: C_4  and  C_5 
REMARK    2  A    between atoms: C_10  and  C_11 
REMARK       I    between atoms: C_11  and  N_12 
REMARK    3  A    between atoms: N_12  and  C_13 
REMARK    4  A    between atoms: C_13  and  C_14 
REMARK    5  A    between atoms: C_14  and  C_15 
REMARK    6  A    between atoms: C_15  and  N_16 
REMARK    7  A    between atoms: C_26  and  C_27 
ROOT
HETATM    1  C   UNL     1       4.719  33.959  62.220  1.00  0.00     0.125 C 
HETATM    2  N   UNL     1       4.329  33.121  61.082  1.00  0.00    -0.365 N 
HETATM    3  C   UNL     1       5.254  32.468  60.336  1.00  0.00     0.141 A 
HETATM    4  N   UNL     1       6.567  32.412  60.726  1.00  0.00    -0.238 N 
HETATM    5  N   UNL     1       7.362  31.771  59.850  1.00  0.00    -0.163 NA
HETATM    6  C   UNL     1       6.510  31.316  58.901  1.00  0.00     0.165 A 
HETATM    7  C   UNL     1       5.191  31.755  59.165  1.00  0.00     0.092 A 
HETATM    8 BR   UNL     1       3.664  31.411  58.139  1.00  0.00    -0.044 Br
HETATM    9  C   UNL     1       7.085  33.060  61.921  1.00  0.00     0.221 C 
HETATM   10  C   UNL     1       5.937  33.322  62.913  1.00  0.00     0.067 C 
HETATM   11  H   UNL     1       3.408  33.332  60.696  1.00  0.00     0.162 HD
ENDROOT
BRANCH   6  12
HETATM   12  C   UNL     1       7.016  30.464  57.819  1.00  0.00     0.273 C 
HETATM   13  N   UNL     1       7.948  29.537  58.239  1.00  0.00    -0.355 N 
HETATM   14  H   UNL     1       8.209  29.604  59.226  1.00  0.00     0.162 HD
HETATM   15  O   UNL     1       6.625  30.485  56.650  1.00  0.00    -0.266 OA
BRANCH  13  16
HETATM   16  C   UNL     1       8.635  28.628  57.356  1.00  0.00     0.124 C 
BRANCH  16  17
HETATM   17  C   UNL     1       8.100  27.199  57.422  1.00  0.00     0.047 C 
BRANCH  17  18
HETATM   18  C   UNL     1       7.221  26.733  56.259  1.00  0.00     0.236 C 
BRANCH  18  19
HETATM   19  N   UNL     1       7.636  25.414  55.664  1.00  0.00    -0.067 N 
HETATM   20  H   UNL     1       8.425  25.609  55.011  1.00  0.00     0.280 HD
HETATM   21  C   UNL     1       8.076  24.367  56.671  1.00  0.00     0.261 C 
HETATM   22  C   UNL     1       8.467  23.074  55.945  1.00  0.00     0.195 C 
HETATM   23  O   UNL     1       7.387  22.588  55.141  1.00  0.00    -0.388 OA
HETATM   24  C   UNL     1       7.024  23.534  54.130  1.00  0.00     0.195 C 
HETATM   25  C   UNL     1       6.542  24.844  54.761  1.00  0.00     0.261 C 
ENDBRANCH  18  19
ENDBRANCH  17  18
ENDBRANCH  16  17
ENDBRANCH  13  16
ENDBRANCH   6  12
BRANCH   9  26
HETATM   26  C   UNL     1       8.160  32.229  62.589  1.00  0.00     0.409 C 
HETATM   27  F   UNL     1       7.802  30.930  62.704  1.00  0.00    -0.169 F 
HETATM   28  F   UNL     1       9.344  32.279  61.941  1.00  0.00    -0.169 F 
HETATM   29  F   UNL     1       8.393  32.686  63.845  1.00  0.00    -0.169 F 
ENDBRANCH   9  26
BRANCH   1  30
HETATM   30  C   UNL     1       4.962  35.415  61.886  1.00  0.00     0.005 A 
HETATM   31  S   UNL     1       4.134  36.125  60.555  1.00  0.00    -0.104 SA
HETATM   32  C   UNL     1       4.870  37.644  60.820  1.00  0.00     0.050 A 
HETATM   33  C   UNL     1       5.738  37.618  61.886  1.00  0.00     0.008 A 
HETATM   34  C   UNL     1       5.796  36.333  62.499  1.00  0.00     0.017 A 
ENDBRANCH   1  30
TORSDOF 7
ENDMDL
MODEL 5
REMARK VINA RESULT:      -7.4      6.127      8.466
REMARK  7 active torsions:
REMARK  status: ('A' for Active; 'I' for Inactive)
REMARK    1  A    between atoms: C_4  and  C_5 
REMARK    2  A    between atoms: C_10  and  C_11 
REMARK       I    between atoms: C_11  and  N_12 
REMARK    3  A    between atoms: N_12  and  C_13 
REMARK    4  A    between atoms: C_13  and  C_14 
REMARK    5  A    between atoms: C_14  and  C_15 
REMARK    6  A    between atoms: C_15  and  N_16 
REMARK    7  A    between atoms: C_26  and  C_27 
ROOT
HETATM    1  C   UNL     1       7.289  31.759  58.737  1.00  0.00     0.125 C 
HETATM    2  N   UNL     1       7.791  30.521  58.132  1.00  0.00    -0.365 N 
HETATM    3  C   UNL     1       6.948  29.536  57.735  1.00  0.00     0.141 A 
HETATM    4  N   UNL     1       5.592  29.734  57.710  1.00  0.00    -0.238 N 
HETATM    5  N   UNL     1       4.896  28.642  57.342  1.00  0.00    -0.163 NA
HETATM    6  C   UNL     1       5.848  27.733  57.029  1.00  0.00     0.165 A 
HETATM    7  C   UNL     1       7.138  28.254  57.287  1.00  0.00     0.092 A 
HETATM    8 BR   UNL     1       8.775  27.380  57.042  1.00  0.00    -0.044 Br
HETATM    9  C   UNL     1       4.944  30.968  58.129  1.00  0.00     0.221 C 
HETATM   10  C   UNL     1       5.951  32.131  58.073  1.00  0.00     0.067 C 
HETATM   11  H   UNL     1       8.768  30.313  58.341  1.00  0.00     0.162 HD
ENDROOT
BRANCH   6  12
HETATM   12  C   UNL     1       5.456  26.431  56.475  1.00  0.00     0.273 C 
HETATM   13  N   UNL     1       5.788  26.279  55.144  1.00  0.00    -0.355 N 
HETATM   14  H   UNL     1       6.202  27.105  54.704  1.00  0.00     0.162 HD
HETATM   15  O   UNL     1       4.947  25.508  57.112  1.00  0.00    -0.266 OA
BRANCH  13  16
HETATM   16  C   UNL     1       5.456  25.116  54.360  1.00  0.00     0.124 C 
BRANCH  16  17
HETATM   17  C   UNL     1       6.675  24.436  53.739  1.00  0.00     0.047 C 
BRANCH  17  18
HETATM   18  C   UNL     1       7.854  24.139  54.669  1.00  0.00     0.236 C 
BRANCH  18  19
HETATM   19  N   UNL     1       8.427  22.757  54.514  1.00  0.00    -0.067 N 
HETATM   20  H   UNL     1       9.459  22.864  54.409  1.00  0.00     0.280 HD
HETATM   21  C   UNL     1       8.143  21.812  55.667  1.00  0.00     0.261 C 
HETATM   22  C   UNL     1       8.772  20.442  55.388  1.00  0.00     0.195 C 
HETATM   23  O   UNL     1       8.295  19.897  54.153  1.00  0.00    -0.388 OA
HETATM   24  C   UNL     1       8.636  20.739  53.047  1.00  0.00     0.195 C 
HETATM   25  C   UNL     1       7.987  22.119  53.195  1.00  0.00     0.261 C 
ENDBRANCH  18  19
ENDBRANCH  17  18
ENDBRANCH  16  17
ENDBRANCH  13  16
ENDBRANCH   6  12
BRANCH   9  26
HETATM   26  C   UNL     1       3.741  31.291  57.269  1.00  0.00     0.409 C 
HETATM   27  F   UNL     1       4.038  31.278  55.949  1.00  0.00    -0.169 F 
HETATM   28  F   UNL     1       2.707  30.444  57.470  1.00  0.00    -0.169 F 
HETATM   29  F   UNL     1       3.279  32.534  57.557  1.00  0.00    -0.169 F 
ENDBRANCH   9  26
BRANCH   1  30
HETATM   30  C   UNL     1       7.178  31.731  60.246  1.00  0.00     0.005 A 
HETATM   31  S   UNL     1       5.903  32.593  61.015  1.00  0.00    -0.104 SA
HETATM   32  C   UNL     1       6.415  32.101  62.569  1.00  0.00     0.050 A 
HETATM   33  C   UNL     1       7.538  31.309  62.515  1.00  0.00     0.008 A 
HETATM   34  C   UNL     1       7.982  31.099  61.177  1.00  0.00     0.017 A 
ENDBRANCH   1  30
TORSDOF 7
ENDMDL
MODEL 6
REMARK VINA RESULT:      -7.4      6.775     10.149
REMARK  7 active torsions:
REMARK  status: ('A' for Active; 'I' for Inactive)
REMARK    1  A    between atoms: C_4  and  C_5 
REMARK    2  A    between atoms: C_10  and  C_11 
REMARK       I    between atoms: C_11  and  N_12 
REMARK    3  A    between atoms: N_12  and  C_13 
REMARK    4  A    between atoms: C_13  and  C_14 
REMARK    5  A    between atoms: C_14  and  C_15 
REMARK    6  A    between atoms: C_15  and  N_16 
REMARK    7  A    between atoms: C_26  and  C_27 
ROOT
HETATM    1  C   UNL     1       7.894  28.484  55.590  1.00  0.00     0.125 C 
HETATM    2  N   UNL     1       6.741  29.356  55.343  1.00  0.00    -0.365 N 
HETATM    3  C   UNL     1       6.189  30.095  56.336  1.00  0.00     0.141 A 
HETATM    4  N   UNL     1       6.798  30.203  57.560  1.00  0.00    -0.238 N 
HETATM    5  N   UNL     1       6.095  30.930  58.448  1.00  0.00    -0.163 NA
HETATM    6  C   UNL     1       5.035  31.384  57.739  1.00  0.00     0.165 A 
HETATM    7  C   UNL     1       5.054  30.860  56.425  1.00  0.00     0.092 A 
HETATM    8 BR   UNL     1       3.797  31.169  55.072  1.00  0.00    -0.044 Br
HETATM    9  C   UNL     1       8.037  29.526  57.911  1.00  0.00     0.221 C 
HETATM   10  C   UNL     1       8.809  29.153  56.632  1.00  0.00     0.067 C 
HETATM   11  H   UNL     1       6.196  29.113  54.514  1.00  0.00     0.162 HD
ENDROOT
BRANCH   6  12
HETATM   12  C   UNL     1       4.088  32.315  58.364  1.00  0.00     0.273 C 
HETATM   13  N   UNL     1       4.333  33.638  58.053  1.00  0.00    -0.355 N 
HETATM   14  H   UNL     1       5.168  33.801  57.485  1.00  0.00     0.162 HD
HETATM   15  O   UNL     1       3.113  31.993  59.045  1.00  0.00    -0.266 OA
BRANCH  13  16
HETATM   16  C   UNL     1       3.580  34.743  58.590  1.00  0.00     0.124 C 
BRANCH  16  17
HETATM   17  C   UNL     1       4.101  35.234  59.939  1.00  0.00     0.047 C 
BRANCH  17  18
HETATM   18  C   UNL     1       3.270  34.878  61.174  1.00  0.00     0.236 C 
BRANCH  18  19
HETATM   19  N   UNL     1       4.085  34.402  62.347  1.00  0.00    -0.067 N 
HETATM   20  H   UNL     1       4.997  34.906  62.310  1.00  0.00     0.280 HD
HETATM   21  C   UNL     1       3.448  34.631  63.705  1.00  0.00     0.261 C 
HETATM   22  C   UNL     1       4.368  34.101  64.811  1.00  0.00     0.195 C 
HETATM   23  O   UNL     1       4.665  32.714  64.615  1.00  0.00    -0.388 OA
HETATM   24  C   UNL     1       5.347  32.499  63.374  1.00  0.00     0.195 C 
HETATM   25  C   UNL     1       4.471  32.930  62.192  1.00  0.00     0.261 C 
ENDBRANCH  18  19
ENDBRANCH  17  18
ENDBRANCH  16  17
ENDBRANCH  13  16
ENDBRANCH   6  12
BRANCH   9  26
HETATM   26  C   UNL     1       8.911  30.381  58.804  1.00  0.00     0.409 C 
HETATM   27  F   UNL     1      10.226  30.110  58.642  1.00  0.00    -0.169 F 
HETATM   28  F   UNL     1       8.732  31.706  58.605  1.00  0.00    -0.169 F 
HETATM   29  F   UNL     1       8.618  30.148  60.108  1.00  0.00    -0.169 F 
ENDBRANCH   9  26
BRANCH   1  30
HETATM   30  C   UNL     1       7.549  27.063  55.975  1.00  0.00     0.005 A 
HETATM   31  S   UNL     1       6.324  26.225  55.105  1.00  0.00    -0.104 SA
HETATM   32  C   UNL     1       6.520  24.816  56.050  1.00  0.00     0.050 A 
HETATM   33  C   UNL     1       7.484  24.973  57.018  1.00  0.00     0.008 A 
HETATM   34  C   UNL     1       8.074  26.270  56.979  1.00  0.00     0.017 A 
ENDBRANCH   1  30
TORSDOF 7
ENDMDL
MODEL 7
REMARK VINA RESULT:      -7.3      1.599      2.175
REMARK  7 active torsions:
REMARK  status: ('A' for Active; 'I' for Inactive)
REMARK    1  A    between atoms: C_4  and  C_5 
REMARK    2  A    between atoms: C_10  and  C_11 
REMARK       I    between atoms: C_11  and  N_12 
REMARK    3  A    between atoms: N_12  and  C_13 
REMARK    4  A    between atoms: C_13  and  C_14 
REMARK    5  A    between atoms: C_14  and  C_15 
REMARK    6  A    between atoms: C_15  and  N_16 
REMARK    7  A    between atoms: C_26  and  C_27 
ROOT
HETATM    1  C   UNL     1       5.942  26.588  56.009  1.00  0.00     0.125 C 
HETATM    2  N   UNL     1       5.002  27.115  55.014  1.00  0.00    -0.365 N 
HETATM    3  C   UNL     1       5.195  26.921  53.687  1.00  0.00     0.141 A 
HETATM    4  N   UNL     1       6.167  26.068  53.231  1.00  0.00    -0.238 N 
HETATM    5  N   UNL     1       6.261  26.028  51.890  1.00  0.00    -0.163 NA
HETATM    6  C   UNL     1       5.248  26.816  51.462  1.00  0.00     0.165 A 
HETATM    7  C   UNL     1       4.580  27.407  52.561  1.00  0.00     0.092 A 
HETATM    8 BR   UNL     1       3.131  28.591  52.495  1.00  0.00    -0.044 Br
HETATM    9  C   UNL     1       7.081  25.342  54.100  1.00  0.00     0.221 C 
HETATM   10  C   UNL     1       6.482  25.233  55.514  1.00  0.00     0.067 C 
HETATM   11  H   UNL     1       4.425  27.890  55.345  1.00  0.00     0.162 HD
ENDROOT
BRANCH   6  12
HETATM   12  C   UNL     1       4.970  26.929  50.026  1.00  0.00     0.273 C 
HETATM   13  N   UNL     1       5.564  28.027  49.437  1.00  0.00    -0.355 N 
HETATM   14  H   UNL     1       6.062  28.647  50.081  1.00  0.00     0.162 HD
HETATM   15  O   UNL     1       4.339  26.112  49.353  1.00  0.00    -0.266 OA
BRANCH  13  16
HETATM   16  C   UNL     1       5.393  28.389  48.052  1.00  0.00     0.124 C 
BRANCH  16  17
HETATM   17  C   UNL     1       4.715  29.744  47.858  1.00  0.00     0.047 C 
BRANCH  17  18
HETATM   18  C   UNL     1       3.894  30.283  49.032  1.00  0.00     0.236 C 
BRANCH  18  19
HETATM   19  N   UNL     1       4.309  31.655  49.493  1.00  0.00    -0.067 N 
HETATM   20  H   UNL     1       3.647  32.335  49.060  1.00  0.00     0.280 HD
HETATM   21  C   UNL     1       4.308  31.852  50.997  1.00  0.00     0.261 C 
HETATM   22  C   UNL     1       4.751  33.280  51.338  1.00  0.00     0.195 C 
HETATM   23  O   UNL     1       6.041  33.565  50.787  1.00  0.00    -0.388 OA
HETATM   24  C   UNL     1       6.029  33.467  49.358  1.00  0.00     0.195 C 
HETATM   25  C   UNL     1       5.670  32.046  48.914  1.00  0.00     0.261 C 
ENDBRANCH  18  19
ENDBRANCH  17  18
ENDBRANCH  16  17
ENDBRANCH  13  16
ENDBRANCH   6  12
BRANCH   9  26
HETATM   26  C   UNL     1       7.384  23.958  53.566  1.00  0.00     0.409 C 
HETATM   27  F   UNL     1       6.320  23.411  52.933  1.00  0.00    -0.169 F 
HETATM   28  F   UNL     1       8.430  23.941  52.710  1.00  0.00    -0.169 F 
HETATM   29  F   UNL     1       7.709  23.123  54.584  1.00  0.00    -0.169 F 
ENDBRANCH   9  26
BRANCH   1  30
HETATM   30  C   UNL     1       7.060  27.532  56.393  1.00  0.00     0.005 A 
HETATM   31  S   UNL     1       6.910  29.208  56.038  1.00  0.00    -0.104 SA
HETATM   32  C   UNL     1       8.431  29.562  56.728  1.00  0.00     0.050 A 
HETATM   33  C   UNL     1       9.055  28.434  57.209  1.00  0.00     0.008 A 
HETATM   34  C   UNL     1       8.268  27.262  57.012  1.00  0.00     0.017 A 
ENDBRANCH   1  30
TORSDOF 7
ENDMDL
MODEL 8
REMARK VINA RESULT:      -7.2      2.289      3.443
REMARK  7 active torsions:
REMARK  status: ('A' for Active; 'I' for Inactive)
REMARK    1  A    between atoms: C_4  and  C_5 
REMARK    2  A    between atoms: C_10  and  C_11 
REMARK       I    between atoms: C_11  and  N_12 
REMARK    3  A    between atoms: N_12  and  C_13 
REMARK    4  A    between atoms: C_13  and  C_14 
REMARK    5  A    between atoms: C_14  and  C_15 
REMARK    6  A    between atoms: C_15  and  N_16 
REMARK    7  A    between atoms: C_26  and  C_27 
ROOT
HETATM    1  C   UNL     1       7.457  28.601  57.860  1.00  0.00     0.125 C 
HETATM    2  N   UNL     1       6.314  29.245  57.204  1.00  0.00    -0.365 N 
HETATM    3  C   UNL     1       5.980  28.955  55.923  1.00  0.00     0.141 A 
HETATM    4  N   UNL     1       6.576  27.917  55.254  1.00  0.00    -0.238 N 
HETATM    5  N   UNL     1       6.169  27.796  53.977  1.00  0.00    -0.163 NA
HETATM    6  C   UNL     1       5.205  28.737  53.845  1.00  0.00     0.165 A 
HETATM    7  C   UNL     1       5.082  29.492  55.036  1.00  0.00     0.092 A 
HETATM    8 BR   UNL     1       3.910  30.919  55.348  1.00  0.00    -0.044 Br
HETATM    9  C   UNL     1       7.618  27.077  55.824  1.00  0.00     0.221 C 
HETATM   10  C   UNL     1       7.564  27.148  57.361  1.00  0.00     0.067 C 
HETATM   11  H   UNL     1       6.024  30.128  57.627  1.00  0.00     0.162 HD
ENDROOT
BRANCH   6  12
HETATM   12  C   UNL     1       4.447  28.831  52.593  1.00  0.00     0.273 C 
HETATM   13  N   UNL     1       5.184  29.335  51.541  1.00  0.00    -0.355 N 
HETATM   14  H   UNL     1       6.133  29.633  51.782  1.00  0.00     0.162 HD
HETATM   15  O   UNL     1       3.290  28.441  52.427  1.00  0.00    -0.266 OA
BRANCH  13  16
HETATM   16  C   UNL     1       4.648  29.578  50.225  1.00  0.00     0.124 C 
BRANCH  16  17
HETATM   17  C   UNL     1       5.495  28.979  49.104  1.00  0.00     0.047 C 
BRANCH  17  18
HETATM   18  C   UNL     1       4.924  29.055  47.687  1.00  0.00     0.236 C 
BRANCH  18  19
HETATM   19  N   UNL     1       4.046  27.891  47.314  1.00  0.00    -0.067 N 
HETATM   20  H   UNL     1       4.197  27.707  46.299  1.00  0.00     0.280 HD
HETATM   21  C   UNL     1       4.309  26.615  48.092  1.00  0.00     0.261 C 
HETATM   22  C   UNL     1       3.352  25.512  47.626  1.00  0.00     0.195 C 
HETATM   23  O   UNL     1       1.987  25.921  47.764  1.00  0.00    -0.388 OA
HETATM   24  C   UNL     1       1.706  27.074  46.963  1.00  0.00     0.195 C 
HETATM   25  C   UNL     1       2.565  28.263  47.404  1.00  0.00     0.261 C 
ENDBRANCH  18  19
ENDBRANCH  17  18
ENDBRANCH  16  17
ENDBRANCH  13  16
ENDBRANCH   6  12
BRANCH   9  26
HETATM   26  C   UNL     1       7.488  25.637  55.374  1.00  0.00     0.409 C 
HETATM   27  F   UNL     1       7.881  25.466  54.091  1.00  0.00    -0.169 F 
HETATM   28  F   UNL     1       8.193  24.779  56.143  1.00  0.00    -0.169 F 
HETATM   29  F   UNL     1       6.193  25.238  55.446  1.00  0.00    -0.169 F 
ENDBRANCH   9  26
BRANCH   1  30
HETATM   30  C   UNL     1       8.770  29.340  57.723  1.00  0.00     0.005 A 
HETATM   31  S   UNL     1       8.981  30.844  58.529  1.00  0.00    -0.104 SA
HETATM   32  C   UNL     1      10.576  31.015  57.941  1.00  0.00     0.050 A 
HETATM   33  C   UNL     1      10.944  29.962  57.137  1.00  0.00     0.008 A 
HETATM   34  C   UNL     1       9.903  28.998  57.006  1.00  0.00     0.017 A 
ENDBRANCH   1  30
TORSDOF 7
ENDMDL
MODEL 9
REMARK VINA RESULT:      -7.0      7.102      9.930
REMARK  7 active torsions:
REMARK  status: ('A' for Active; 'I' for Inactive)
REMARK    1  A    between atoms: C_4  and  C_5 
REMARK    2  A    between atoms: C_10  and  C_11 
REMARK       I    between atoms: C_11  and  N_12 
REMARK    3  A    between atoms: N_12  and  C_13 
REMARK    4  A    between atoms: C_13  and  C_14 
REMARK    5  A    between atoms: C_14  and  C_15 
REMARK    6  A    between atoms: C_15  and  N_16 
REMARK    7  A    between atoms: C_26  and  C_27 
ROOT
HETATM    1  C   UNL     1       4.659  34.098  62.386  1.00  0.00     0.125 C 
HETATM    2  N   UNL     1       4.249  33.278  61.242  1.00  0.00    -0.365 N 
HETATM    3  C   UNL     1       5.160  32.642  60.465  1.00  0.00     0.141 A 
HETATM    4  N   UNL     1       6.481  32.586  60.826  1.00  0.00    -0.238 N 
HETATM    5  N   UNL     1       7.260  31.964  59.922  1.00  0.00    -0.163 NA
HETATM    6  C   UNL     1       6.390  31.521  58.985  1.00  0.00     0.165 A 
HETATM    7  C   UNL     1       5.075  31.950  59.284  1.00  0.00     0.092 A 
HETATM    8 BR   UNL     1       3.528  31.617  58.284  1.00  0.00    -0.044 Br
HETATM    9  C   UNL     1       7.022  33.216  62.021  1.00  0.00     0.221 C 
HETATM   10  C   UNL     1       5.894  33.455  63.042  1.00  0.00     0.067 C 
HETATM   11  H   UNL     1       3.318  33.492  60.879  1.00  0.00     0.162 HD
ENDROOT
BRANCH   6  12
HETATM   12  C   UNL     1       6.876  30.691  57.877  1.00  0.00     0.273 C 
HETATM   13  N   UNL     1       7.814  29.754  58.263  1.00  0.00    -0.355 N 
HETATM   14  H   UNL     1       8.092  29.801  59.247  1.00  0.00     0.162 HD
HETATM   15  O   UNL     1       6.466  30.736  56.716  1.00  0.00    -0.266 OA
BRANCH  13  16
HETATM   16  C   UNL     1       8.484  28.862  57.350  1.00  0.00     0.124 C 
BRANCH  16  17
HETATM   17  C   UNL     1       8.220  27.386  57.641  1.00  0.00     0.047 C 
BRANCH  17  18
HETATM   18  C   UNL     1       7.218  26.669  56.734  1.00  0.00     0.236 C 
BRANCH  18  19
HETATM   19  N   UNL     1       6.393  27.592  55.878  1.00  0.00    -0.067 N 
HETATM   20  H   UNL     1       6.666  28.567  56.128  1.00  0.00     0.280 HD
HETATM   21  C   UNL     1       6.561  27.401  54.382  1.00  0.00     0.261 C 
HETATM   22  C   UNL     1       5.669  28.391  53.624  1.00  0.00     0.195 C 
HETATM   23  O   UNL     1       4.297  28.245  54.006  1.00  0.00    -0.388 OA
HETATM   24  C   UNL     1       4.114  28.512  55.401  1.00  0.00     0.195 C 
HETATM   25  C   UNL     1       4.912  27.518  56.252  1.00  0.00     0.261 C 
ENDBRANCH  18  19
ENDBRANCH  17  18
ENDBRANCH  16  17
ENDBRANCH  13  16
ENDBRANCH   6  12
BRANCH   9  26
HETATM   26  C   UNL     1       8.114  32.378  62.652  1.00  0.00     0.409 C 
HETATM   27  F   UNL     1       9.278  32.458  61.967  1.00  0.00    -0.169 F 
HETATM   28  F   UNL     1       8.363  32.718  63.936  1.00  0.00    -0.169 F 
HETATM   29  F   UNL     1       7.754  31.070  62.666  1.00  0.00    -0.169 F 
ENDBRANCH   9  26
BRANCH   1  30
HETATM   30  C   UNL     1       4.888  35.560  62.072  1.00  0.00     0.005 A 
HETATM   31  S   UNL     1       5.628  36.572  63.252  1.00  0.00    -0.104 SA
HETATM   32  C   UNL     1       5.550  37.938  62.230  1.00  0.00     0.050 A 
HETATM   33  C   UNL     1       4.964  37.645  61.020  1.00  0.00     0.008 A 
HETATM   34  C   UNL     1       4.577  36.276  60.930  1.00  0.00     0.017 A 
ENDBRANCH   1  30
TORSDOF 7
ENDMDL
MODEL 10
REMARK VINA RESULT:      -6.7      3.561      7.900
REMARK  7 active torsions:
REMARK  status: ('A' for Active; 'I' for Inactive)
REMARK    1  A    between atoms: C_4  and  C_5 
REMARK    2  A    between atoms: C_10  and  C_11 
REMARK       I    between atoms: C_11  and  N_12 
REMARK    3  A    between atoms: N_12  and  C_13 
REMARK    4  A    between atoms: C_13  and  C_14 
REMARK    5  A    between atoms: C_14  and  C_15 
REMARK    6  A    between atoms: C_15  and  N_16 
REMARK    7  A    between atoms: C_26  and  C_27 
ROOT
HETATM    1  C   UNL     1       4.853  28.046  49.220  1.00  0.00     0.125 C 
HETATM    2  N   UNL     1       4.839  29.388  49.812  1.00  0.00    -0.365 N 
HETATM    3  C   UNL     1       4.550  29.579  51.122  1.00  0.00     0.141 A 
HETATM    4  N   UNL     1       4.445  28.518  51.985  1.00  0.00    -0.238 N 
HETATM    5  N   UNL     1       4.103  28.875  53.236  1.00  0.00    -0.163 NA
HETATM    6  C   UNL     1       4.076  30.228  53.200  1.00  0.00     0.165 A 
HETATM    7  C   UNL     1       4.328  30.695  51.888  1.00  0.00     0.092 A 
HETATM    8 BR   UNL     1       4.374  32.477  51.317  1.00  0.00    -0.044 Br
HETATM    9  C   UNL     1       4.592  27.128  51.583  1.00  0.00     0.221 C 
HETATM   10  C   UNL     1       5.383  27.047  50.264  1.00  0.00     0.067 C 
HETATM   11  H   UNL     1       4.719  30.147  49.139  1.00  0.00     0.162 HD
ENDROOT
BRANCH   6  12
HETATM   12  C   UNL     1       3.839  30.984  54.435  1.00  0.00     0.273 C 
HETATM   13  N   UNL     1       4.986  31.533  54.972  1.00  0.00    -0.355 N 
HETATM   14  H   UNL     1       5.851  31.293  54.481  1.00  0.00     0.162 HD
HETATM   15  O   UNL     1       2.736  31.200  54.940  1.00  0.00    -0.266 OA
BRANCH  13  16
HETATM   16  C   UNL     1       5.022  32.269  56.211  1.00  0.00     0.124 C 
BRANCH  16  17
HETATM   17  C   UNL     1       5.542  31.447  57.389  1.00  0.00     0.047 C 
BRANCH  17  18
HETATM   18  C   UNL     1       4.707  30.236  57.812  1.00  0.00     0.236 C 
BRANCH  18  19
HETATM   19  N   UNL     1       5.438  28.923  57.723  1.00  0.00    -0.067 N 
HETATM   20  H   UNL     1       5.297  28.433  58.632  1.00  0.00     0.280 HD
HETATM   21  C   UNL     1       4.987  28.013  56.595  1.00  0.00     0.261 C 
HETATM   22  C   UNL     1       5.806  26.718  56.608  1.00  0.00     0.195 C 
HETATM   23  O   UNL     1       7.208  26.994  56.511  1.00  0.00    -0.388 OA
HETATM   24  C   UNL     1       7.661  27.779  57.620  1.00  0.00     0.195 C 
HETATM   25  C   UNL     1       6.951  29.136  57.650  1.00  0.00     0.261 C 
ENDBRANCH  18  19
ENDBRANCH  17  18
ENDBRANCH  16  17
ENDBRANCH  13  16
ENDBRANCH   6  12
BRANCH   9  26
HETATM   26  C   UNL     1       5.287  26.305  52.647  1.00  0.00     0.409 C 
HETATM   27  F   UNL     1       6.303  26.981  53.232  1.00  0.00    -0.169 F 
HETATM   28  F   UNL     1       4.448  25.890  53.622  1.00  0.00    -0.169 F 
HETATM   29  F   UNL     1       5.822  25.185  52.100  1.00  0.00    -0.169 F 
ENDBRANCH   9  26
BRANCH   1  30
HETATM   30  C   UNL     1       3.535  27.596  48.630  1.00  0.00     0.005 A 
HETATM   31  S   UNL     1       3.486  26.180  47.654  1.00  0.00    -0.104 SA
HETATM   32  C   UNL     1       1.802  26.325  47.406  1.00  0.00     0.050 A 
HETATM   33  C   UNL     1       1.282  27.431  48.036  1.00  0.00     0.008 A 
HETATM   34  C   UNL     1       2.280  28.167  48.738  1.00  0.00     0.017 A 
ENDBRANCH   1  30
TORSDOF 7
ENDMDL
