MODEL 1
REMARK VINA RESULT:     -10.7      0.000      0.000
REMARK  3 active torsions:
REMARK  status: ('A' for Active; 'I' for Inactive)
REMARK    1  A    between atoms: N_3  and  C_4 
REMARK    2  A    between atoms: C_6  and  C_7 
REMARK       I    between atoms: C_7  and  N_8 
REMARK    3  A    between atoms: N_8  and  C_9 
ROOT
HETATM    1  C   UNL     1       7.977  25.780  58.163  1.00  0.00     0.072 C 
HETATM    2  C   UNL     1       7.087  26.174  56.966  1.00  0.00     0.149 C 
HETATM    3  N   UNL     1       6.810  27.631  56.926  1.00  0.00    -0.267 N 
HETATM    4  C   UNL     1       5.607  28.131  56.438  1.00  0.00     0.326 C 
HETATM    5  O   UNL     1       5.319  29.320  56.319  1.00  0.00    -0.247 OA
HETATM    6  N   UNL     1       4.671  27.211  56.060  1.00  0.00    -0.334 N 
HETATM    7  O   UNL     1       7.807  25.769  55.782  1.00  0.00    -0.319 OA
HETATM    8  C   UNL     1       7.061  25.490  54.670  1.00  0.00     0.080 A 
HETATM    9  C   UNL     1       5.662  25.489  54.672  1.00  0.00    -0.002 A 
HETATM   10  C   UNL     1       7.767  25.175  53.511  1.00  0.00     0.037 A 
HETATM   11  C   UNL     1       7.077  24.873  52.337  1.00  0.00     0.003 A 
HETATM   12  C   UNL     1       5.683  24.892  52.324  1.00  0.00     0.001 A 
HETATM   13  C   UNL     1       4.975  25.203  53.486  1.00  0.00     0.012 A 
HETATM   14  C   UNL     1       5.785  25.379  57.123  1.00  0.00     0.092 C 
HETATM   15  C   UNL     1       4.935  25.802  55.949  1.00  0.00     0.127 C 
HETATM   16  H   UNL     1       3.873  27.616  55.588  1.00  0.00     0.165 HD
ENDROOT
BRANCH   3  17
HETATM   17  C   UNL     1       7.849  28.562  57.231  1.00  0.00     0.043 A 
HETATM   18  C   UNL     1       7.627  29.646  58.086  1.00  0.00     0.047 A 
HETATM   19  C   UNL     1       8.674  30.532  58.374  1.00  0.00     0.034 A 
HETATM   20  C   UNL     1       9.924  30.380  57.769  1.00  0.00     0.017 A 
HETATM   21  C   UNL     1      10.150  29.297  56.923  1.00  0.00     0.003 A 
HETATM   22  C   UNL     1       9.125  28.381  56.675  1.00  0.00     0.030 A 
BRANCH  19  23
HETATM   23  C   UNL     1       8.501  31.615  59.367  1.00  0.00     0.252 C 
HETATM   24  N   UNL     1       7.583  31.344  60.358  1.00  0.00    -0.352 N 
HETATM   25  H   UNL     1       7.082  30.464  60.338  1.00  0.00     0.163 HD
HETATM   26  O   UNL     1       9.188  32.625  59.305  1.00  0.00    -0.268 OA
BRANCH  24  27
HETATM   27  C   UNL     1       7.323  32.265  61.442  1.00  0.00     0.084 C 
HETATM   28  C   UNL     1       6.061  31.905  62.219  1.00  0.00     0.025 C 
HETATM   29  C   UNL     1       6.250  32.652  63.529  1.00  0.00     0.002 C 
HETATM   30  C   UNL     1       7.731  32.479  63.845  1.00  0.00     0.002 C 
HETATM   31  C   UNL     1       8.428  32.252  62.502  1.00  0.00     0.025 C 
ENDBRANCH  24  27
ENDBRANCH  19  23
ENDBRANCH   3  17
TORSDOF 3
ENDMDL
MODEL 2
REMARK VINA RESULT:     -10.4      4.321      7.782
REMARK  3 active torsions:
REMARK  status: ('A' for Active; 'I' for Inactive)
REMARK    1  A    between atoms: N_3  and  C_4 
REMARK    2  A    between atoms: C_6  and  C_7 
REMARK       I    between atoms: C_7  and  N_8 
REMARK    3  A    between atoms: N_8  and  C_9 
ROOT
HETATM    1  C   UNL     1       8.157  28.190  55.495  1.00  0.00     0.072 C 
HETATM    2  C   UNL     1       7.531  26.787  55.631  1.00  0.00     0.149 C 
HETATM    3  N   UNL     1       6.099  26.844  56.014  1.00  0.00    -0.267 N 
HETATM    4  C   UNL     1       5.517  25.862  56.810  1.00  0.00     0.326 C 
HETATM    5  O   UNL     1       4.331  25.805  57.127  1.00  0.00    -0.247 OA
HETATM    6  N   UNL     1       6.345  24.879  57.271  1.00  0.00    -0.334 N 
HETATM    7  O   UNL     1       7.678  26.156  54.341  1.00  0.00    -0.319 OA
HETATM    8  C   UNL     1       7.727  24.789  54.323  1.00  0.00     0.080 A 
HETATM    9  C   UNL     1       7.737  24.013  55.486  1.00  0.00    -0.002 A 
HETATM   10  C   UNL     1       7.791  24.186  53.068  1.00  0.00     0.037 A 
HETATM   11  C   UNL     1       7.848  22.796  52.968  1.00  0.00     0.003 A 
HETATM   12  C   UNL     1       7.837  22.013  54.121  1.00  0.00     0.001 A 
HETATM   13  C   UNL     1       7.777  22.616  55.379  1.00  0.00     0.012 A 
HETATM   14  C   UNL     1       8.350  26.056  56.702  1.00  0.00     0.092 C 
HETATM   15  C   UNL     1       7.700  24.700  56.822  1.00  0.00     0.127 C 
HETATM   16  H   UNL     1       5.857  24.119  57.726  1.00  0.00     0.165 HD
ENDROOT
BRANCH   3  17
HETATM   17  C   UNL     1       5.244  27.828  55.429  1.00  0.00     0.043 A 
HETATM   18  C   UNL     1       4.917  27.791  54.069  1.00  0.00     0.047 A 
HETATM   19  C   UNL     1       4.065  28.764  53.532  1.00  0.00     0.034 A 
HETATM   20  C   UNL     1       3.586  29.809  54.325  1.00  0.00     0.017 A 
HETATM   21  C   UNL     1       3.904  29.845  55.680  1.00  0.00     0.003 A 
HETATM   22  C   UNL     1       4.710  28.846  56.233  1.00  0.00     0.030 A 
BRANCH  19  23
HETATM   23  C   UNL     1       3.606  28.680  52.128  1.00  0.00     0.252 C 
HETATM   24  N   UNL     1       4.538  28.174  51.248  1.00  0.00    -0.352 N 
HETATM   25  H   UNL     1       5.455  27.921  51.595  1.00  0.00     0.163 HD
HETATM   26  O   UNL     1       2.459  28.987  51.833  1.00  0.00    -0.268 OA
BRANCH  24  27
HETATM   27  C   UNL     1       4.246  27.971  49.846  1.00  0.00     0.084 C 
HETATM   28  C   UNL     1       5.233  28.695  48.938  1.00  0.00     0.025 C 
HETATM   29  C   UNL     1       5.055  27.976  47.611  1.00  0.00     0.002 C 
HETATM   30  C   UNL     1       4.906  26.510  47.998  1.00  0.00     0.002 C 
HETATM   31  C   UNL     1       4.365  26.502  49.429  1.00  0.00     0.025 C 
ENDBRANCH  24  27
ENDBRANCH  19  23
ENDBRANCH   3  17
TORSDOF 3
ENDMDL
MODEL 3
REMARK VINA RESULT:     -10.4      2.124      2.866
REMARK  3 active torsions:
REMARK  status: ('A' for Active; 'I' for Inactive)
REMARK    1  A    between atoms: N_3  and  C_4 
REMARK    2  A    between atoms: C_6  and  C_7 
REMARK       I    between atoms: C_7  and  N_8 
REMARK    3  A    between atoms: N_8  and  C_9 
ROOT
HETATM    1  C   UNL     1       5.061  26.129  56.857  1.00  0.00     0.072 C 
HETATM    2  C   UNL     1       6.045  25.825  55.708  1.00  0.00     0.149 C 
HETATM    3  N   UNL     1       6.747  27.042  55.232  1.00  0.00    -0.267 N 
HETATM    4  C   UNL     1       7.121  27.194  53.900  1.00  0.00     0.326 C 
HETATM    5  O   UNL     1       7.751  28.141  53.434  1.00  0.00    -0.247 OA
HETATM    6  N   UNL     1       6.751  26.196  53.044  1.00  0.00    -0.334 N 
HETATM    7  O   UNL     1       6.995  24.874  56.235  1.00  0.00    -0.319 OA
HETATM    8  C   UNL     1       7.603  24.044  55.335  1.00  0.00     0.080 A 
HETATM    9  C   UNL     1       7.271  24.020  53.977  1.00  0.00    -0.002 A 
HETATM   10  C   UNL     1       8.575  23.182  55.842  1.00  0.00     0.037 A 
HETATM   11  C   UNL     1       9.236  22.300  54.987  1.00  0.00     0.003 A 
HETATM   12  C   UNL     1       8.927  22.286  53.627  1.00  0.00     0.001 A 
HETATM   13  C   UNL     1       7.951  23.145  53.120  1.00  0.00     0.012 A 
HETATM   14  C   UNL     1       5.208  25.206  54.582  1.00  0.00     0.092 C 
HETATM   15  C   UNL     1       6.196  24.940  53.473  1.00  0.00     0.127 C 
HETATM   16  H   UNL     1       7.160  26.281  52.122  1.00  0.00     0.165 HD
ENDROOT
BRANCH   3  17
HETATM   17  C   UNL     1       7.207  28.013  56.173  1.00  0.00     0.043 A 
HETATM   18  C   UNL     1       6.442  29.142  56.485  1.00  0.00     0.047 A 
HETATM   19  C   UNL     1       6.919  30.067  57.423  1.00  0.00     0.034 A 
HETATM   20  C   UNL     1       8.178  29.907  58.007  1.00  0.00     0.017 A 
HETATM   21  C   UNL     1       8.938  28.781  57.703  1.00  0.00     0.003 A 
HETATM   22  C   UNL     1       8.444  27.828  56.809  1.00  0.00     0.030 A 
BRANCH  19  23
HETATM   23  C   UNL     1       6.080  31.204  57.862  1.00  0.00     0.252 C 
HETATM   24  N   UNL     1       6.146  31.482  59.209  1.00  0.00    -0.352 N 
HETATM   25  H   UNL     1       6.725  30.900  59.803  1.00  0.00     0.163 HD
HETATM   26  O   UNL     1       5.444  31.855  57.042  1.00  0.00    -0.268 OA
BRANCH  24  27
HETATM   27  C   UNL     1       5.435  32.591  59.806  1.00  0.00     0.084 C 
HETATM   28  C   UNL     1       3.996  32.233  60.161  1.00  0.00     0.025 C 
HETATM   29  C   UNL     1       3.623  33.308  61.167  1.00  0.00     0.002 C 
HETATM   30  C   UNL     1       4.876  33.473  62.018  1.00  0.00     0.002 C 
HETATM   31  C   UNL     1       6.047  33.033  61.138  1.00  0.00     0.025 C 
ENDBRANCH  24  27
ENDBRANCH  19  23
ENDBRANCH   3  17
TORSDOF 3
ENDMDL
MODEL 4
REMARK VINA RESULT:     -10.2      2.279      3.502
REMARK  3 active torsions:
REMARK  status: ('A' for Active; 'I' for Inactive)
REMARK    1  A    between atoms: N_3  and  C_4 
REMARK    2  A    between atoms: C_6  and  C_7 
REMARK       I    between atoms: C_7  and  N_8 
REMARK    3  A    between atoms: N_8  and  C_9 
ROOT
HETATM    1  C   UNL     1       8.248  28.381  56.298  1.00  0.00     0.072 C 
HETATM    2  C   UNL     1       7.613  26.989  56.101  1.00  0.00     0.149 C 
HETATM    3  N   UNL     1       6.192  26.953  56.527  1.00  0.00    -0.267 N 
HETATM    4  C   UNL     1       5.623  25.805  57.072  1.00  0.00     0.326 C 
HETATM    5  O   UNL     1       4.446  25.673  57.399  1.00  0.00    -0.247 OA
HETATM    6  N   UNL     1       6.455  24.738  57.252  1.00  0.00    -0.334 N 
HETATM    7  O   UNL     1       7.719  26.696  54.691  1.00  0.00    -0.319 OA
HETATM    8  C   UNL     1       7.755  25.376  54.335  1.00  0.00     0.080 A 
HETATM    9  C   UNL     1       7.790  24.336  55.270  1.00  0.00    -0.002 A 
HETATM   10  C   UNL     1       7.780  25.101  52.969  1.00  0.00     0.037 A 
HETATM   11  C   UNL     1       7.823  23.779  52.527  1.00  0.00     0.003 A 
HETATM   12  C   UNL     1       7.835  22.735  53.451  1.00  0.00     0.001 A 
HETATM   13  C   UNL     1       7.815  23.010  54.820  1.00  0.00     0.012 A 
HETATM   14  C   UNL     1       8.454  26.015  56.935  1.00  0.00     0.092 C 
HETATM   15  C   UNL     1       7.795  24.672  56.734  1.00  0.00     0.127 C 
HETATM   16  H   UNL     1       5.973  23.889  57.520  1.00  0.00     0.165 HD
ENDROOT
BRANCH   3  17
HETATM   17  C   UNL     1       5.331  28.052  56.227  1.00  0.00     0.043 A 
HETATM   18  C   UNL     1       5.064  29.047  57.173  1.00  0.00     0.047 A 
HETATM   19  C   UNL     1       4.225  30.118  56.839  1.00  0.00     0.034 A 
HETATM   20  C   UNL     1       3.600  30.172  55.591  1.00  0.00     0.017 A 
HETATM   21  C   UNL     1       3.869  29.187  54.645  1.00  0.00     0.003 A 
HETATM   22  C   UNL     1       4.748  28.146  54.954  1.00  0.00     0.030 A 
BRANCH  19  23
HETATM   23  C   UNL     1       4.022  31.244  57.777  1.00  0.00     0.252 C 
HETATM   24  N   UNL     1       4.916  31.288  58.825  1.00  0.00    -0.352 N 
HETATM   25  H   UNL     1       5.617  30.561  58.903  1.00  0.00     0.163 HD
HETATM   26  O   UNL     1       3.157  32.081  57.559  1.00  0.00    -0.268 OA
BRANCH  24  27
HETATM   27  C   UNL     1       4.902  32.348  59.808  1.00  0.00     0.084 C 
HETATM   28  C   UNL     1       3.956  32.051  60.967  1.00  0.00     0.025 C 
HETATM   29  C   UNL     1       4.452  32.993  62.052  1.00  0.00     0.002 C 
HETATM   30  C   UNL     1       5.970  32.937  61.929  1.00  0.00     0.002 C 
HETATM   31  C   UNL     1       6.264  32.543  60.481  1.00  0.00     0.025 C 
ENDBRANCH  24  27
ENDBRANCH  19  23
ENDBRANCH   3  17
TORSDOF 3
ENDMDL
MODEL 5
REMARK VINA RESULT:      -9.6      4.634      7.212
REMARK  3 active torsions:
REMARK  status: ('A' for Active; 'I' for Inactive)
REMARK    1  A    between atoms: N_3  and  C_4 
REMARK    2  A    between atoms: C_6  and  C_7 
REMARK       I    between atoms: C_7  and  N_8 
REMARK    3  A    between atoms: N_8  and  C_9 
ROOT
HETATM    1  C   UNL     1       5.830  30.213  50.081  1.00  0.00     0.072 C 
HETATM    2  C   UNL     1       5.022  28.967  49.662  1.00  0.00     0.149 C 
HETATM    3  N   UNL     1       5.103  27.880  50.668  1.00  0.00    -0.267 N 
HETATM    4  C   UNL     1       5.071  26.539  50.296  1.00  0.00     0.326 C 
HETATM    5  O   UNL     1       5.078  25.580  51.065  1.00  0.00    -0.247 OA
HETATM    6  N   UNL     1       5.025  26.278  48.956  1.00  0.00    -0.334 N 
HETATM    7  O   UNL     1       3.656  29.409  49.513  1.00  0.00    -0.319 OA
HETATM    8  C   UNL     1       2.866  28.697  48.652  1.00  0.00     0.080 A 
HETATM    9  C   UNL     1       3.353  27.650  47.863  1.00  0.00    -0.002 A 
HETATM   10  C   UNL     1       1.529  29.082  48.572  1.00  0.00     0.037 A 
HETATM   11  C   UNL     1       0.662  28.408  47.712  1.00  0.00     0.003 A 
HETATM   12  C   UNL     1       1.134  27.348  46.939  1.00  0.00     0.001 A 
HETATM   13  C   UNL     1       2.474  26.964  47.015  1.00  0.00     0.012 A 
HETATM   14  C   UNL     1       5.607  28.510  48.320  1.00  0.00     0.092 C 
HETATM   15  C   UNL     1       4.808  27.284  47.953  1.00  0.00     0.127 C 
HETATM   16  H   UNL     1       4.865  25.303  48.739  1.00  0.00     0.165 HD
ENDROOT
BRANCH   3  17
HETATM   17  C   UNL     1       5.045  28.191  52.060  1.00  0.00     0.043 A 
HETATM   18  C   UNL     1       6.098  27.871  52.923  1.00  0.00     0.047 A 
HETATM   19  C   UNL     1       6.012  28.204  54.281  1.00  0.00     0.034 A 
HETATM   20  C   UNL     1       4.859  28.799  54.798  1.00  0.00     0.017 A 
HETATM   21  C   UNL     1       3.811  29.126  53.940  1.00  0.00     0.003 A 
HETATM   22  C   UNL     1       3.915  28.845  52.576  1.00  0.00     0.030 A 
BRANCH  19  23
HETATM   23  C   UNL     1       7.158  27.985  55.190  1.00  0.00     0.252 C 
HETATM   24  N   UNL     1       7.793  29.137  55.602  1.00  0.00    -0.352 N 
HETATM   25  H   UNL     1       7.465  30.030  55.254  1.00  0.00     0.163 HD
HETATM   26  O   UNL     1       7.441  26.856  55.568  1.00  0.00    -0.268 OA
BRANCH  24  27
HETATM   27  C   UNL     1       8.899  29.119  56.533  1.00  0.00     0.084 C 
HETATM   28  C   UNL     1      10.173  29.702  55.931  1.00  0.00     0.025 C 
HETATM   29  C   UNL     1      11.004  30.029  57.161  1.00  0.00     0.002 C 
HETATM   30  C   UNL     1       9.993  30.586  58.157  1.00  0.00     0.002 C 
HETATM   31  C   UNL     1       8.641  29.985  57.769  1.00  0.00     0.025 C 
ENDBRANCH  24  27
ENDBRANCH  19  23
ENDBRANCH   3  17
TORSDOF 3
ENDMDL
MODEL 6
REMARK VINA RESULT:      -9.4      3.594      4.720
REMARK  3 active torsions:
REMARK  status: ('A' for Active; 'I' for Inactive)
REMARK    1  A    between atoms: N_3  and  C_4 
REMARK    2  A    between atoms: C_6  and  C_7 
REMARK       I    between atoms: C_7  and  N_8 
REMARK    3  A    between atoms: N_8  and  C_9 
ROOT
HETATM    1  C   UNL     1       8.173  28.351  55.984  1.00  0.00     0.072 C 
HETATM    2  C   UNL     1       7.576  26.929  55.927  1.00  0.00     0.149 C 
HETATM    3  N   UNL     1       6.149  26.901  56.334  1.00  0.00    -0.267 N 
HETATM    4  C   UNL     1       5.600  25.803  56.989  1.00  0.00     0.326 C 
HETATM    5  O   UNL     1       4.421  25.675  57.312  1.00  0.00    -0.247 OA
HETATM    6  N   UNL     1       6.455  24.782  57.292  1.00  0.00    -0.334 N 
HETATM    7  O   UNL     1       7.713  26.493  54.557  1.00  0.00    -0.319 OA
HETATM    8  C   UNL     1       7.787  25.144  54.343  1.00  0.00     0.080 A 
HETATM    9  C   UNL     1       7.832  24.210  55.382  1.00  0.00    -0.002 A 
HETATM   10  C   UNL     1       7.841  24.728  53.014  1.00  0.00     0.037 A 
HETATM   11  C   UNL     1       7.924  23.368  52.714  1.00  0.00     0.003 A 
HETATM   12  C   UNL     1       7.947  22.429  53.744  1.00  0.00     0.001 A 
HETATM   13  C   UNL     1       7.897  22.845  55.075  1.00  0.00     0.012 A 
HETATM   14  C   UNL     1       8.427  26.071  56.870  1.00  0.00     0.092 C 
HETATM   15  C   UNL     1       7.805  24.698  56.803  1.00  0.00     0.127 C 
HETATM   16  H   UNL     1       5.989  23.954  57.641  1.00  0.00     0.165 HD
ENDROOT
BRANCH   3  17
HETATM   17  C   UNL     1       5.266  27.939  55.908  1.00  0.00     0.043 A 
HETATM   18  C   UNL     1       4.862  28.955  56.781  1.00  0.00     0.047 A 
HETATM   19  C   UNL     1       4.005  29.964  56.324  1.00  0.00     0.034 A 
HETATM   20  C   UNL     1       3.500  29.937  55.022  1.00  0.00     0.017 A 
HETATM   21  C   UNL     1       3.906  28.932  54.149  1.00  0.00     0.003 A 
HETATM   22  C   UNL     1       4.803  27.952  54.583  1.00  0.00     0.030 A 
BRANCH  19  23
HETATM   23  C   UNL     1       3.658  31.114  57.189  1.00  0.00     0.252 C 
HETATM   24  N   UNL     1       3.824  32.348  56.599  1.00  0.00    -0.352 N 
HETATM   25  H   UNL     1       4.181  32.396  55.652  1.00  0.00     0.163 HD
HETATM   26  O   UNL     1       3.204  30.929  58.310  1.00  0.00    -0.268 OA
BRANCH  24  27
HETATM   27  C   UNL     1       3.485  33.580  57.276  1.00  0.00     0.084 C 
HETATM   28  C   UNL     1       4.679  34.519  57.404  1.00  0.00     0.025 C 
HETATM   29  C   UNL     1       4.020  35.862  57.669  1.00  0.00     0.002 C 
HETATM   30  C   UNL     1       2.806  35.870  56.748  1.00  0.00     0.002 C 
HETATM   31  C   UNL     1       2.445  34.403  56.510  1.00  0.00     0.025 C 
ENDBRANCH  24  27
ENDBRANCH  19  23
ENDBRANCH   3  17
TORSDOF 3
ENDMDL
MODEL 7
REMARK VINA RESULT:      -9.4      2.612      8.627
REMARK  3 active torsions:
REMARK  status: ('A' for Active; 'I' for Inactive)
REMARK    1  A    between atoms: N_3  and  C_4 
REMARK    2  A    between atoms: C_6  and  C_7 
REMARK       I    between atoms: C_7  and  N_8 
REMARK    3  A    between atoms: N_8  and  C_9 
ROOT
HETATM    1  C   UNL     1       5.021  33.686  57.415  1.00  0.00     0.072 C 
HETATM    2  C   UNL     1       4.941  33.045  58.816  1.00  0.00     0.149 C 
HETATM    3  N   UNL     1       4.099  31.824  58.829  1.00  0.00    -0.267 N 
HETATM    4  C   UNL     1       3.347  31.469  59.946  1.00  0.00     0.326 C 
HETATM    5  O   UNL     1       2.669  30.450  60.060  1.00  0.00    -0.247 OA
HETATM    6  N   UNL     1       3.376  32.334  61.002  1.00  0.00    -0.334 N 
HETATM    7  O   UNL     1       6.298  32.720  59.185  1.00  0.00    -0.319 OA
HETATM    8  C   UNL     1       6.580  32.668  60.522  1.00  0.00     0.080 A 
HETATM    9  C   UNL     1       5.648  33.005  61.510  1.00  0.00    -0.002 A 
HETATM   10  C   UNL     1       7.871  32.278  60.871  1.00  0.00     0.037 A 
HETATM   11  C   UNL     1       8.236  32.206  62.216  1.00  0.00     0.003 A 
HETATM   12  C   UNL     1       7.308  32.519  63.207  1.00  0.00     0.001 A 
HETATM   13  C   UNL     1       6.015  32.914  62.859  1.00  0.00     0.012 A 
HETATM   14  C   UNL     1       4.356  34.118  59.743  1.00  0.00     0.092 C 
HETATM   15  C   UNL     1       4.275  33.452  61.095  1.00  0.00     0.127 C 
HETATM   16  H   UNL     1       2.930  31.971  61.834  1.00  0.00     0.165 HD
ENDROOT
BRANCH   3  17
HETATM   17  C   UNL     1       4.177  30.893  57.749  1.00  0.00     0.043 A 
HETATM   18  C   UNL     1       5.173  29.913  57.703  1.00  0.00     0.047 A 
HETATM   19  C   UNL     1       5.211  29.008  56.634  1.00  0.00     0.034 A 
HETATM   20  C   UNL     1       4.301  29.111  55.580  1.00  0.00     0.017 A 
HETATM   21  C   UNL     1       3.304  30.082  55.625  1.00  0.00     0.003 A 
HETATM   22  C   UNL     1       3.228  30.952  56.716  1.00  0.00     0.030 A 
BRANCH  19  23
HETATM   23  C   UNL     1       6.178  27.888  56.622  1.00  0.00     0.252 C 
HETATM   24  N   UNL     1       6.151  27.118  55.480  1.00  0.00    -0.352 N 
HETATM   25  H   UNL     1       5.481  27.340  54.752  1.00  0.00     0.163 HD
HETATM   26  O   UNL     1       6.962  27.738  57.549  1.00  0.00    -0.268 OA
BRANCH  24  27
HETATM   27  C   UNL     1       7.061  26.014  55.270  1.00  0.00     0.084 C 
HETATM   28  C   UNL     1       6.427  24.669  55.606  1.00  0.00     0.025 C 
HETATM   29  C   UNL     1       7.327  23.684  54.878  1.00  0.00     0.002 C 
HETATM   30  C   UNL     1       7.633  24.370  53.552  1.00  0.00     0.002 C 
HETATM   31  C   UNL     1       7.483  25.870  53.805  1.00  0.00     0.025 C 
ENDBRANCH  24  27
ENDBRANCH  19  23
ENDBRANCH   3  17
TORSDOF 3
ENDMDL
MODEL 8
REMARK VINA RESULT:      -9.4      3.307      8.960
REMARK  3 active torsions:
REMARK  status: ('A' for Active; 'I' for Inactive)
REMARK    1  A    between atoms: N_3  and  C_4 
REMARK    2  A    between atoms: C_6  and  C_7 
REMARK       I    between atoms: C_7  and  N_8 
REMARK    3  A    between atoms: N_8  and  C_9 
ROOT
HETATM    1  C   UNL     1       6.233  25.659  56.569  1.00  0.00     0.072 C 
HETATM    2  C   UNL     1       6.523  27.168  56.427  1.00  0.00     0.149 C 
HETATM    3  N   UNL     1       7.355  27.472  55.236  1.00  0.00    -0.267 N 
HETATM    4  C   UNL     1       8.265  28.524  55.233  1.00  0.00     0.326 C 
HETATM    5  O   UNL     1       8.952  28.876  54.276  1.00  0.00    -0.247 OA
HETATM    6  N   UNL     1       8.399  29.220  56.400  1.00  0.00    -0.334 N 
HETATM    7  O   UNL     1       5.236  27.814  56.314  1.00  0.00    -0.319 OA
HETATM    8  C   UNL     1       5.160  29.116  56.723  1.00  0.00     0.080 A 
HETATM    9  C   UNL     1       6.230  29.790  57.320  1.00  0.00    -0.002 A 
HETATM   10  C   UNL     1       3.935  29.755  56.540  1.00  0.00     0.037 A 
HETATM   11  C   UNL     1       3.777  31.083  56.937  1.00  0.00     0.003 A 
HETATM   12  C   UNL     1       4.845  31.769  57.512  1.00  0.00     0.001 A 
HETATM   13  C   UNL     1       6.071  31.129  57.701  1.00  0.00     0.012 A 
HETATM   14  C   UNL     1       7.243  27.588  57.714  1.00  0.00     0.092 C 
HETATM   15  C   UNL     1       7.526  29.059  57.531  1.00  0.00     0.127 C 
HETATM   16  H   UNL     1       8.965  30.054  56.311  1.00  0.00     0.165 HD
ENDROOT
BRANCH   3  17
HETATM   17  C   UNL     1       7.113  26.789  54.006  1.00  0.00     0.043 A 
HETATM   18  C   UNL     1       6.318  27.355  53.003  1.00  0.00     0.047 A 
HETATM   19  C   UNL     1       6.113  26.662  51.803  1.00  0.00     0.034 A 
HETATM   20  C   UNL     1       6.644  25.384  51.618  1.00  0.00     0.017 A 
HETATM   21  C   UNL     1       7.441  24.821  52.610  1.00  0.00     0.003 A 
HETATM   22  C   UNL     1       7.694  25.530  53.787  1.00  0.00     0.030 A 
BRANCH  19  23
HETATM   23  C   UNL     1       5.378  27.288  50.682  1.00  0.00     0.252 C 
HETATM   24  N   UNL     1       4.884  26.400  49.752  1.00  0.00    -0.352 N 
HETATM   25  H   UNL     1       5.065  25.410  49.872  1.00  0.00     0.163 HD
HETATM   26  O   UNL     1       5.195  28.498  50.662  1.00  0.00    -0.268 OA
BRANCH  24  27
HETATM   27  C   UNL     1       4.095  26.828  48.618  1.00  0.00     0.084 C 
HETATM   28  C   UNL     1       3.623  25.656  47.764  1.00  0.00     0.025 C 
HETATM   29  C   UNL     1       2.471  26.258  46.978  1.00  0.00     0.002 C 
HETATM   30  C   UNL     1       1.752  27.143  47.989  1.00  0.00     0.002 C 
HETATM   31  C   UNL     1       2.799  27.530  49.034  1.00  0.00     0.025 C 
ENDBRANCH  24  27
ENDBRANCH  19  23
ENDBRANCH   3  17
TORSDOF 3
ENDMDL
MODEL 9
REMARK VINA RESULT:      -9.3      6.782      9.789
REMARK  3 active torsions:
REMARK  status: ('A' for Active; 'I' for Inactive)
REMARK    1  A    between atoms: N_3  and  C_4 
REMARK    2  A    between atoms: C_6  and  C_7 
REMARK       I    between atoms: C_7  and  N_8 
REMARK    3  A    between atoms: N_8  and  C_9 
ROOT
HETATM    1  C   UNL     1       6.128  29.491  49.552  1.00  0.00     0.072 C 
HETATM    2  C   UNL     1       4.796  28.947  48.995  1.00  0.00     0.149 C 
HETATM    3  N   UNL     1       4.531  27.554  49.433  1.00  0.00    -0.267 N 
HETATM    4  C   UNL     1       3.848  26.653  48.622  1.00  0.00     0.326 C 
HETATM    5  O   UNL     1       3.540  25.503  48.928  1.00  0.00    -0.247 OA
HETATM    6  N   UNL     1       3.492  27.096  47.381  1.00  0.00    -0.334 N 
HETATM    7  O   UNL     1       3.766  29.830  49.488  1.00  0.00    -0.319 OA
HETATM    8  C   UNL     1       2.624  29.925  48.742  1.00  0.00     0.080 A 
HETATM    9  C   UNL     1       2.467  29.289  47.506  1.00  0.00    -0.002 A 
HETATM   10  C   UNL     1       1.604  30.718  49.264  1.00  0.00     0.037 A 
HETATM   11  C   UNL     1       0.410  30.869  48.559  1.00  0.00     0.003 A 
HETATM   12  C   UNL     1       0.237  30.221  47.337  1.00  0.00     0.001 A 
HETATM   13  C   UNL     1       1.259  29.429  46.811  1.00  0.00     0.012 A 
HETATM   14  C   UNL     1       4.908  29.023  47.468  1.00  0.00     0.092 C 
HETATM   15  C   UNL     1       3.600  28.467  46.960  1.00  0.00     0.127 C 
HETATM   16  H   UNL     1       2.883  26.460  46.883  1.00  0.00     0.165 HD
ENDROOT
BRANCH   3  17
HETATM   17  C   UNL     1       4.826  27.161  50.774  1.00  0.00     0.043 A 
HETATM   18  C   UNL     1       5.813  26.210  51.053  1.00  0.00     0.047 A 
HETATM   19  C   UNL     1       6.085  25.858  52.381  1.00  0.00     0.034 A 
HETATM   20  C   UNL     1       5.339  26.401  53.430  1.00  0.00     0.017 A 
HETATM   21  C   UNL     1       4.361  27.353  53.156  1.00  0.00     0.003 A 
HETATM   22  C   UNL     1       4.123  27.748  51.837  1.00  0.00     0.030 A 
BRANCH  19  23
HETATM   23  C   UNL     1       7.203  24.947  52.712  1.00  0.00     0.252 C 
HETATM   24  N   UNL     1       6.878  23.930  53.583  1.00  0.00    -0.352 N 
HETATM   25  H   UNL     1       5.936  23.880  53.951  1.00  0.00     0.163 HD
HETATM   26  O   UNL     1       8.295  25.090  52.177  1.00  0.00    -0.268 OA
BRANCH  24  27
HETATM   27  C   UNL     1       7.831  22.916  53.976  1.00  0.00     0.084 C 
HETATM   28  C   UNL     1       7.508  22.315  55.340  1.00  0.00     0.025 C 
HETATM   29  C   UNL     1       8.286  21.010  55.322  1.00  0.00     0.002 C 
HETATM   30  C   UNL     1       8.103  20.486  53.902  1.00  0.00     0.002 C 
HETATM   31  C   UNL     1       7.831  21.712  53.029  1.00  0.00     0.025 C 
ENDBRANCH  24  27
ENDBRANCH  19  23
ENDBRANCH   3  17
TORSDOF 3
ENDMDL
MODEL 10
REMARK VINA RESULT:      -9.3      2.878      9.299
REMARK  3 active torsions:
REMARK  status: ('A' for Active; 'I' for Inactive)
REMARK    1  A    between atoms: N_3  and  C_4 
REMARK    2  A    between atoms: C_6  and  C_7 
REMARK       I    between atoms: C_7  and  N_8 
REMARK    3  A    between atoms: N_8  and  C_9 
ROOT
HETATM    1  C   UNL     1       4.833  33.516  59.137  1.00  0.00     0.072 C 
HETATM    2  C   UNL     1       4.855  33.595  60.678  1.00  0.00     0.149 C 
HETATM    3  N   UNL     1       5.628  32.485  61.287  1.00  0.00    -0.267 N 
HETATM    4  C   UNL     1       5.279  31.946  62.522  1.00  0.00     0.326 C 
HETATM    5  O   UNL     1       5.894  31.067  63.121  1.00  0.00    -0.247 OA
HETATM    6  N   UNL     1       4.154  32.447  63.111  1.00  0.00    -0.334 N 
HETATM    7  O   UNL     1       5.460  34.864  61.004  1.00  0.00    -0.319 OA
HETATM    8  C   UNL     1       5.115  35.423  62.204  1.00  0.00     0.080 A 
HETATM    9  C   UNL     1       4.151  34.870  63.052  1.00  0.00    -0.002 A 
HETATM   10  C   UNL     1       5.762  36.609  62.546  1.00  0.00     0.037 A 
HETATM   11  C   UNL     1       5.460  37.243  63.751  1.00  0.00     0.003 A 
HETATM   12  C   UNL     1       4.516  36.687  64.613  1.00  0.00     0.001 A 
HETATM   13  C   UNL     1       3.865  35.501  64.269  1.00  0.00     0.012 A 
HETATM   14  C   UNL     1       3.389  33.547  61.128  1.00  0.00     0.092 C 
HETATM   15  C   UNL     1       3.451  33.608  62.635  1.00  0.00     0.127 C 
HETATM   16  H   UNL     1       4.017  32.126  64.061  1.00  0.00     0.165 HD
ENDROOT
BRANCH   3  17
HETATM   17  C   UNL     1       6.855  32.061  60.692  1.00  0.00     0.043 A 
HETATM   18  C   UNL     1       6.888  31.023  59.755  1.00  0.00     0.047 A 
HETATM   19  C   UNL     1       8.108  30.642  59.182  1.00  0.00     0.034 A 
HETATM   20  C   UNL     1       9.303  31.247  59.579  1.00  0.00     0.017 A 
HETATM   21  C   UNL     1       9.272  32.285  60.506  1.00  0.00     0.003 A 
HETATM   22  C   UNL     1       8.052  32.705  61.041  1.00  0.00     0.030 A 
BRANCH  19  23
HETATM   23  C   UNL     1       8.157  29.631  58.102  1.00  0.00     0.252 C 
HETATM   24  N   UNL     1       7.125  28.718  58.123  1.00  0.00    -0.352 N 
HETATM   25  H   UNL     1       6.432  28.775  58.860  1.00  0.00     0.163 HD
HETATM   26  O   UNL     1       9.029  29.683  57.246  1.00  0.00    -0.268 OA
BRANCH  24  27
HETATM   27  C   UNL     1       6.981  27.692  57.114  1.00  0.00     0.084 C 
HETATM   28  C   UNL     1       7.673  26.392  57.508  1.00  0.00     0.025 C 
HETATM   29  C   UNL     1       7.007  25.371  56.600  1.00  0.00     0.002 C 
HETATM   30  C   UNL     1       5.541  25.787  56.586  1.00  0.00     0.002 C 
HETATM   31  C   UNL     1       5.521  27.284  56.894  1.00  0.00     0.025 C 
ENDBRANCH  24  27
ENDBRANCH  19  23
ENDBRANCH   3  17
TORSDOF 3
ENDMDL
