MODEL 1
REMARK VINA RESULT:      -9.5      0.000      0.000
REMARK  6 active torsions:
REMARK  status: ('A' for Active; 'I' for Inactive)
REMARK    1  A    between atoms: C_8  and  N_9 
REMARK       I    between atoms: N_9  and  C_10 
REMARK    2  A    between atoms: C_10  and  C_11 
REMARK    3  A    between atoms: C_11  and  N_12 
REMARK    4  A    between atoms: N_12  and  C_15 
REMARK    5  A    between atoms: C_15  and  C_16 
REMARK    6  A    between atoms: C_15  and  C_22 
ROOT
HETATM    1  N   UNL     1       7.731  25.412  56.139  1.00  0.00    -0.055 N 
HETATM    2  H   UNL     1       8.495  25.314  56.809  1.00  0.00     0.278 HD
HETATM    3  H   UNL     1       6.876  25.023  56.564  1.00  0.00     0.278 HD
ENDROOT
BRANCH   1   4
HETATM    4  C   UNL     1       7.461  26.874  55.874  1.00  0.00     0.336 C 
BRANCH   4   5
HETATM    5  C   UNL     1       7.909  27.752  57.041  1.00  0.00     0.248 C 
HETATM    6  N   UNL     1       8.174  29.054  56.688  1.00  0.00    -0.322 N 
HETATM    7  H   UNL     1       8.064  29.343  55.723  1.00  0.00     0.169 HD
HETATM    8  O   UNL     1       7.985  27.236  58.152  1.00  0.00    -0.271 OA
BRANCH   6   9
HETATM    9  C   UNL     1       8.593  30.073  57.533  1.00  0.00     0.085 A 
HETATM   10  C   UNL     1       9.939  30.348  57.709  1.00  0.00     0.052 A 
HETATM   11  C   UNL     1      11.176  29.747  57.153  1.00  0.00     0.072 C 
HETATM   12  N   UNL     1       9.998  31.390  58.591  1.00  0.00    -0.280 N 
HETATM   13  H   UNL     1      10.819  31.861  58.961  1.00  0.00     0.189 HD
HETATM   14  N   UNL     1       8.800  31.815  58.994  1.00  0.00    -0.177 NA
HETATM   15  C   UNL     1       7.924  31.018  58.367  1.00  0.00     0.079 A 
HETATM   16  C   UNL     1       6.482  31.239  58.638  1.00  0.00     0.075 C 
ENDBRANCH   6   9
ENDBRANCH   4   5
ENDBRANCH   1   4
BRANCH   1  17
HETATM   17  C   UNL     1       8.006  24.550  54.935  1.00  0.00     0.252 C 
BRANCH  17  18
HETATM   18  C   UNL     1       8.072  23.079  55.308  1.00  0.00    -0.023 A 
HETATM   19  C   UNL     1       7.859  22.064  54.361  1.00  0.00     0.009 A 
HETATM   20  C   UNL     1       7.886  20.721  54.741  1.00  0.00     0.001 A 
HETATM   21  C   UNL     1       8.122  20.374  56.070  1.00  0.00     0.000 A 
HETATM   22  C   UNL     1       8.340  21.368  57.020  1.00  0.00     0.001 A 
HETATM   23  C   UNL     1       8.317  22.712  56.644  1.00  0.00     0.009 A 
ENDBRANCH  17  18
BRANCH  17  24
HETATM   24  C   UNL     1       7.047  24.836  53.784  1.00  0.00    -0.023 A 
HETATM   25  C   UNL     1       5.665  24.686  54.003  1.00  0.00     0.009 A 
HETATM   26  C   UNL     1       4.744  24.945  52.986  1.00  0.00     0.001 A 
HETATM   27  C   UNL     1       5.186  25.364  51.735  1.00  0.00     0.000 A 
HETATM   28  C   UNL     1       6.548  25.530  51.501  1.00  0.00     0.001 A 
HETATM   29  C   UNL     1       7.474  25.273  52.517  1.00  0.00     0.009 A 
ENDBRANCH  17  24
ENDBRANCH   1  17
TORSDOF 6
ENDMDL
MODEL 2
REMARK VINA RESULT:      -9.4      1.653      2.365
REMARK  6 active torsions:
REMARK  status: ('A' for Active; 'I' for Inactive)
REMARK    1  A    between atoms: C_8  and  N_9 
REMARK       I    between atoms: N_9  and  C_10 
REMARK    2  A    between atoms: C_10  and  C_11 
REMARK    3  A    between atoms: C_11  and  N_12 
REMARK    4  A    between atoms: N_12  and  C_15 
REMARK    5  A    between atoms: C_15  and  C_16 
REMARK    6  A    between atoms: C_15  and  C_22 
ROOT
HETATM    1  N   UNL     1       7.682  24.225  56.029  1.00  0.00    -0.055 N 
HETATM    2  H   UNL     1       7.508  23.337  56.501  1.00  0.00     0.278 HD
HETATM    3  H   UNL     1       6.790  24.741  55.970  1.00  0.00     0.278 HD
ENDROOT
BRANCH   1   4
HETATM    4  C   UNL     1       8.622  25.073  56.850  1.00  0.00     0.336 C 
BRANCH   4   5
HETATM    5  C   UNL     1       7.957  26.368  57.314  1.00  0.00     0.248 C 
HETATM    6  N   UNL     1       7.817  27.308  56.321  1.00  0.00    -0.322 N 
HETATM    7  H   UNL     1       8.148  27.101  55.385  1.00  0.00     0.169 HD
HETATM    8  O   UNL     1       7.612  26.448  58.489  1.00  0.00    -0.271 OA
BRANCH   6   9
HETATM    9  C   UNL     1       7.250  28.569  56.446  1.00  0.00     0.085 A 
HETATM   10  C   UNL     1       6.331  29.036  55.521  1.00  0.00     0.052 A 
HETATM   11  C   UNL     1       5.746  28.449  54.291  1.00  0.00     0.072 C 
HETATM   12  N   UNL     1       5.982  30.290  55.937  1.00  0.00    -0.280 N 
HETATM   13  H   UNL     1       5.333  30.942  55.506  1.00  0.00     0.189 HD
HETATM   14  N   UNL     1       6.595  30.669  57.059  1.00  0.00    -0.177 NA
HETATM   15  C   UNL     1       7.383  29.636  57.385  1.00  0.00     0.079 A 
HETATM   16  C   UNL     1       8.223  29.773  58.601  1.00  0.00     0.075 C 
ENDBRANCH   6   9
ENDBRANCH   4   5
ENDBRANCH   1   4
BRANCH   1  17
HETATM   17  C   UNL     1       8.087  23.962  54.602  1.00  0.00     0.252 C 
BRANCH  17  18
HETATM   18  C   UNL     1       8.365  22.488  54.365  1.00  0.00    -0.023 A 
HETATM   19  C   UNL     1       8.153  21.885  53.114  1.00  0.00     0.009 A 
HETATM   20  C   UNL     1       8.379  20.518  52.937  1.00  0.00     0.001 A 
HETATM   21  C   UNL     1       8.815  19.737  54.005  1.00  0.00     0.000 A 
HETATM   22  C   UNL     1       9.034  20.320  55.250  1.00  0.00     0.001 A 
HETATM   23  C   UNL     1       8.813  21.686  55.432  1.00  0.00     0.009 A 
ENDBRANCH  17  18
BRANCH  17  24
HETATM   24  C   UNL     1       7.103  24.557  53.599  1.00  0.00    -0.023 A 
HETATM   25  C   UNL     1       5.728  24.525  53.900  1.00  0.00     0.009 A 
HETATM   26  C   UNL     1       4.787  25.065  53.022  1.00  0.00     0.001 A 
HETATM   27  C   UNL     1       5.202  25.651  51.831  1.00  0.00     0.000 A 
HETATM   28  C   UNL     1       6.557  25.705  51.519  1.00  0.00     0.001 A 
HETATM   29  C   UNL     1       7.504  25.167  52.396  1.00  0.00     0.009 A 
ENDBRANCH  17  24
ENDBRANCH   1  17
TORSDOF 6
ENDMDL
MODEL 3
REMARK VINA RESULT:      -9.2      0.484      3.737
REMARK  6 active torsions:
REMARK  status: ('A' for Active; 'I' for Inactive)
REMARK    1  A    between atoms: C_8  and  N_9 
REMARK       I    between atoms: N_9  and  C_10 
REMARK    2  A    between atoms: C_10  and  C_11 
REMARK    3  A    between atoms: C_11  and  N_12 
REMARK    4  A    between atoms: N_12  and  C_15 
REMARK    5  A    between atoms: C_15  and  C_16 
REMARK    6  A    between atoms: C_15  and  C_22 
ROOT
HETATM    1  N   UNL     1       7.773  25.179  56.201  1.00  0.00    -0.055 N 
HETATM    2  H   UNL     1       8.767  24.997  56.058  1.00  0.00     0.278 HD
HETATM    3  H   UNL     1       7.557  25.028  57.199  1.00  0.00     0.278 HD
ENDROOT
BRANCH   1   4
HETATM    4  C   UNL     1       7.463  26.626  55.902  1.00  0.00     0.336 C 
BRANCH   4   5
HETATM    5  C   UNL     1       7.926  27.547  57.030  1.00  0.00     0.248 C 
HETATM    6  N   UNL     1       8.172  28.839  56.628  1.00  0.00    -0.322 N 
HETATM    7  H   UNL     1       8.040  29.094  55.656  1.00  0.00     0.169 HD
HETATM    8  O   UNL     1       8.028  27.070  58.156  1.00  0.00    -0.271 OA
BRANCH   6   9
HETATM    9  C   UNL     1       8.599  29.890  57.428  1.00  0.00     0.085 A 
HETATM   10  C   UNL     1       9.946  30.183  57.566  1.00  0.00     0.052 A 
HETATM   11  C   UNL     1      11.177  29.576  57.003  1.00  0.00     0.072 C 
HETATM   12  N   UNL     1      10.012  31.255  58.412  1.00  0.00    -0.280 N 
HETATM   13  H   UNL     1      10.836  31.746  58.747  1.00  0.00     0.189 HD
HETATM   14  N   UNL     1       8.819  31.682  58.826  1.00  0.00    -0.177 NA
HETATM   15  C   UNL     1       7.939  30.856  58.245  1.00  0.00     0.079 A 
HETATM   16  C   UNL     1       6.500  31.072  58.541  1.00  0.00     0.075 C 
ENDBRANCH   6   9
ENDBRANCH   4   5
ENDBRANCH   1   4
BRANCH   1  17
HETATM   17  C   UNL     1       6.962  24.151  55.457  1.00  0.00     0.252 C 
BRANCH  17  18
HETATM   18  C   UNL     1       6.675  24.594  54.033  1.00  0.00    -0.023 A 
HETATM   19  C   UNL     1       7.703  24.791  53.096  1.00  0.00     0.009 A 
HETATM   20  C   UNL     1       7.411  25.238  51.806  1.00  0.00     0.001 A 
HETATM   21  C   UNL     1       6.094  25.498  51.436  1.00  0.00     0.000 A 
HETATM   22  C   UNL     1       5.063  25.304  52.351  1.00  0.00     0.001 A 
HETATM   23  C   UNL     1       5.348  24.854  53.641  1.00  0.00     0.009 A 
ENDBRANCH  17  18
BRANCH  17  24
HETATM   24  C   UNL     1       7.574  22.756  55.541  1.00  0.00    -0.023 A 
HETATM   25  C   UNL     1       8.103  22.323  56.771  1.00  0.00     0.009 A 
HETATM   26  C   UNL     1       8.664  21.051  56.905  1.00  0.00     0.001 A 
HETATM   27  C   UNL     1       8.704  20.189  55.814  1.00  0.00     0.000 A 
HETATM   28  C   UNL     1       8.176  20.593  54.591  1.00  0.00     0.001 A 
HETATM   29  C   UNL     1       7.611  21.865  54.453  1.00  0.00     0.009 A 
ENDBRANCH  17  24
ENDBRANCH   1  17
TORSDOF 6
ENDMDL
MODEL 4
REMARK VINA RESULT:      -9.1      1.425      1.693
REMARK  6 active torsions:
REMARK  status: ('A' for Active; 'I' for Inactive)
REMARK    1  A    between atoms: C_8  and  N_9 
REMARK       I    between atoms: N_9  and  C_10 
REMARK    2  A    between atoms: C_10  and  C_11 
REMARK    3  A    between atoms: C_11  and  N_12 
REMARK    4  A    between atoms: N_12  and  C_15 
REMARK    5  A    between atoms: C_15  and  C_16 
REMARK    6  A    between atoms: C_15  and  C_22 
ROOT
HETATM    1  N   UNL     1       7.462  24.877  56.415  1.00  0.00    -0.055 N 
HETATM    2  H   UNL     1       7.278  24.130  57.085  1.00  0.00     0.278 HD
HETATM    3  H   UNL     1       6.567  25.338  56.190  1.00  0.00     0.278 HD
ENDROOT
BRANCH   1   4
HETATM    4  C   UNL     1       8.347  25.928  57.042  1.00  0.00     0.336 C 
BRANCH   4   5
HETATM    5  C   UNL     1       7.842  27.340  56.749  1.00  0.00     0.248 C 
HETATM    6  N   UNL     1       7.465  28.040  57.871  1.00  0.00    -0.322 N 
HETATM    7  H   UNL     1       7.539  27.602  58.782  1.00  0.00     0.169 HD
HETATM    8  O   UNL     1       7.824  27.712  55.580  1.00  0.00    -0.271 OA
BRANCH   6   9
HETATM    9  C   UNL     1       6.973  29.337  57.912  1.00  0.00     0.085 A 
HETATM   10  C   UNL     1       7.690  30.355  58.519  1.00  0.00     0.052 A 
HETATM   11  C   UNL     1       8.999  30.396  59.214  1.00  0.00     0.072 C 
HETATM   12  N   UNL     1       6.929  31.483  58.383  1.00  0.00    -0.280 N 
HETATM   13  H   UNL     1       7.130  32.424  58.709  1.00  0.00     0.189 HD
HETATM   14  N   UNL     1       5.783  31.278  57.734  1.00  0.00    -0.177 NA
HETATM   15  C   UNL     1       5.783  29.970  57.443  1.00  0.00     0.079 A 
HETATM   16  C   UNL     1       4.602  29.430  56.725  1.00  0.00     0.075 C 
ENDBRANCH   6   9
ENDBRANCH   4   5
ENDBRANCH   1   4
BRANCH   1  17
HETATM   17  C   UNL     1       7.942  24.281  55.118  1.00  0.00     0.252 C 
BRANCH  17  18
HETATM   18  C   UNL     1       8.122  22.777  55.231  1.00  0.00    -0.023 A 
HETATM   19  C   UNL     1       7.983  21.928  54.120  1.00  0.00     0.009 A 
HETATM   20  C   UNL     1       8.115  20.545  54.262  1.00  0.00     0.001 A 
HETATM   21  C   UNL     1       8.381  19.992  55.513  1.00  0.00     0.000 A 
HETATM   22  C   UNL     1       8.526  20.820  56.623  1.00  0.00     0.001 A 
HETATM   23  C   UNL     1       8.399  22.203  56.486  1.00  0.00     0.009 A 
ENDBRANCH  17  18
BRANCH  17  24
HETATM   24  C   UNL     1       7.077  24.696  53.932  1.00  0.00    -0.023 A 
HETATM   25  C   UNL     1       5.678  24.695  54.083  1.00  0.00     0.009 A 
HETATM   26  C   UNL     1       4.842  25.077  53.032  1.00  0.00     0.001 A 
HETATM   27  C   UNL     1       5.388  25.470  51.814  1.00  0.00     0.000 A 
HETATM   28  C   UNL     1       6.769  25.489  51.648  1.00  0.00     0.001 A 
HETATM   29  C   UNL     1       7.611  25.109  52.698  1.00  0.00     0.009 A 
ENDBRANCH  17  24
ENDBRANCH   1  17
TORSDOF 6
ENDMDL
MODEL 5
REMARK VINA RESULT:      -9.0      1.682      4.253
REMARK  6 active torsions:
REMARK  status: ('A' for Active; 'I' for Inactive)
REMARK    1  A    between atoms: C_8  and  N_9 
REMARK       I    between atoms: N_9  and  C_10 
REMARK    2  A    between atoms: C_10  and  C_11 
REMARK    3  A    between atoms: C_11  and  N_12 
REMARK    4  A    between atoms: N_12  and  C_15 
REMARK    5  A    between atoms: C_15  and  C_16 
REMARK    6  A    between atoms: C_15  and  C_22 
ROOT
HETATM    1  N   UNL     1       8.599  24.531  55.733  1.00  0.00    -0.055 N 
HETATM    2  H   UNL     1       8.813  25.333  55.139  1.00  0.00     0.278 HD
HETATM    3  H   UNL     1       9.425  23.913  55.753  1.00  0.00     0.278 HD
ENDROOT
BRANCH   1   4
HETATM    4  C   UNL     1       8.360  24.986  57.152  1.00  0.00     0.336 C 
BRANCH   4   5
HETATM    5  C   UNL     1       7.418  26.188  57.209  1.00  0.00     0.248 C 
HETATM    6  N   UNL     1       8.021  27.384  56.896  1.00  0.00    -0.322 N 
HETATM    7  H   UNL     1       9.007  27.399  56.659  1.00  0.00     0.169 HD
HETATM    8  O   UNL     1       6.246  25.985  57.511  1.00  0.00    -0.271 OA
BRANCH   6   9
HETATM    9  C   UNL     1       7.417  28.633  56.861  1.00  0.00     0.085 A 
HETATM   10  C   UNL     1       6.618  29.013  55.796  1.00  0.00     0.052 A 
HETATM   11  C   UNL     1       6.210  28.330  54.544  1.00  0.00     0.072 C 
HETATM   12  N   UNL     1       6.193  30.281  56.077  1.00  0.00    -0.280 N 
HETATM   13  H   UNL     1       5.593  30.885  55.523  1.00  0.00     0.189 HD
HETATM   14  N   UNL     1       6.647  30.749  57.240  1.00  0.00    -0.177 NA
HETATM   15  C   UNL     1       7.406  29.762  57.734  1.00  0.00     0.079 A 
HETATM   16  C   UNL     1       8.077  30.002  59.036  1.00  0.00     0.075 C 
ENDBRANCH   6   9
ENDBRANCH   4   5
ENDBRANCH   1   4
BRANCH   1  17
HETATM   17  C   UNL     1       7.505  23.714  55.097  1.00  0.00     0.252 C 
BRANCH  17  18
HETATM   18  C   UNL     1       6.860  24.456  53.938  1.00  0.00    -0.023 A 
HETATM   19  C   UNL     1       5.468  24.634  53.856  1.00  0.00     0.009 A 
HETATM   20  C   UNL     1       4.900  25.285  52.759  1.00  0.00     0.001 A 
HETATM   21  C   UNL     1       5.711  25.761  51.731  1.00  0.00     0.000 A 
HETATM   22  C   UNL     1       7.092  25.596  51.799  1.00  0.00     0.001 A 
HETATM   23  C   UNL     1       7.665  24.950  52.895  1.00  0.00     0.009 A 
ENDBRANCH  17  18
BRANCH  17  24
HETATM   24  C   UNL     1       7.968  22.308  54.728  1.00  0.00    -0.023 A 
HETATM   25  C   UNL     1       8.384  21.442  55.756  1.00  0.00     0.009 A 
HETATM   26  C   UNL     1       8.807  20.142  55.473  1.00  0.00     0.001 A 
HETATM   27  C   UNL     1       8.818  19.683  54.161  1.00  0.00     0.000 A 
HETATM   28  C   UNL     1       8.400  20.519  53.130  1.00  0.00     0.001 A 
HETATM   29  C   UNL     1       7.973  21.821  53.408  1.00  0.00     0.009 A 
ENDBRANCH  17  24
ENDBRANCH   1  17
TORSDOF 6
ENDMDL
MODEL 6
REMARK VINA RESULT:      -8.9      4.184      7.345
REMARK  6 active torsions:
REMARK  status: ('A' for Active; 'I' for Inactive)
REMARK    1  A    between atoms: C_8  and  N_9 
REMARK       I    between atoms: N_9  and  C_10 
REMARK    2  A    between atoms: C_10  and  C_11 
REMARK    3  A    between atoms: C_11  and  N_12 
REMARK    4  A    between atoms: N_12  and  C_15 
REMARK    5  A    between atoms: C_15  and  C_16 
REMARK    6  A    between atoms: C_15  and  C_22 
ROOT
HETATM    1  N   UNL     1       6.596  24.278  52.877  1.00  0.00    -0.055 N 
HETATM    2  H   UNL     1       5.652  24.416  53.241  1.00  0.00     0.278 HD
HETATM    3  H   UNL     1       6.614  23.389  52.354  1.00  0.00     0.278 HD
ENDROOT
BRANCH   1   4
HETATM    4  C   UNL     1       6.936  25.370  51.891  1.00  0.00     0.336 C 
BRANCH   4   5
HETATM    5  C   UNL     1       5.689  26.123  51.431  1.00  0.00     0.248 C 
HETATM    6  N   UNL     1       5.684  26.426  50.090  1.00  0.00    -0.322 N 
HETATM    7  H   UNL     1       6.469  26.148  49.512  1.00  0.00     0.169 HD
HETATM    8  O   UNL     1       4.829  26.377  52.270  1.00  0.00    -0.271 OA
BRANCH   6   9
HETATM    9  C   UNL     1       4.688  27.098  49.395  1.00  0.00     0.085 A 
HETATM   10  C   UNL     1       4.603  28.481  49.424  1.00  0.00     0.052 A 
HETATM   11  C   UNL     1       5.408  29.530  50.095  1.00  0.00     0.072 C 
HETATM   12  N   UNL     1       3.526  28.807  48.648  1.00  0.00    -0.280 N 
HETATM   13  H   UNL     1       3.154  29.729  48.439  1.00  0.00     0.189 HD
HETATM   14  N   UNL     1       2.913  27.750  48.116  1.00  0.00    -0.177 NA
HETATM   15  C   UNL     1       3.600  26.692  48.566  1.00  0.00     0.079 A 
HETATM   16  C   UNL     1       3.132  25.346  48.151  1.00  0.00     0.075 C 
ENDBRANCH   6   9
ENDBRANCH   4   5
ENDBRANCH   1   4
BRANCH   1  17
HETATM   17  C   UNL     1       7.553  24.086  54.024  1.00  0.00     0.252 C 
BRANCH  17  18
HETATM   18  C   UNL     1       7.083  24.821  55.268  1.00  0.00    -0.023 A 
HETATM   19  C   UNL     1       5.724  25.094  55.499  1.00  0.00     0.009 A 
HETATM   20  C   UNL     1       5.326  25.806  56.632  1.00  0.00     0.001 A 
HETATM   21  C   UNL     1       6.277  26.258  57.544  1.00  0.00     0.000 A 
HETATM   22  C   UNL     1       7.627  25.992  57.332  1.00  0.00     0.001 A 
HETATM   23  C   UNL     1       8.030  25.277  56.203  1.00  0.00     0.009 A 
ENDBRANCH  17  18
BRANCH  17  24
HETATM   24  C   UNL     1       7.870  22.616  54.277  1.00  0.00    -0.023 A 
HETATM   25  C   UNL     1       8.378  21.842  53.217  1.00  0.00     0.009 A 
HETATM   26  C   UNL     1       8.695  20.494  53.398  1.00  0.00     0.001 A 
HETATM   27  C   UNL     1       8.515  19.898  54.641  1.00  0.00     0.000 A 
HETATM   28  C   UNL     1       8.025  20.648  55.706  1.00  0.00     0.001 A 
HETATM   29  C   UNL     1       7.708  21.998  55.530  1.00  0.00     0.009 A 
ENDBRANCH  17  24
ENDBRANCH   1  17
TORSDOF 6
ENDMDL
MODEL 7
REMARK VINA RESULT:      -8.9      2.371      7.541
REMARK  6 active torsions:
REMARK  status: ('A' for Active; 'I' for Inactive)
REMARK    1  A    between atoms: C_8  and  N_9 
REMARK       I    between atoms: N_9  and  C_10 
REMARK    2  A    between atoms: C_10  and  C_11 
REMARK    3  A    between atoms: C_11  and  N_12 
REMARK    4  A    between atoms: N_12  and  C_15 
REMARK    5  A    between atoms: C_15  and  C_16 
REMARK    6  A    between atoms: C_15  and  C_22 
ROOT
HETATM    1  N   UNL     1       8.463  26.624  57.156  1.00  0.00    -0.055 N 
HETATM    2  H   UNL     1       9.426  26.715  57.482  1.00  0.00     0.278 HD
HETATM    3  H   UNL     1       8.471  26.592  56.125  1.00  0.00     0.278 HD
ENDROOT
BRANCH   1   4
HETATM    4  C   UNL     1       7.877  25.316  57.630  1.00  0.00     0.336 C 
BRANCH   4   5
HETATM    5  C   UNL     1       7.353  24.478  56.464  1.00  0.00     0.248 C 
HETATM    6  N   UNL     1       8.268  23.580  55.968  1.00  0.00    -0.322 N 
HETATM    7  H   UNL     1       9.192  23.528  56.381  1.00  0.00     0.169 HD
HETATM    8  O   UNL     1       6.199  24.670  56.093  1.00  0.00    -0.271 OA
BRANCH   6   9
HETATM    9  C   UNL     1       8.072  22.690  54.920  1.00  0.00     0.085 A 
HETATM   10  C   UNL     1       7.984  21.327  55.146  1.00  0.00     0.052 A 
HETATM   11  C   UNL     1       8.059  20.497  56.374  1.00  0.00     0.072 C 
HETATM   12  N   UNL     1       7.797  20.754  53.920  1.00  0.00    -0.280 N 
HETATM   13  H   UNL     1       7.692  19.769  53.691  1.00  0.00     0.189 HD
HETATM   14  N   UNL     1       7.751  21.636  52.921  1.00  0.00    -0.177 NA
HETATM   15  C   UNL     1       7.926  22.827  53.507  1.00  0.00     0.079 A 
HETATM   16  C   UNL     1       7.944  24.025  52.631  1.00  0.00     0.075 C 
ENDBRANCH   6   9
ENDBRANCH   4   5
ENDBRANCH   1   4
BRANCH   1  17
HETATM   17  C   UNL     1       7.695  27.871  57.510  1.00  0.00     0.252 C 
BRANCH  17  18
HETATM   18  C   UNL     1       8.625  29.051  57.736  1.00  0.00    -0.023 A 
HETATM   19  C   UNL     1       8.295  30.098  58.613  1.00  0.00     0.009 A 
HETATM   20  C   UNL     1       9.151  31.189  58.770  1.00  0.00     0.001 A 
HETATM   21  C   UNL     1      10.343  31.253  58.052  1.00  0.00     0.000 A 
HETATM   22  C   UNL     1      10.687  30.222  57.182  1.00  0.00     0.001 A 
HETATM   23  C   UNL     1       9.837  29.127  57.024  1.00  0.00     0.009 A 
ENDBRANCH  17  18
BRANCH  17  24
HETATM   24  C   UNL     1       6.578  28.168  56.515  1.00  0.00    -0.023 A 
HETATM   25  C   UNL     1       5.291  28.452  57.010  1.00  0.00     0.009 A 
HETATM   26  C   UNL     1       4.235  28.741  56.143  1.00  0.00     0.001 A 
HETATM   27  C   UNL     1       4.447  28.755  54.768  1.00  0.00     0.000 A 
HETATM   28  C   UNL     1       5.714  28.489  54.259  1.00  0.00     0.001 A 
HETATM   29  C   UNL     1       6.775  28.201  55.123  1.00  0.00     0.009 A 
ENDBRANCH  17  24
ENDBRANCH   1  17
TORSDOF 6
ENDMDL
MODEL 8
REMARK VINA RESULT:      -8.9      2.112      4.599
REMARK  6 active torsions:
REMARK  status: ('A' for Active; 'I' for Inactive)
REMARK    1  A    between atoms: C_8  and  N_9 
REMARK       I    between atoms: N_9  and  C_10 
REMARK    2  A    between atoms: C_10  and  C_11 
REMARK    3  A    between atoms: C_11  and  N_12 
REMARK    4  A    between atoms: N_12  and  C_15 
REMARK    5  A    between atoms: C_15  and  C_16 
REMARK    6  A    between atoms: C_15  and  C_22 
ROOT
HETATM    1  N   UNL     1       7.752  24.624  56.033  1.00  0.00    -0.055 N 
HETATM    2  H   UNL     1       8.182  25.392  55.515  1.00  0.00     0.278 HD
HETATM    3  H   UNL     1       8.502  24.007  56.379  1.00  0.00     0.278 HD
ENDROOT
BRANCH   1   4
HETATM    4  C   UNL     1       7.032  25.158  57.248  1.00  0.00     0.336 C 
BRANCH   4   5
HETATM    5  C   UNL     1       6.082  26.299  56.885  1.00  0.00     0.248 C 
HETATM    6  N   UNL     1       6.714  27.408  56.373  1.00  0.00    -0.322 N 
HETATM    7  H   UNL     1       7.722  27.407  56.271  1.00  0.00     0.169 HD
HETATM    8  O   UNL     1       4.881  26.127  57.071  1.00  0.00    -0.271 OA
BRANCH   6   9
HETATM    9  C   UNL     1       6.111  28.587  55.956  1.00  0.00     0.085 A 
HETATM   10  C   UNL     1       6.433  29.801  56.540  1.00  0.00     0.052 A 
HETATM   11  C   UNL     1       7.368  30.185  57.626  1.00  0.00     0.072 C 
HETATM   12  N   UNL     1       5.668  30.739  55.905  1.00  0.00    -0.280 N 
HETATM   13  H   UNL     1       5.631  31.741  56.068  1.00  0.00     0.189 HD
HETATM   14  N   UNL     1       4.883  30.231  54.954  1.00  0.00    -0.177 NA
HETATM   15  C   UNL     1       5.130  28.914  54.973  1.00  0.00     0.079 A 
HETATM   16  C   UNL     1       4.374  28.063  54.020  1.00  0.00     0.075 C 
ENDBRANCH   6   9
ENDBRANCH   4   5
ENDBRANCH   1   4
BRANCH   1  17
HETATM   17  C   UNL     1       6.940  23.776  55.089  1.00  0.00     0.252 C 
BRANCH  17  18
HETATM   18  C   UNL     1       6.581  24.539  53.826  1.00  0.00    -0.023 A 
HETATM   19  C   UNL     1       5.308  24.441  53.237  1.00  0.00     0.009 A 
HETATM   20  C   UNL     1       5.020  25.123  52.053  1.00  0.00     0.001 A 
HETATM   21  C   UNL     1       5.996  25.905  51.440  1.00  0.00     0.000 A 
HETATM   22  C   UNL     1       7.260  26.016  52.013  1.00  0.00     0.001 A 
HETATM   23  C   UNL     1       7.553  25.340  53.198  1.00  0.00     0.009 A 
ENDBRANCH  17  18
BRANCH  17  24
HETATM   24  C   UNL     1       7.594  22.426  54.812  1.00  0.00    -0.023 A 
HETATM   25  C   UNL     1       7.925  21.599  55.901  1.00  0.00     0.009 A 
HETATM   26  C   UNL     1       8.514  20.349  55.702  1.00  0.00     0.001 A 
HETATM   27  C   UNL     1       8.779  19.902  54.412  1.00  0.00     0.000 A 
HETATM   28  C   UNL     1       8.449  20.699  53.320  1.00  0.00     0.001 A 
HETATM   29  C   UNL     1       7.856  21.951  53.514  1.00  0.00     0.009 A 
ENDBRANCH  17  24
ENDBRANCH   1  17
TORSDOF 6
ENDMDL
MODEL 9
REMARK VINA RESULT:      -8.9      2.389      7.742
REMARK  6 active torsions:
REMARK  status: ('A' for Active; 'I' for Inactive)
REMARK    1  A    between atoms: C_8  and  N_9 
REMARK       I    between atoms: N_9  and  C_10 
REMARK    2  A    between atoms: C_10  and  C_11 
REMARK    3  A    between atoms: C_11  and  N_12 
REMARK    4  A    between atoms: N_12  and  C_15 
REMARK    5  A    between atoms: C_15  and  C_16 
REMARK    6  A    between atoms: C_15  and  C_22 
ROOT
HETATM    1  N   UNL     1       7.668  26.615  57.705  1.00  0.00    -0.055 N 
HETATM    2  H   UNL     1       6.649  26.606  57.637  1.00  0.00     0.278 HD
HETATM    3  H   UNL     1       7.928  27.025  58.615  1.00  0.00     0.278 HD
ENDROOT
BRANCH   1   4
HETATM    4  C   UNL     1       8.201  25.203  57.693  1.00  0.00     0.336 C 
BRANCH   4   5
HETATM    5  C   UNL     1       7.577  24.373  56.572  1.00  0.00     0.248 C 
HETATM    6  N   UNL     1       8.468  23.545  55.930  1.00  0.00    -0.322 N 
HETATM    7  H   UNL     1       9.439  23.534  56.222  1.00  0.00     0.169 HD
HETATM    8  O   UNL     1       6.377  24.511  56.355  1.00  0.00    -0.271 OA
BRANCH   6   9
HETATM    9  C   UNL     1       8.189  22.680  54.882  1.00  0.00     0.085 A 
HETATM   10  C   UNL     1       8.082  21.314  55.090  1.00  0.00     0.052 A 
HETATM   11  C   UNL     1       8.213  20.462  56.297  1.00  0.00     0.072 C 
HETATM   12  N   UNL     1       7.807  20.768  53.868  1.00  0.00    -0.280 N 
HETATM   13  H   UNL     1       7.666  19.790  53.629  1.00  0.00     0.189 HD
HETATM   14  N   UNL     1       7.721  21.669  52.889  1.00  0.00    -0.177 NA
HETATM   15  C   UNL     1       7.960  22.846  53.483  1.00  0.00     0.079 A 
HETATM   16  C   UNL     1       7.953  24.058  52.627  1.00  0.00     0.075 C 
ENDBRANCH   6   9
ENDBRANCH   4   5
ENDBRANCH   1   4
BRANCH   1  17
HETATM   17  C   UNL     1       8.229  27.554  56.669  1.00  0.00     0.252 C 
BRANCH  17  18
HETATM   18  C   UNL     1       7.209  27.862  55.587  1.00  0.00    -0.023 A 
HETATM   19  C   UNL     1       5.863  28.129  55.891  1.00  0.00     0.009 A 
HETATM   20  C   UNL     1       4.940  28.369  54.872  1.00  0.00     0.001 A 
HETATM   21  C   UNL     1       5.344  28.342  53.539  1.00  0.00     0.000 A 
HETATM   22  C   UNL     1       6.675  28.083  53.221  1.00  0.00     0.001 A 
HETATM   23  C   UNL     1       7.603  27.846  54.236  1.00  0.00     0.009 A 
ENDBRANCH  17  18
BRANCH  17  24
HETATM   24  C   UNL     1       8.844  28.804  57.290  1.00  0.00    -0.023 A 
HETATM   25  C   UNL     1      10.041  29.309  56.748  1.00  0.00     0.009 A 
HETATM   26  C   UNL     1      10.640  30.456  57.272  1.00  0.00     0.001 A 
HETATM   27  C   UNL     1      10.052  31.122  58.342  1.00  0.00     0.000 A 
HETATM   28  C   UNL     1       8.862  30.647  58.885  1.00  0.00     0.001 A 
HETATM   29  C   UNL     1       8.258  29.499  58.363  1.00  0.00     0.009 A 
ENDBRANCH  17  24
ENDBRANCH   1  17
TORSDOF 6
ENDMDL
MODEL 10
REMARK VINA RESULT:      -8.9      4.001      7.175
REMARK  6 active torsions:
REMARK  status: ('A' for Active; 'I' for Inactive)
REMARK    1  A    between atoms: C_8  and  N_9 
REMARK       I    between atoms: N_9  and  C_10 
REMARK    2  A    between atoms: C_10  and  C_11 
REMARK    3  A    between atoms: C_11  and  N_12 
REMARK    4  A    between atoms: N_12  and  C_15 
REMARK    5  A    between atoms: C_15  and  C_16 
REMARK    6  A    between atoms: C_15  and  C_22 
ROOT
HETATM    1  N   UNL     1       4.824  25.178  53.749  1.00  0.00    -0.055 N 
HETATM    2  H   UNL     1       3.918  24.830  54.066  1.00  0.00     0.278 HD
HETATM    3  H   UNL     1       5.197  24.518  53.049  1.00  0.00     0.278 HD
ENDROOT
BRANCH   1   4
HETATM    4  C   UNL     1       4.653  26.505  53.051  1.00  0.00     0.336 C 
BRANCH   4   5
HETATM    5  C   UNL     1       5.122  26.444  51.598  1.00  0.00     0.248 C 
HETATM    6  N   UNL     1       4.222  26.966  50.700  1.00  0.00    -0.322 N 
HETATM    7  H   UNL     1       3.342  27.342  51.035  1.00  0.00     0.169 HD
HETATM    8  O   UNL     1       6.225  25.956  51.371  1.00  0.00    -0.271 OA
BRANCH   6   9
HETATM    9  C   UNL     1       4.376  27.047  49.323  1.00  0.00     0.085 A 
HETATM   10  C   UNL     1       5.064  28.100  48.741  1.00  0.00     0.052 A 
HETATM   11  C   UNL     1       5.747  29.293  49.297  1.00  0.00     0.072 C 
HETATM   12  N   UNL     1       5.026  27.874  47.393  1.00  0.00    -0.280 N 
HETATM   13  H   UNL     1       5.422  28.437  46.646  1.00  0.00     0.189 HD
HETATM   14  N   UNL     1       4.376  26.759  47.057  1.00  0.00    -0.177 NA
HETATM   15  C   UNL     1       3.961  26.241  48.221  1.00  0.00     0.079 A 
HETATM   16  C   UNL     1       3.175  24.983  48.167  1.00  0.00     0.075 C 
ENDBRANCH   6   9
ENDBRANCH   4   5
ENDBRANCH   1   4
BRANCH   1  17
HETATM   17  C   UNL     1       5.803  25.141  54.893  1.00  0.00     0.252 C 
BRANCH  17  18
HETATM   18  C   UNL     1       6.876  24.088  54.673  1.00  0.00    -0.023 A 
HETATM   19  C   UNL     1       7.726  23.668  55.710  1.00  0.00     0.009 A 
HETATM   20  C   UNL     1       8.730  22.728  55.467  1.00  0.00     0.001 A 
HETATM   21  C   UNL     1       8.901  22.200  54.190  1.00  0.00     0.000 A 
HETATM   22  C   UNL     1       8.064  22.603  53.152  1.00  0.00     0.001 A 
HETATM   23  C   UNL     1       7.057  23.539  53.390  1.00  0.00     0.009 A 
ENDBRANCH  17  18
BRANCH  17  24
HETATM   24  C   UNL     1       6.369  26.519  55.218  1.00  0.00    -0.023 A 
HETATM   25  C   UNL     1       5.819  27.239  56.296  1.00  0.00     0.009 A 
HETATM   26  C   UNL     1       6.308  28.499  56.642  1.00  0.00     0.001 A 
HETATM   27  C   UNL     1       7.358  29.061  55.923  1.00  0.00     0.000 A 
HETATM   28  C   UNL     1       7.924  28.362  54.861  1.00  0.00     0.001 A 
HETATM   29  C   UNL     1       7.439  27.098  54.511  1.00  0.00     0.009 A 
ENDBRANCH  17  24
ENDBRANCH   1  17
TORSDOF 6
ENDMDL
