MODEL 1
REMARK VINA RESULT:      -8.7      0.000      0.000
REMARK  3 active torsions:
REMARK  status: ('A' for Active; 'I' for Inactive)
REMARK    1  A    between atoms: C_9  and  C_10 
REMARK    2  A    between atoms: C_16  and  C_17 
REMARK       I    between atoms: C_17  and  N_18 
REMARK    3  A    between atoms: N_18  and  C_19 
ROOT
HETATM    1  C   UNL     1       8.702  27.263  57.129  1.00  0.00     0.070 C 
HETATM    2  C   UNL     1       7.462  27.574  56.327  1.00  0.00     0.037 C 
HETATM    3  N   UNL     1       7.124  28.922  56.243  1.00  0.00    -0.191 N 
HETATM    4  C   UNL     1       5.944  29.352  55.750  1.00  0.00     0.735 A 
HETATM    5  N   UNL     1       5.081  28.449  55.197  1.00  0.00    -0.092 N 
HETATM    6  N   UNL     1       3.941  29.058  54.834  1.00  0.00     0.012 NA
HETATM    7  N   UNL     1       4.140  30.339  55.130  1.00  0.00     0.033 NA
HETATM    8  N   UNL     1       5.383  30.536  55.703  1.00  0.00     0.030 NA
HETATM    9  C   UNL     1       5.343  27.018  55.070  1.00  0.00     0.199 C 
HETATM   10  C   UNL     1       6.653  26.644  55.759  1.00  0.00     0.062 C 
HETATM   11  H   UNL     1       7.708  29.587  56.746  1.00  0.00     0.184 HD
ENDROOT
BRANCH  10  12
HETATM   12  C   UNL     1       6.886  25.176  55.834  1.00  0.00     0.256 C 
HETATM   13  N   UNL     1       7.690  24.699  54.823  1.00  0.00    -0.323 N 
HETATM   14  H   UNL     1       8.036  25.370  54.150  1.00  0.00     0.169 HD
HETATM   15  O   UNL     1       6.316  24.542  56.711  1.00  0.00    -0.267 OA
BRANCH  13  16
HETATM   16  C   UNL     1       8.087  23.363  54.606  1.00  0.00     0.035 A 
HETATM   17  C   UNL     1       8.871  22.627  55.496  1.00  0.00     0.029 A 
HETATM   18  C   UNL     1       9.224  21.305  55.204  1.00  0.00     0.002 A 
HETATM   19  C   UNL     1       8.803  20.712  54.017  1.00  0.00     0.000 A 
HETATM   20  C   UNL     1       8.021  21.437  53.122  1.00  0.00     0.002 A 
HETATM   21  C   UNL     1       7.662  22.755  53.418  1.00  0.00     0.029 A 
ENDBRANCH  13  16
ENDBRANCH  10  12
BRANCH   9  22
HETATM   22  C   UNL     1       5.324  26.603  53.610  1.00  0.00    -0.011 A 
HETATM   23  C   UNL     1       5.859  27.449  52.641  1.00  0.00     0.125 A 
HETATM   24  N   UNL     1       5.876  27.174  51.318  1.00  0.00    -0.272 NA
HETATM   25  C   UNL     1       5.335  26.000  50.931  1.00  0.00     0.116 A 
HETATM   26  C   UNL     1       4.768  25.091  51.807  1.00  0.00     0.020 A 
HETATM   27  C   UNL     1       4.758  25.401  53.165  1.00  0.00     0.012 A 
ENDBRANCH   9  22
TORSDOF 3
ENDMDL
MODEL 2
REMARK VINA RESULT:      -8.6      2.030      3.515
REMARK  3 active torsions:
REMARK  status: ('A' for Active; 'I' for Inactive)
REMARK    1  A    between atoms: C_9  and  C_10 
REMARK    2  A    between atoms: C_16  and  C_17 
REMARK       I    between atoms: C_17  and  N_18 
REMARK    3  A    between atoms: N_18  and  C_19 
ROOT
HETATM    1  C   UNL     1       4.635  25.207  57.423  1.00  0.00     0.070 C 
HETATM    2  C   UNL     1       5.056  26.469  56.712  1.00  0.00     0.037 C 
HETATM    3  N   UNL     1       4.181  27.546  56.835  1.00  0.00    -0.191 N 
HETATM    4  C   UNL     1       4.296  28.670  56.098  1.00  0.00     0.735 A 
HETATM    5  N   UNL     1       5.377  28.825  55.277  1.00  0.00    -0.092 N 
HETATM    6  N   UNL     1       5.272  29.966  54.579  1.00  0.00     0.012 NA
HETATM    7  N   UNL     1       4.145  30.520  55.017  1.00  0.00     0.033 NA
HETATM    8  N   UNL     1       3.526  29.723  55.963  1.00  0.00     0.030 NA
HETATM    9  C   UNL     1       6.463  27.858  55.140  1.00  0.00     0.199 C 
HETATM   10  C   UNL     1       6.162  26.590  55.937  1.00  0.00     0.062 C 
HETATM   11  H   UNL     1       3.321  27.398  57.359  1.00  0.00     0.184 HD
ENDROOT
BRANCH  10  12
HETATM   12  C   UNL     1       7.134  25.490  55.690  1.00  0.00     0.256 C 
HETATM   13  N   UNL     1       6.647  24.509  54.857  1.00  0.00    -0.323 N 
HETATM   14  H   UNL     1       5.707  24.625  54.502  1.00  0.00     0.169 HD
HETATM   15  O   UNL     1       8.209  25.523  56.274  1.00  0.00    -0.267 OA
BRANCH  13  16
HETATM   16  C   UNL     1       7.310  23.335  54.440  1.00  0.00     0.035 A 
HETATM   17  C   UNL     1       7.774  23.120  53.141  1.00  0.00     0.029 A 
HETATM   18  C   UNL     1       8.421  21.925  52.808  1.00  0.00     0.002 A 
HETATM   19  C   UNL     1       8.602  20.933  53.768  1.00  0.00     0.000 A 
HETATM   20  C   UNL     1       8.142  21.136  55.066  1.00  0.00     0.002 A 
HETATM   21  C   UNL     1       7.503  22.334  55.401  1.00  0.00     0.029 A 
ENDBRANCH  13  16
ENDBRANCH  10  12
BRANCH   9  22
HETATM   22  C   UNL     1       7.786  28.486  55.540  1.00  0.00    -0.011 A 
HETATM   23  C   UNL     1       8.740  28.776  54.567  1.00  0.00     0.125 A 
HETATM   24  N   UNL     1       9.949  29.322  54.827  1.00  0.00    -0.272 NA
HETATM   25  C   UNL     1      10.230  29.596  56.117  1.00  0.00     0.116 A 
HETATM   26  C   UNL     1       9.361  29.339  57.164  1.00  0.00     0.020 A 
HETATM   27  C   UNL     1       8.124  28.772  56.870  1.00  0.00     0.012 A 
ENDBRANCH   9  22
TORSDOF 3
ENDMDL
MODEL 3
REMARK VINA RESULT:      -8.5      1.676      3.844
REMARK  3 active torsions:
REMARK  status: ('A' for Active; 'I' for Inactive)
REMARK    1  A    between atoms: C_9  and  C_10 
REMARK    2  A    between atoms: C_16  and  C_17 
REMARK       I    between atoms: C_17  and  N_18 
REMARK    3  A    between atoms: N_18  and  C_19 
ROOT
HETATM    1  C   UNL     1       4.588  24.671  51.527  1.00  0.00     0.070 C 
HETATM    2  C   UNL     1       4.988  25.764  52.487  1.00  0.00     0.037 C 
HETATM    3  N   UNL     1       4.107  26.838  52.574  1.00  0.00    -0.191 N 
HETATM    4  C   UNL     1       4.410  27.985  53.216  1.00  0.00     0.735 A 
HETATM    5  N   UNL     1       5.580  28.070  53.916  1.00  0.00    -0.092 N 
HETATM    6  N   UNL     1       5.733  29.305  54.418  1.00  0.00     0.012 NA
HETATM    7  N   UNL     1       4.628  29.950  54.055  1.00  0.00     0.033 NA
HETATM    8  N   UNL     1       3.796  29.140  53.305  1.00  0.00     0.030 NA
HETATM    9  C   UNL     1       6.550  26.987  54.050  1.00  0.00     0.199 C 
HETATM   10  C   UNL     1       6.146  25.789  53.194  1.00  0.00     0.062 C 
HETATM   11  H   UNL     1       3.286  26.825  51.971  1.00  0.00     0.184 HD
ENDROOT
BRANCH  10  12
HETATM   12  C   UNL     1       7.185  24.724  53.134  1.00  0.00     0.256 C 
HETATM   13  N   UNL     1       6.840  23.587  53.827  1.00  0.00    -0.323 N 
HETATM   14  H   UNL     1       5.942  23.581  54.294  1.00  0.00     0.169 HD
HETATM   15  O   UNL     1       8.233  24.969  52.554  1.00  0.00    -0.267 OA
BRANCH  13  16
HETATM   16  C   UNL     1       7.606  22.410  53.974  1.00  0.00     0.035 A 
HETATM   17  C   UNL     1       7.960  21.571  52.916  1.00  0.00     0.029 A 
HETATM   18  C   UNL     1       8.721  20.421  53.149  1.00  0.00     0.002 A 
HETATM   19  C   UNL     1       9.127  20.097  54.440  1.00  0.00     0.000 A 
HETATM   20  C   UNL     1       8.779  20.925  55.502  1.00  0.00     0.002 A 
HETATM   21  C   UNL     1       8.025  22.079  55.270  1.00  0.00     0.029 A 
ENDBRANCH  13  16
ENDBRANCH  10  12
BRANCH   9  22
HETATM   22  C   UNL     1       6.728  26.613  55.511  1.00  0.00    -0.011 A 
HETATM   23  C   UNL     1       7.904  26.952  56.177  1.00  0.00     0.125 A 
HETATM   24  N   UNL     1       8.159  26.651  57.469  1.00  0.00    -0.272 NA
HETATM   25  C   UNL     1       7.201  25.979  58.140  1.00  0.00     0.116 A 
HETATM   26  C   UNL     1       6.002  25.584  57.575  1.00  0.00     0.020 A 
HETATM   27  C   UNL     1       5.765  25.901  56.240  1.00  0.00     0.012 A 
ENDBRANCH   9  22
TORSDOF 3
ENDMDL
MODEL 4
REMARK VINA RESULT:      -8.3      3.226      5.106
REMARK  3 active torsions:
REMARK  status: ('A' for Active; 'I' for Inactive)
REMARK    1  A    between atoms: C_9  and  C_10 
REMARK    2  A    between atoms: C_16  and  C_17 
REMARK       I    between atoms: C_17  and  N_18 
REMARK    3  A    between atoms: N_18  and  C_19 
ROOT
HETATM    1  C   UNL     1      10.997  29.712  56.727  1.00  0.00     0.070 C 
HETATM    2  C   UNL     1       9.782  30.147  57.509  1.00  0.00     0.037 C 
HETATM    3  N   UNL     1       9.966  31.251  58.338  1.00  0.00    -0.191 N 
HETATM    4  C   UNL     1       9.056  31.638  59.256  1.00  0.00     0.735 A 
HETATM    5  N   UNL     1       7.847  31.003  59.308  1.00  0.00    -0.092 N 
HETATM    6  N   UNL     1       7.116  31.479  60.328  1.00  0.00     0.012 NA
HETATM    7  N   UNL     1       7.872  32.435  60.860  1.00  0.00     0.033 NA
HETATM    8  N   UNL     1       9.084  32.543  60.203  1.00  0.00     0.030 NA
HETATM    9  C   UNL     1       7.435  29.922  58.416  1.00  0.00     0.199 C 
HETATM   10  C   UNL     1       8.586  29.507  57.501  1.00  0.00     0.062 C 
HETATM   11  H   UNL     1      10.898  31.659  58.379  1.00  0.00     0.184 HD
ENDROOT
BRANCH  10  12
HETATM   12  C   UNL     1       8.295  28.287  56.700  1.00  0.00     0.256 C 
HETATM   13  N   UNL     1       8.269  27.135  57.451  1.00  0.00    -0.323 N 
HETATM   14  H   UNL     1       8.442  27.223  58.444  1.00  0.00     0.169 HD
HETATM   15  O   UNL     1       8.174  28.404  55.488  1.00  0.00    -0.267 OA
BRANCH  13  16
HETATM   16  C   UNL     1       8.035  25.820  56.993  1.00  0.00     0.035 A 
HETATM   17  C   UNL     1       8.878  24.740  57.257  1.00  0.00     0.029 A 
HETATM   18  C   UNL     1       8.574  23.467  56.762  1.00  0.00     0.002 A 
HETATM   19  C   UNL     1       7.431  23.267  55.993  1.00  0.00     0.000 A 
HETATM   20  C   UNL     1       6.584  24.337  55.723  1.00  0.00     0.002 A 
HETATM   21  C   UNL     1       6.883  25.608  56.224  1.00  0.00     0.029 A 
ENDBRANCH  13  16
ENDBRANCH  10  12
BRANCH   9  22
HETATM   22  C   UNL     1       6.198  30.325  57.633  1.00  0.00    -0.011 A 
HETATM   23  C   UNL     1       6.095  31.613  57.111  1.00  0.00     0.125 A 
HETATM   24  N   UNL     1       5.029  32.066  56.414  1.00  0.00    -0.272 NA
HETATM   25  C   UNL     1       4.011  31.202  56.223  1.00  0.00     0.116 A 
HETATM   26  C   UNL     1       4.004  29.905  56.707  1.00  0.00     0.020 A 
HETATM   27  C   UNL     1       5.112  29.464  57.426  1.00  0.00     0.012 A 
ENDBRANCH   9  22
TORSDOF 3
ENDMDL
MODEL 5
REMARK VINA RESULT:      -8.2      2.956      5.101
REMARK  3 active torsions:
REMARK  status: ('A' for Active; 'I' for Inactive)
REMARK    1  A    between atoms: C_9  and  C_10 
REMARK    2  A    between atoms: C_16  and  C_17 
REMARK       I    between atoms: C_17  and  N_18 
REMARK    3  A    between atoms: N_18  and  C_19 
ROOT
HETATM    1  C   UNL     1      10.965  29.268  56.686  1.00  0.00     0.070 C 
HETATM    2  C   UNL     1       9.754  29.832  57.387  1.00  0.00     0.037 C 
HETATM    3  N   UNL     1       9.954  31.038  58.054  1.00  0.00    -0.191 N 
HETATM    4  C   UNL     1       9.045  31.567  58.899  1.00  0.00     0.735 A 
HETATM    5  N   UNL     1       7.824  30.969  59.028  1.00  0.00    -0.092 N 
HETATM    6  N   UNL     1       7.095  31.598  59.963  1.00  0.00     0.012 NA
HETATM    7  N   UNL     1       7.866  32.605  60.364  1.00  0.00     0.033 NA
HETATM    8  N   UNL     1       9.085  32.596  59.710  1.00  0.00     0.030 NA
HETATM    9  C   UNL     1       7.396  29.783  58.292  1.00  0.00     0.199 C 
HETATM   10  C   UNL     1       8.545  29.221  57.457  1.00  0.00     0.062 C 
HETATM   11  H   UNL     1      10.894  31.430  58.048  1.00  0.00     0.184 HD
ENDROOT
BRANCH  10  12
HETATM   12  C   UNL     1       8.235  27.906  56.832  1.00  0.00     0.256 C 
HETATM   13  N   UNL     1       7.651  28.016  55.591  1.00  0.00    -0.323 N 
HETATM   14  H   UNL     1       7.495  28.949  55.232  1.00  0.00     0.169 HD
HETATM   15  O   UNL     1       8.459  26.890  57.476  1.00  0.00    -0.267 OA
BRANCH  13  16
HETATM   16  C   UNL     1       7.229  26.965  54.748  1.00  0.00     0.035 A 
HETATM   17  C   UNL     1       7.868  26.614  53.558  1.00  0.00     0.029 A 
HETATM   18  C   UNL     1       7.382  25.559  52.779  1.00  0.00     0.002 A 
HETATM   19  C   UNL     1       6.251  24.853  53.178  1.00  0.00     0.000 A 
HETATM   20  C   UNL     1       5.605  25.195  54.363  1.00  0.00     0.002 A 
HETATM   21  C   UNL     1       6.095  26.244  55.146  1.00  0.00     0.029 A 
ENDBRANCH  13  16
ENDBRANCH  10  12
BRANCH   9  22
HETATM   22  C   UNL     1       6.173  30.095  57.448  1.00  0.00    -0.011 A 
HETATM   23  C   UNL     1       5.043  29.284  57.536  1.00  0.00     0.125 A 
HETATM   24  N   UNL     1       3.915  29.473  56.816  1.00  0.00    -0.272 NA
HETATM   25  C   UNL     1       3.902  30.520  55.965  1.00  0.00     0.116 A 
HETATM   26  C   UNL     1       4.971  31.381  55.791  1.00  0.00     0.020 A 
HETATM   27  C   UNL     1       6.124  31.161  56.540  1.00  0.00     0.012 A 
ENDBRANCH   9  22
TORSDOF 3
ENDMDL
MODEL 6
REMARK VINA RESULT:      -8.1      6.236      8.868
REMARK  3 active torsions:
REMARK  status: ('A' for Active; 'I' for Inactive)
REMARK    1  A    between atoms: C_9  and  C_10 
REMARK    2  A    between atoms: C_16  and  C_17 
REMARK       I    between atoms: C_17  and  N_18 
REMARK    3  A    between atoms: N_18  and  C_19 
ROOT
HETATM    1  C   UNL     1       9.363  32.321  61.121  1.00  0.00     0.070 C 
HETATM    2  C   UNL     1       7.929  32.492  61.555  1.00  0.00     0.037 C 
HETATM    3  N   UNL     1       7.747  32.933  62.863  1.00  0.00    -0.191 N 
HETATM    4  C   UNL     1       6.544  32.937  63.474  1.00  0.00     0.735 A 
HETATM    5  N   UNL     1       5.428  32.609  62.757  1.00  0.00    -0.092 N 
HETATM    6  N   UNL     1       4.349  32.599  63.555  1.00  0.00     0.012 NA
HETATM    7  N   UNL     1       4.813  32.967  64.746  1.00  0.00     0.033 NA
HETATM    8  N   UNL     1       6.179  33.179  64.710  1.00  0.00     0.030 NA
HETATM    9  C   UNL     1       5.423  32.264  61.338  1.00  0.00     0.199 C 
HETATM   10  C   UNL     1       6.848  32.190  60.793  1.00  0.00     0.062 C 
HETATM   11  H   UNL     1       8.578  33.075  63.433  1.00  0.00     0.184 HD
ENDROOT
BRANCH  10  12
HETATM   12  C   UNL     1       6.925  31.659  59.405  1.00  0.00     0.256 C 
HETATM   13  N   UNL     1       7.235  30.320  59.350  1.00  0.00    -0.323 N 
HETATM   14  H   UNL     1       7.374  29.838  60.229  1.00  0.00     0.169 HD
HETATM   15  O   UNL     1       6.775  32.441  58.476  1.00  0.00    -0.267 OA
BRANCH  13  16
HETATM   16  C   UNL     1       7.393  29.526  58.194  1.00  0.00     0.035 A 
HETATM   17  C   UNL     1       6.331  28.993  57.461  1.00  0.00     0.029 A 
HETATM   18  C   UNL     1       6.575  28.213  56.326  1.00  0.00     0.002 A 
HETATM   19  C   UNL     1       7.881  27.952  55.920  1.00  0.00     0.000 A 
HETATM   20  C   UNL     1       8.947  28.477  56.644  1.00  0.00     0.002 A 
HETATM   21  C   UNL     1       8.704  29.264  57.774  1.00  0.00     0.029 A 
ENDBRANCH  13  16
ENDBRANCH  10  12
BRANCH   9  22
HETATM   22  C   UNL     1       4.561  33.242  60.559  1.00  0.00    -0.011 A 
HETATM   23  C   UNL     1       3.523  32.769  59.760  1.00  0.00     0.125 A 
HETATM   24  N   UNL     1       2.713  33.559  59.020  1.00  0.00    -0.272 NA
HETATM   25  C   UNL     1       2.941  34.888  59.074  1.00  0.00     0.116 A 
HETATM   26  C   UNL     1       3.950  35.464  59.825  1.00  0.00     0.020 A 
HETATM   27  C   UNL     1       4.775  34.627  60.574  1.00  0.00     0.012 A 
ENDBRANCH   9  22
TORSDOF 3
ENDMDL
MODEL 7
REMARK VINA RESULT:      -8.0      2.605      5.666
REMARK  3 active torsions:
REMARK  status: ('A' for Active; 'I' for Inactive)
REMARK    1  A    between atoms: C_9  and  C_10 
REMARK    2  A    between atoms: C_16  and  C_17 
REMARK       I    between atoms: C_17  and  N_18 
REMARK    3  A    between atoms: N_18  and  C_19 
ROOT
HETATM    1  C   UNL     1       3.425  29.940  53.912  1.00  0.00     0.070 C 
HETATM    2  C   UNL     1       4.654  29.170  54.325  1.00  0.00     0.037 C 
HETATM    3  N   UNL     1       4.901  29.124  55.695  1.00  0.00    -0.191 N 
HETATM    4  C   UNL     1       6.058  28.664  56.216  1.00  0.00     0.735 A 
HETATM    5  N   UNL     1       6.990  28.106  55.387  1.00  0.00    -0.092 N 
HETATM    6  N   UNL     1       8.092  27.780  56.079  1.00  0.00     0.012 NA
HETATM    7  N   UNL     1       7.801  28.101  57.337  1.00  0.00     0.033 NA
HETATM    8  N   UNL     1       6.538  28.654  57.435  1.00  0.00     0.030 NA
HETATM    9  C   UNL     1       6.828  27.942  53.944  1.00  0.00     0.199 C 
HETATM   10  C   UNL     1       5.534  28.597  53.466  1.00  0.00     0.062 C 
HETATM   11  H   UNL     1       4.264  29.631  56.306  1.00  0.00     0.184 HD
ENDROOT
BRANCH  10  12
HETATM   12  C   UNL     1       5.400  28.633  51.984  1.00  0.00     0.256 C 
HETATM   13  N   UNL     1       4.501  27.713  51.496  1.00  0.00    -0.323 N 
HETATM   14  H   UNL     1       4.030  27.121  52.167  1.00  0.00     0.169 HD
HETATM   15  O   UNL     1       6.117  29.400  51.356  1.00  0.00    -0.267 OA
BRANCH  13  16
HETATM   16  C   UNL     1       4.158  27.488  50.145  1.00  0.00     0.035 A 
HETATM   17  C   UNL     1       4.659  26.435  49.378  1.00  0.00     0.029 A 
HETATM   18  C   UNL     1       4.270  26.283  48.043  1.00  0.00     0.002 A 
HETATM   19  C   UNL     1       3.384  27.187  47.463  1.00  0.00     0.000 A 
HETATM   20  C   UNL     1       2.879  28.241  48.218  1.00  0.00     0.002 A 
HETATM   21  C   UNL     1       3.261  28.388  49.555  1.00  0.00     0.029 A 
ENDBRANCH  13  16
ENDBRANCH  10  12
BRANCH   9  22
HETATM   22  C   UNL     1       6.901  26.473  53.567  1.00  0.00    -0.011 A 
HETATM   23  C   UNL     1       6.032  25.560  54.162  1.00  0.00     0.125 A 
HETATM   24  N   UNL     1       6.030  24.234  53.901  1.00  0.00    -0.272 NA
HETATM   25  C   UNL     1       6.935  23.786  53.006  1.00  0.00     0.116 A 
HETATM   26  C   UNL     1       7.850  24.602  52.365  1.00  0.00     0.020 A 
HETATM   27  C   UNL     1       7.835  25.964  52.655  1.00  0.00     0.012 A 
ENDBRANCH   9  22
TORSDOF 3
ENDMDL
MODEL 8
REMARK VINA RESULT:      -7.7      1.892      4.271
REMARK  3 active torsions:
REMARK  status: ('A' for Active; 'I' for Inactive)
REMARK    1  A    between atoms: C_9  and  C_10 
REMARK    2  A    between atoms: C_16  and  C_17 
REMARK       I    between atoms: C_17  and  N_18 
REMARK    3  A    between atoms: N_18  and  C_19 
ROOT
HETATM    1  C   UNL     1       4.603  24.328  51.454  1.00  0.00     0.070 C 
HETATM    2  C   UNL     1       5.058  25.746  51.697  1.00  0.00     0.037 C 
HETATM    3  N   UNL     1       4.248  26.738  51.150  1.00  0.00    -0.191 N 
HETATM    4  C   UNL     1       4.616  28.034  51.091  1.00  0.00     0.735 A 
HETATM    5  N   UNL     1       5.777  28.428  51.693  1.00  0.00    -0.092 N 
HETATM    6  N   UNL     1       6.003  29.730  51.461  1.00  0.00     0.012 NA
HETATM    7  N   UNL     1       4.949  30.130  50.755  1.00  0.00     0.033 NA
HETATM    8  N   UNL     1       4.078  29.082  50.516  1.00  0.00     0.030 NA
HETATM    9  C   UNL     1       6.671  27.543  52.436  1.00  0.00     0.199 C 
HETATM   10  C   UNL     1       6.203  26.093  52.336  1.00  0.00     0.062 C 
HETATM   11  H   UNL     1       3.438  26.441  50.609  1.00  0.00     0.184 HD
ENDROOT
BRANCH  10  12
HETATM   12  C   UNL     1       7.170  25.117  52.908  1.00  0.00     0.256 C 
HETATM   13  N   UNL     1       6.652  24.385  53.953  1.00  0.00    -0.323 N 
HETATM   14  H   UNL     1       5.695  24.572  54.222  1.00  0.00     0.169 HD
HETATM   15  O   UNL     1       8.308  25.098  52.461  1.00  0.00    -0.267 OA
BRANCH  13  16
HETATM   16  C   UNL     1       7.312  23.394  54.711  1.00  0.00     0.035 A 
HETATM   17  C   UNL     1       7.608  22.115  54.237  1.00  0.00     0.029 A 
HETATM   18  C   UNL     1       8.263  21.190  55.056  1.00  0.00     0.002 A 
HETATM   19  C   UNL     1       8.621  21.533  56.357  1.00  0.00     0.000 A 
HETATM   20  C   UNL     1       8.330  22.805  56.841  1.00  0.00     0.002 A 
HETATM   21  C   UNL     1       7.682  23.733  56.020  1.00  0.00     0.029 A 
ENDBRANCH  13  16
ENDBRANCH  10  12
BRANCH   9  22
HETATM   22  C   UNL     1       6.800  28.007  53.876  1.00  0.00    -0.011 A 
HETATM   23  C   UNL     1       5.668  28.079  54.686  1.00  0.00     0.125 A 
HETATM   24  N   UNL     1       5.681  28.491  55.973  1.00  0.00    -0.272 NA
HETATM   25  C   UNL     1       6.874  28.852  56.487  1.00  0.00     0.116 A 
HETATM   26  C   UNL     1       8.058  28.830  55.769  1.00  0.00     0.020 A 
HETATM   27  C   UNL     1       8.017  28.406  54.444  1.00  0.00     0.012 A 
ENDBRANCH   9  22
TORSDOF 3
ENDMDL
MODEL 9
REMARK VINA RESULT:      -7.7      3.904      8.360
REMARK  3 active torsions:
REMARK  status: ('A' for Active; 'I' for Inactive)
REMARK    1  A    between atoms: C_9  and  C_10 
REMARK    2  A    between atoms: C_16  and  C_17 
REMARK       I    between atoms: C_17  and  N_18 
REMARK    3  A    between atoms: N_18  and  C_19 
ROOT
HETATM    1  C   UNL     1       4.075  28.942  55.033  1.00  0.00     0.070 C 
HETATM    2  C   UNL     1       5.241  28.430  55.842  1.00  0.00     0.037 C 
HETATM    3  N   UNL     1       5.582  27.097  55.625  1.00  0.00    -0.191 N 
HETATM    4  C   UNL     1       6.452  26.427  56.409  1.00  0.00     0.735 A 
HETATM    5  N   UNL     1       7.125  27.100  57.388  1.00  0.00    -0.092 N 
HETATM    6  N   UNL     1       7.881  26.250  58.101  1.00  0.00     0.012 NA
HETATM    7  N   UNL     1       7.695  25.070  57.516  1.00  0.00     0.033 NA
HETATM    8  N   UNL     1       6.805  25.166  56.462  1.00  0.00     0.030 NA
HETATM    9  C   UNL     1       6.996  28.530  57.655  1.00  0.00     0.199 C 
HETATM   10  C   UNL     1       5.909  29.148  56.779  1.00  0.00     0.062 C 
HETATM   11  H   UNL     1       5.010  26.564  54.972  1.00  0.00     0.184 HD
ENDROOT
BRANCH  10  12
HETATM   12  C   UNL     1       5.593  30.559  57.133  1.00  0.00     0.256 C 
HETATM   13  N   UNL     1       5.160  30.712  58.430  1.00  0.00    -0.323 N 
HETATM   14  H   UNL     1       5.100  29.879  59.002  1.00  0.00     0.169 HD
HETATM   15  O   UNL     1       5.683  31.410  56.259  1.00  0.00    -0.267 OA
BRANCH  13  16
HETATM   16  C   UNL     1       4.773  31.911  59.066  1.00  0.00     0.035 A 
HETATM   17  C   UNL     1       3.642  32.651  58.715  1.00  0.00     0.029 A 
HETATM   18  C   UNL     1       3.330  33.833  59.395  1.00  0.00     0.002 A 
HETATM   19  C   UNL     1       4.149  34.288  60.424  1.00  0.00     0.000 A 
HETATM   20  C   UNL     1       5.279  33.559  60.782  1.00  0.00     0.002 A 
HETATM   21  C   UNL     1       5.587  32.374  60.108  1.00  0.00     0.029 A 
ENDBRANCH  13  16
ENDBRANCH  10  12
BRANCH   9  22
HETATM   22  C   UNL     1       8.335  29.224  57.481  1.00  0.00    -0.011 A 
HETATM   23  C   UNL     1       8.849  30.011  58.511  1.00  0.00     0.125 A 
HETATM   24  N   UNL     1      10.023  30.677  58.444  1.00  0.00    -0.272 NA
HETATM   25  C   UNL     1      10.728  30.560  57.299  1.00  0.00     0.116 A 
HETATM   26  C   UNL     1      10.306  29.814  56.212  1.00  0.00     0.020 A 
HETATM   27  C   UNL     1       9.091  29.142  56.304  1.00  0.00     0.012 A 
ENDBRANCH   9  22
TORSDOF 3
ENDMDL
MODEL 10
REMARK VINA RESULT:      -7.6      2.459      5.668
REMARK  3 active torsions:
REMARK  status: ('A' for Active; 'I' for Inactive)
REMARK    1  A    between atoms: C_9  and  C_10 
REMARK    2  A    between atoms: C_16  and  C_17 
REMARK       I    between atoms: C_17  and  N_18 
REMARK    3  A    between atoms: N_18  and  C_19 
ROOT
HETATM    1  C   UNL     1       3.686  30.188  55.883  1.00  0.00     0.070 C 
HETATM    2  C   UNL     1       5.008  29.472  56.001  1.00  0.00     0.037 C 
HETATM    3  N   UNL     1       5.675  29.639  57.211  1.00  0.00    -0.191 N 
HETATM    4  C   UNL     1       6.952  29.248  57.404  1.00  0.00     0.735 A 
HETATM    5  N   UNL     1       7.594  28.550  56.421  1.00  0.00    -0.092 N 
HETATM    6  N   UNL     1       8.868  28.318  56.771  1.00  0.00     0.012 NA
HETATM    7  N   UNL     1       8.978  28.840  57.990  1.00  0.00     0.033 NA
HETATM    8  N   UNL     1       7.791  29.423  58.395  1.00  0.00     0.030 NA
HETATM    9  C   UNL     1       6.992  28.162  55.147  1.00  0.00     0.199 C 
HETATM   10  C   UNL     1       5.592  28.755  55.008  1.00  0.00     0.062 C 
HETATM   11  H   UNL     1       5.246  30.247  57.906  1.00  0.00     0.184 HD
ENDROOT
BRANCH  10  12
HETATM   12  C   UNL     1       4.997  28.558  53.658  1.00  0.00     0.256 C 
HETATM   13  N   UNL     1       5.774  29.064  52.640  1.00  0.00    -0.323 N 
HETATM   14  H   UNL     1       6.647  29.505  52.898  1.00  0.00     0.169 HD
HETATM   15  O   UNL     1       3.889  28.044  53.580  1.00  0.00    -0.267 OA
BRANCH  13  16
HETATM   16  C   UNL     1       5.488  29.049  51.258  1.00  0.00     0.035 A 
HETATM   17  C   UNL     1       5.340  30.198  50.479  1.00  0.00     0.029 A 
HETATM   18  C   UNL     1       5.054  30.096  49.114  1.00  0.00     0.002 A 
HETATM   19  C   UNL     1       4.906  28.846  48.519  1.00  0.00     0.000 A 
HETATM   20  C   UNL     1       5.051  27.694  49.286  1.00  0.00     0.002 A 
HETATM   21  C   UNL     1       5.345  27.796  50.649  1.00  0.00     0.029 A 
ENDBRANCH  13  16
ENDBRANCH  10  12
BRANCH   9  22
HETATM   22  C   UNL     1       6.992  26.651  55.001  1.00  0.00    -0.011 A 
HETATM   23  C   UNL     1       6.425  25.856  55.995  1.00  0.00     0.125 A 
HETATM   24  N   UNL     1       6.389  24.505  55.960  1.00  0.00    -0.272 NA
HETATM   25  C   UNL     1       6.944  23.908  54.885  1.00  0.00     0.116 A 
HETATM   26  C   UNL     1       7.543  24.599  53.846  1.00  0.00     0.020 A 
HETATM   27  C   UNL     1       7.571  25.990  53.909  1.00  0.00     0.012 A 
ENDBRANCH   9  22
TORSDOF 3
ENDMDL
