MODEL 1
REMARK VINA RESULT:      -8.0      0.000      0.000
REMARK  13 active torsions:
REMARK  status: ('A' for Active; 'I' for Inactive)
REMARK    1  A    between atoms: C_2  and  N_3 
REMARK    2  A    between atoms: N_3  and  C_5 
REMARK    3  A    between atoms: N_3  and  C_34 
REMARK    4  A    between atoms: C_5  and  C_6 
REMARK    5  A    between atoms: C_6  and  O_7 
REMARK    6  A    between atoms: O_7  and  C_8 
REMARK    7  A    between atoms: N_15  and  N_16 
REMARK    8  A    between atoms: C_20  and  O_21 
REMARK    9  A    between atoms: O_21  and  C_22 
REMARK   10  A    between atoms: C_22  and  C_23 
REMARK   11  A    between atoms: C_23  and  N_24 
REMARK   12  A    between atoms: N_24  and  C_26 
REMARK   13  A    between atoms: N_24  and  C_28 
ROOT
HETATM    1  C   UNL     1       6.193  25.324  54.234  1.00  0.00     0.091 A 
HETATM    2  C   UNL     1       5.571  26.348  53.483  1.00  0.00     0.068 A 
HETATM    3 CL   UNL     1       4.896  26.003  51.927  1.00  0.00    -0.081 Cl
HETATM    4  C   UNL     1       5.462  27.657  53.975  1.00  0.00     0.040 A 
HETATM    5  C   UNL     1       6.000  27.937  55.221  1.00  0.00    -0.011 A 
HETATM    6  C   UNL     1       6.654  26.923  55.951  1.00  0.00     0.009 A 
HETATM    7  C   UNL     1       7.134  27.537  57.219  1.00  0.00     0.093 A 
HETATM    8  N   UNL     1       7.800  27.071  58.228  1.00  0.00    -0.203 NA
HETATM    9  C   UNL     1       6.699  28.952  57.185  1.00  0.00     0.009 A 
HETATM   10  C   UNL     1       6.020  29.170  55.980  1.00  0.00    -0.011 A 
HETATM   11  C   UNL     1       6.896  29.933  58.146  1.00  0.00     0.053 A 
HETATM   12  C   UNL     1       6.388  31.205  57.882  1.00  0.00     0.091 A 
HETATM   13  C   UNL     1       5.678  31.436  56.676  1.00  0.00     0.068 A 
HETATM   14 CL   UNL     1       5.015  33.000  56.339  1.00  0.00    -0.081 Cl
HETATM   15  C   UNL     1       5.497  30.424  55.717  1.00  0.00     0.040 A 
HETATM   16  C   UNL     1       6.759  25.623  55.479  1.00  0.00     0.053 A 
ENDROOT
BRANCH   1  17
HETATM   17  O   UNL     1       6.239  24.072  53.668  1.00  0.00    -0.348 OA
BRANCH  17  18
HETATM   18  C   UNL     1       7.347  23.813  52.800  1.00  0.00     0.203 C 
BRANCH  18  19
HETATM   19  C   UNL     1       8.401  23.039  53.601  1.00  0.00     0.261 C 
BRANCH  19  20
HETATM   20  N   UNL     1       7.763  22.093  54.616  1.00  0.00    -0.070 N 
HETATM   21  H   UNL     1       6.764  22.355  54.617  1.00  0.00     0.279 HD
BRANCH  20  22
HETATM   22  C   UNL     1       8.271  22.312  56.031  1.00  0.00     0.230 C 
HETATM   23  C   UNL     1       8.422  20.991  56.765  1.00  0.00     0.034 C 
ENDBRANCH  20  22
BRANCH  20  24
HETATM   24  C   UNL     1       7.769  20.626  54.227  1.00  0.00     0.230 C 
HETATM   25  C   UNL     1       8.621  20.352  53.002  1.00  0.00     0.034 C 
ENDBRANCH  20  24
ENDBRANCH  19  20
ENDBRANCH  18  19
ENDBRANCH  17  18
ENDBRANCH   1  17
BRANCH   8  26
HETATM   26  N   UNL     1       8.184  25.782  58.172  1.00  0.00    -0.226 NA
HETATM   27  H   UNL     1       7.361  25.192  58.343  1.00  0.00     0.145 HD
HETATM   28  H   UNL     1       8.759  25.578  58.997  1.00  0.00     0.145 HD
ENDBRANCH   8  26
BRANCH  12  29
HETATM   29  O   UNL     1       6.505  32.266  58.750  1.00  0.00    -0.348 OA
BRANCH  29  30
HETATM   30  C   UNL     1       5.875  32.116  60.026  1.00  0.00     0.203 C 
BRANCH  30  31
HETATM   31  C   UNL     1       6.699  32.905  61.052  1.00  0.00     0.261 C 
BRANCH  31  32
HETATM   32  N   UNL     1       7.019  32.076  62.299  1.00  0.00    -0.070 N 
HETATM   33  H   UNL     1       6.533  31.179  62.129  1.00  0.00     0.279 HD
BRANCH  32  34
HETATM   34  C   UNL     1       8.479  31.708  62.467  1.00  0.00     0.230 C 
HETATM   35  C   UNL     1       8.966  30.729  61.415  1.00  0.00     0.034 C 
ENDBRANCH  32  34
BRANCH  32  36
HETATM   36  C   UNL     1       6.357  32.685  63.523  1.00  0.00     0.230 C 
HETATM   37  C   UNL     1       7.375  33.155  64.544  1.00  0.00     0.034 C 
ENDBRANCH  32  36
ENDBRANCH  31  32
ENDBRANCH  30  31
ENDBRANCH  29  30
ENDBRANCH  12  29
TORSDOF 13
ENDMDL
MODEL 2
REMARK VINA RESULT:      -7.8      2.384     10.261
REMARK  13 active torsions:
REMARK  status: ('A' for Active; 'I' for Inactive)
REMARK    1  A    between atoms: C_2  and  N_3 
REMARK    2  A    between atoms: N_3  and  C_5 
REMARK    3  A    between atoms: N_3  and  C_34 
REMARK    4  A    between atoms: C_5  and  C_6 
REMARK    5  A    between atoms: C_6  and  O_7 
REMARK    6  A    between atoms: O_7  and  C_8 
REMARK    7  A    between atoms: N_15  and  N_16 
REMARK    8  A    between atoms: C_20  and  O_21 
REMARK    9  A    between atoms: O_21  and  C_22 
REMARK   10  A    between atoms: C_22  and  C_23 
REMARK   11  A    between atoms: C_23  and  N_24 
REMARK   12  A    between atoms: N_24  and  C_26 
REMARK   13  A    between atoms: N_24  and  C_28 
ROOT
HETATM    1  C   UNL     1       6.408  31.829  58.738  1.00  0.00     0.091 A 
HETATM    2  C   UNL     1       7.672  31.283  59.062  1.00  0.00     0.068 A 
HETATM    3 CL   UNL     1       8.818  32.209  59.969  1.00  0.00    -0.081 Cl
HETATM    4  C   UNL     1       8.030  29.981  58.680  1.00  0.00     0.040 A 
HETATM    5  C   UNL     1       7.114  29.236  57.954  1.00  0.00    -0.011 A 
HETATM    6  C   UNL     1       5.870  29.796  57.600  1.00  0.00     0.009 A 
HETATM    7  C   UNL     1       5.134  28.767  56.815  1.00  0.00     0.093 A 
HETATM    8  N   UNL     1       3.973  28.761  56.240  1.00  0.00    -0.203 NA
HETATM    9  C   UNL     1       6.016  27.579  56.759  1.00  0.00     0.009 A 
HETATM   10  C   UNL     1       7.196  27.880  57.448  1.00  0.00    -0.011 A 
HETATM   11  C   UNL     1       5.770  26.357  56.150  1.00  0.00     0.053 A 
HETATM   12  C   UNL     1       6.766  25.384  56.233  1.00  0.00     0.091 A 
HETATM   13  C   UNL     1       7.959  25.666  56.947  1.00  0.00     0.068 A 
HETATM   14 CL   UNL     1       9.197  24.464  57.087  1.00  0.00    -0.081 Cl
HETATM   15  C   UNL     1       8.183  26.915  57.552  1.00  0.00     0.040 A 
HETATM   16  C   UNL     1       5.502  31.079  57.980  1.00  0.00     0.053 A 
ENDROOT
BRANCH   1  17
HETATM   17  O   UNL     1       6.151  33.108  59.169  1.00  0.00    -0.348 OA
BRANCH  17  18
HETATM   18  C   UNL     1       5.093  33.252  60.124  1.00  0.00     0.203 C 
BRANCH  18  19
HETATM   19  C   UNL     1       5.701  33.808  61.417  1.00  0.00     0.261 C 
BRANCH  19  20
HETATM   20  N   UNL     1       5.614  32.803  62.565  1.00  0.00    -0.070 N 
HETATM   21  H   UNL     1       4.911  32.115  62.250  1.00  0.00     0.279 HD
BRANCH  20  22
HETATM   22  C   UNL     1       5.080  33.415  63.848  1.00  0.00     0.230 C 
HETATM   23  C   UNL     1       4.789  34.894  63.666  1.00  0.00     0.034 C 
ENDBRANCH  20  22
BRANCH  20  24
HETATM   24  C   UNL     1       6.868  31.981  62.802  1.00  0.00     0.230 C 
HETATM   25  C   UNL     1       7.870  32.690  63.693  1.00  0.00     0.034 C 
ENDBRANCH  20  24
ENDBRANCH  19  20
ENDBRANCH  18  19
ENDBRANCH  17  18
ENDBRANCH   1  17
BRANCH   8  26
HETATM   26  N   UNL     1       3.241  29.889  56.312  1.00  0.00    -0.226 NA
HETATM   27  H   UNL     1       2.387  29.756  55.758  1.00  0.00     0.145 HD
HETATM   28  H   UNL     1       3.721  30.623  55.778  1.00  0.00     0.145 HD
ENDBRANCH   8  26
BRANCH  12  29
HETATM   29  O   UNL     1       6.650  24.129  55.682  1.00  0.00    -0.348 OA
BRANCH  29  30
HETATM   30  C   UNL     1       6.666  24.057  54.253  1.00  0.00     0.203 C 
BRANCH  30  31
HETATM   31  C   UNL     1       7.935  23.302  53.836  1.00  0.00     0.261 C 
BRANCH  31  32
HETATM   32  N   UNL     1       7.932  21.851  54.324  1.00  0.00    -0.070 N 
HETATM   33  H   UNL     1       7.133  21.814  54.979  1.00  0.00     0.279 HD
BRANCH  32  34
HETATM   34  C   UNL     1       7.620  20.817  53.261  1.00  0.00     0.230 C 
HETATM   35  C   UNL     1       8.861  20.137  52.716  1.00  0.00     0.034 C 
ENDBRANCH  32  34
BRANCH  32  36
HETATM   36  C   UNL     1       9.170  21.572  55.159  1.00  0.00     0.230 C 
HETATM   37  C   UNL     1       8.860  20.699  56.360  1.00  0.00     0.034 C 
ENDBRANCH  32  36
ENDBRANCH  31  32
ENDBRANCH  30  31
ENDBRANCH  29  30
ENDBRANCH  12  29
TORSDOF 13
ENDMDL
MODEL 3
REMARK VINA RESULT:      -7.7      2.408      3.051
REMARK  13 active torsions:
REMARK  status: ('A' for Active; 'I' for Inactive)
REMARK    1  A    between atoms: C_2  and  N_3 
REMARK    2  A    between atoms: N_3  and  C_5 
REMARK    3  A    between atoms: N_3  and  C_34 
REMARK    4  A    between atoms: C_5  and  C_6 
REMARK    5  A    between atoms: C_6  and  O_7 
REMARK    6  A    between atoms: O_7  and  C_8 
REMARK    7  A    between atoms: N_15  and  N_16 
REMARK    8  A    between atoms: C_20  and  O_21 
REMARK    9  A    between atoms: O_21  and  C_22 
REMARK   10  A    between atoms: C_22  and  C_23 
REMARK   11  A    between atoms: C_23  and  N_24 
REMARK   12  A    between atoms: N_24  and  C_26 
REMARK   13  A    between atoms: N_24  and  C_28 
ROOT
HETATM    1  C   UNL     1       6.884  25.429  56.156  1.00  0.00     0.091 A 
HETATM    2  C   UNL     1       8.076  25.591  56.901  1.00  0.00     0.068 A 
HETATM    3 CL   UNL     1       9.246  24.319  56.965  1.00  0.00    -0.081 Cl
HETATM    4  C   UNL     1       8.356  26.781  57.588  1.00  0.00     0.040 A 
HETATM    5  C   UNL     1       7.421  27.803  57.538  1.00  0.00    -0.011 A 
HETATM    6  C   UNL     1       6.216  27.624  56.827  1.00  0.00     0.009 A 
HETATM    7  C   UNL     1       5.427  28.876  56.982  1.00  0.00     0.093 A 
HETATM    8  N   UNL     1       4.258  29.240  56.557  1.00  0.00    -0.203 NA
HETATM    9  C   UNL     1       6.254  29.790  57.801  1.00  0.00     0.009 A 
HETATM   10  C   UNL     1       7.445  29.128  58.123  1.00  0.00    -0.011 A 
HETATM   11  C   UNL     1       5.958  31.083  58.208  1.00  0.00     0.053 A 
HETATM   12  C   UNL     1       6.907  31.748  58.984  1.00  0.00     0.091 A 
HETATM   13  C   UNL     1       8.128  31.099  59.300  1.00  0.00     0.068 A 
HETATM   14 CL   UNL     1       9.333  31.916  60.239  1.00  0.00    -0.081 Cl
HETATM   15  C   UNL     1       8.401  29.786  58.878  1.00  0.00     0.040 A 
HETATM   16  C   UNL     1       5.934  26.455  56.135  1.00  0.00     0.053 A 
ENDROOT
BRANCH   1  17
HETATM   17  O   UNL     1       6.710  24.228  55.509  1.00  0.00    -0.348 OA
BRANCH  17  18
HETATM   18  C   UNL     1       6.896  24.246  54.089  1.00  0.00     0.203 C 
BRANCH  18  19
HETATM   19  C   UNL     1       8.073  23.320  53.758  1.00  0.00     0.261 C 
BRANCH  19  20
HETATM   20  N   UNL     1       7.851  21.904  54.286  1.00  0.00    -0.070 N 
HETATM   21  H   UNL     1       6.962  21.963  54.810  1.00  0.00     0.279 HD
BRANCH  20  22
HETATM   22  C   UNL     1       8.913  21.469  55.280  1.00  0.00     0.230 C 
HETATM   23  C   UNL     1       8.286  20.782  56.481  1.00  0.00     0.034 C 
ENDBRANCH  20  22
BRANCH  20  24
HETATM   24  C   UNL     1       7.594  20.850  53.225  1.00  0.00     0.230 C 
HETATM   25  C   UNL     1       8.860  20.126  52.806  1.00  0.00     0.034 C 
ENDBRANCH  20  24
ENDBRANCH  19  20
ENDBRANCH  18  19
ENDBRANCH  17  18
ENDBRANCH   1  17
BRANCH   8  26
HETATM   26  N   UNL     1       3.554  28.342  55.840  1.00  0.00    -0.226 NA
HETATM   27  H   UNL     1       2.734  28.816  55.445  1.00  0.00     0.145 HD
HETATM   28  H   UNL     1       3.117  27.678  56.490  1.00  0.00     0.145 HD
ENDBRANCH   8  26
BRANCH  12  29
HETATM   29  O   UNL     1       6.745  33.034  59.446  1.00  0.00    -0.348 OA
BRANCH  29  30
HETATM   30  C   UNL     1       5.733  33.230  60.439  1.00  0.00     0.203 C 
BRANCH  30  31
HETATM   31  C   UNL     1       6.397  33.111  61.817  1.00  0.00     0.261 C 
BRANCH  31  32
HETATM   32  N   UNL     1       5.460  33.536  62.950  1.00  0.00    -0.070 N 
HETATM   33  H   UNL     1       4.698  32.838  62.914  1.00  0.00     0.279 HD
BRANCH  32  34
HETATM   34  C   UNL     1       6.043  33.412  64.343  1.00  0.00     0.230 C 
HETATM   35  C   UNL     1       7.540  33.171  64.338  1.00  0.00     0.034 C 
ENDBRANCH  32  34
BRANCH  32  36
HETATM   36  C   UNL     1       4.817  34.874  62.630  1.00  0.00     0.230 C 
HETATM   37  C   UNL     1       5.660  36.039  63.113  1.00  0.00     0.034 C 
ENDBRANCH  32  36
ENDBRANCH  31  32
ENDBRANCH  30  31
ENDBRANCH  29  30
ENDBRANCH  12  29
TORSDOF 13
ENDMDL
MODEL 4
REMARK VINA RESULT:      -7.6      0.990      1.945
REMARK  13 active torsions:
REMARK  status: ('A' for Active; 'I' for Inactive)
REMARK    1  A    between atoms: C_2  and  N_3 
REMARK    2  A    between atoms: N_3  and  C_5 
REMARK    3  A    between atoms: N_3  and  C_34 
REMARK    4  A    between atoms: C_5  and  C_6 
REMARK    5  A    between atoms: C_6  and  O_7 
REMARK    6  A    between atoms: O_7  and  C_8 
REMARK    7  A    between atoms: N_15  and  N_16 
REMARK    8  A    between atoms: C_20  and  O_21 
REMARK    9  A    between atoms: O_21  and  C_22 
REMARK   10  A    between atoms: C_22  and  C_23 
REMARK   11  A    between atoms: C_23  and  N_24 
REMARK   12  A    between atoms: N_24  and  C_26 
REMARK   13  A    between atoms: N_24  and  C_28 
ROOT
HETATM    1  C   UNL     1       6.073  26.551  53.927  1.00  0.00     0.091 A 
HETATM    2  C   UNL     1       5.357  27.645  53.389  1.00  0.00     0.068 A 
HETATM    3 CL   UNL     1       4.585  27.510  51.846  1.00  0.00    -0.081 Cl
HETATM    4  C   UNL     1       5.232  28.856  54.086  1.00  0.00     0.040 A 
HETATM    5  C   UNL     1       5.848  28.967  55.322  1.00  0.00    -0.011 A 
HETATM    6  C   UNL     1       6.594  27.888  55.840  1.00  0.00     0.009 A 
HETATM    7  C   UNL     1       7.140  28.323  57.154  1.00  0.00     0.093 A 
HETATM    8  N   UNL     1       7.896  27.742  58.031  1.00  0.00    -0.203 NA
HETATM    9  C   UNL     1       6.648  29.703  57.371  1.00  0.00     0.009 A 
HETATM   10  C   UNL     1       5.875  30.069  56.263  1.00  0.00    -0.011 A 
HETATM   11  C   UNL     1       6.876  30.533  58.459  1.00  0.00     0.053 A 
HETATM   12  C   UNL     1       6.300  31.803  58.432  1.00  0.00     0.091 A 
HETATM   13  C   UNL     1       5.495  32.181  57.326  1.00  0.00     0.068 A 
HETATM   14 CL   UNL     1       4.748  33.743  57.284  1.00  0.00    -0.081 Cl
HETATM   15  C   UNL     1       5.284  31.320  56.235  1.00  0.00     0.040 A 
HETATM   16  C   UNL     1       6.715  26.683  55.163  1.00  0.00     0.053 A 
ENDROOT
BRANCH   1  17
HETATM   17  O   UNL     1       6.126  25.405  53.170  1.00  0.00    -0.348 OA
BRANCH  17  18
HETATM   18  C   UNL     1       6.344  24.185  53.888  1.00  0.00     0.203 C 
BRANCH  18  19
HETATM   19  C   UNL     1       7.534  23.466  53.241  1.00  0.00     0.261 C 
BRANCH  19  20
HETATM   20  N   UNL     1       8.366  22.701  54.270  1.00  0.00    -0.070 N 
HETATM   21  H   UNL     1       9.130  23.352  54.516  1.00  0.00     0.279 HD
BRANCH  20  22
HETATM   22  C   UNL     1       9.022  21.458  53.696  1.00  0.00     0.230 C 
HETATM   23  C   UNL     1       8.016  20.615  52.933  1.00  0.00     0.034 C 
ENDBRANCH  20  22
BRANCH  20  24
HETATM   24  C   UNL     1       7.668  22.423  55.589  1.00  0.00     0.230 C 
HETATM   25  C   UNL     1       8.414  23.002  56.776  1.00  0.00     0.034 C 
ENDBRANCH  20  24
ENDBRANCH  19  20
ENDBRANCH  18  19
ENDBRANCH  17  18
ENDBRANCH   1  17
BRANCH   8  26
HETATM   26  N   UNL     1       8.326  26.497  57.748  1.00  0.00    -0.226 NA
HETATM   27  H   UNL     1       8.123  26.303  56.760  1.00  0.00     0.145 HD
HETATM   28  H   UNL     1       7.710  25.826  58.221  1.00  0.00     0.145 HD
ENDBRANCH   8  26
BRANCH  12  29
HETATM   29  O   UNL     1       6.438  32.722  59.446  1.00  0.00    -0.348 OA
BRANCH  29  30
HETATM   30  C   UNL     1       5.437  32.696  60.469  1.00  0.00     0.203 C 
BRANCH  30  31
HETATM   31  C   UNL     1       6.065  32.076  61.724  1.00  0.00     0.261 C 
BRANCH  31  32
HETATM   32  N   UNL     1       7.027  33.038  62.425  1.00  0.00    -0.070 N 
HETATM   33  H   UNL     1       7.166  33.794  61.734  1.00  0.00     0.279 HD
BRANCH  32  34
HETATM   34  C   UNL     1       6.465  33.724  63.654  1.00  0.00     0.230 C 
HETATM   35  C   UNL     1       7.426  33.715  64.827  1.00  0.00     0.034 C 
ENDBRANCH  32  34
BRANCH  32  36
HETATM   36  C   UNL     1       8.386  32.386  62.610  1.00  0.00     0.230 C 
HETATM   37  C   UNL     1       8.315  30.877  62.477  1.00  0.00     0.034 C 
ENDBRANCH  32  36
ENDBRANCH  31  32
ENDBRANCH  30  31
ENDBRANCH  29  30
ENDBRANCH  12  29
TORSDOF 13
ENDMDL
MODEL 5
REMARK VINA RESULT:      -7.3      3.273     11.142
REMARK  13 active torsions:
REMARK  status: ('A' for Active; 'I' for Inactive)
REMARK    1  A    between atoms: C_2  and  N_3 
REMARK    2  A    between atoms: N_3  and  C_5 
REMARK    3  A    between atoms: N_3  and  C_34 
REMARK    4  A    between atoms: C_5  and  C_6 
REMARK    5  A    between atoms: C_6  and  O_7 
REMARK    6  A    between atoms: O_7  and  C_8 
REMARK    7  A    between atoms: N_15  and  N_16 
REMARK    8  A    between atoms: C_20  and  O_21 
REMARK    9  A    between atoms: O_21  and  C_22 
REMARK   10  A    between atoms: C_22  and  C_23 
REMARK   11  A    between atoms: C_23  and  N_24 
REMARK   12  A    between atoms: N_24  and  C_26 
REMARK   13  A    between atoms: N_24  and  C_28 
ROOT
HETATM    1  C   UNL     1       5.879  32.940  62.251  1.00  0.00     0.091 A 
HETATM    2  C   UNL     1       7.237  32.555  62.347  1.00  0.00     0.068 A 
HETATM    3 CL   UNL     1       8.144  32.902  63.778  1.00  0.00    -0.081 Cl
HETATM    4  C   UNL     1       7.881  31.870  61.306  1.00  0.00     0.040 A 
HETATM    5  C   UNL     1       7.157  31.589  60.158  1.00  0.00    -0.011 A 
HETATM    6  C   UNL     1       5.815  32.008  60.049  1.00  0.00     0.009 A 
HETATM    7  C   UNL     1       5.330  31.581  58.709  1.00  0.00     0.093 A 
HETATM    8  N   UNL     1       4.198  31.723  58.094  1.00  0.00    -0.203 NA
HETATM    9  C   UNL     1       6.460  30.876  58.064  1.00  0.00     0.009 A 
HETATM   10  C   UNL     1       7.545  30.890  58.950  1.00  0.00    -0.011 A 
HETATM   11  C   UNL     1       6.498  30.282  56.811  1.00  0.00     0.053 A 
HETATM   12  C   UNL     1       7.691  29.673  56.421  1.00  0.00     0.091 A 
HETATM   13  C   UNL     1       8.792  29.660  57.317  1.00  0.00     0.068 A 
HETATM   14 CL   UNL     1      10.274  28.886  56.866  1.00  0.00    -0.081 Cl
HETATM   15  C   UNL     1       8.727  30.273  58.580  1.00  0.00     0.040 A 
HETATM   16  C   UNL     1       5.165  32.678  61.076  1.00  0.00     0.053 A 
ENDROOT
BRANCH   1  17
HETATM   17  O   UNL     1       5.338  33.597  63.330  1.00  0.00    -0.348 OA
BRANCH  17  18
HETATM   18  C   UNL     1       5.501  35.020  63.348  1.00  0.00     0.203 C 
BRANCH  18  19
HETATM   19  C   UNL     1       5.410  35.484  64.807  1.00  0.00     0.261 C 
BRANCH  19  20
HETATM   20  N   UNL     1       5.437  34.308  65.782  1.00  0.00    -0.070 N 
HETATM   21  H   UNL     1       5.369  33.473  65.178  1.00  0.00     0.279 HD
BRANCH  20  22
HETATM   22  C   UNL     1       4.232  34.277  66.706  1.00  0.00     0.230 C 
HETATM   23  C   UNL     1       3.370  35.512  66.517  1.00  0.00     0.034 C 
ENDBRANCH  20  22
BRANCH  20  24
HETATM   24  C   UNL     1       6.741  34.122  66.536  1.00  0.00     0.230 C 
HETATM   25  C   UNL     1       6.608  34.432  68.015  1.00  0.00     0.034 C 
ENDBRANCH  20  24
ENDBRANCH  19  20
ENDBRANCH  18  19
ENDBRANCH  17  18
ENDBRANCH   1  17
BRANCH   8  26
HETATM   26  N   UNL     1       3.227  32.401  58.736  1.00  0.00    -0.226 NA
HETATM   27  H   UNL     1       3.667  33.000  59.445  1.00  0.00     0.145 HD
HETATM   28  H   UNL     1       2.701  31.741  59.320  1.00  0.00     0.145 HD
ENDBRANCH   8  26
BRANCH  12  29
HETATM   29  O   UNL     1       7.863  29.042  55.212  1.00  0.00    -0.348 OA
BRANCH  29  30
HETATM   30  C   UNL     1       6.907  28.030  54.880  1.00  0.00     0.203 C 
BRANCH  30  31
HETATM   31  C   UNL     1       7.500  26.674  55.281  1.00  0.00     0.261 C 
BRANCH  31  32
HETATM   32  N   UNL     1       7.033  25.543  54.361  1.00  0.00    -0.070 N 
HETATM   33  H   UNL     1       7.238  25.898  53.412  1.00  0.00     0.279 HD
BRANCH  32  34
HETATM   34  C   UNL     1       7.821  24.254  54.479  1.00  0.00     0.230 C 
HETATM   35  C   UNL     1       8.032  23.566  53.144  1.00  0.00     0.034 C 
ENDBRANCH  32  34
BRANCH  32  36
HETATM   36  C   UNL     1       5.523  25.391  54.434  1.00  0.00     0.230 C 
HETATM   37  C   UNL     1       4.883  25.420  53.059  1.00  0.00     0.034 C 
ENDBRANCH  32  36
ENDBRANCH  31  32
ENDBRANCH  30  31
ENDBRANCH  29  30
ENDBRANCH  12  29
TORSDOF 13
ENDMDL
MODEL 6
REMARK VINA RESULT:      -7.3      3.110     10.238
REMARK  13 active torsions:
REMARK  status: ('A' for Active; 'I' for Inactive)
REMARK    1  A    between atoms: C_2  and  N_3 
REMARK    2  A    between atoms: N_3  and  C_5 
REMARK    3  A    between atoms: N_3  and  C_34 
REMARK    4  A    between atoms: C_5  and  C_6 
REMARK    5  A    between atoms: C_6  and  O_7 
REMARK    6  A    between atoms: O_7  and  C_8 
REMARK    7  A    between atoms: N_15  and  N_16 
REMARK    8  A    between atoms: C_20  and  O_21 
REMARK    9  A    between atoms: O_21  and  C_22 
REMARK   10  A    between atoms: C_22  and  C_23 
REMARK   11  A    between atoms: C_23  and  N_24 
REMARK   12  A    between atoms: N_24  and  C_26 
REMARK   13  A    between atoms: N_24  and  C_28 
ROOT
HETATM    1  C   UNL     1       7.059  31.233  58.716  1.00  0.00     0.091 A 
HETATM    2  C   UNL     1       8.208  30.409  58.755  1.00  0.00     0.068 A 
HETATM    3 CL   UNL     1       9.573  30.859  59.718  1.00  0.00    -0.081 Cl
HETATM    4  C   UNL     1       8.272  29.204  58.039  1.00  0.00     0.040 A 
HETATM    5  C   UNL     1       7.181  28.840  57.268  1.00  0.00    -0.011 A 
HETATM    6  C   UNL     1       6.051  29.682  57.200  1.00  0.00     0.009 A 
HETATM    7  C   UNL     1       5.075  29.031  56.285  1.00  0.00     0.093 A 
HETATM    8  N   UNL     1       3.900  29.375  55.860  1.00  0.00    -0.203 NA
HETATM    9  C   UNL     1       5.697  27.760  55.850  1.00  0.00     0.009 A 
HETATM   10  C   UNL     1       6.957  27.664  56.452  1.00  0.00    -0.011 A 
HETATM   11  C   UNL     1       5.172  26.795  55.003  1.00  0.00     0.053 A 
HETATM   12  C   UNL     1       5.958  25.672  54.740  1.00  0.00     0.091 A 
HETATM   13  C   UNL     1       7.228  25.549  55.360  1.00  0.00     0.068 A 
HETATM   14 CL   UNL     1       8.209  24.152  55.071  1.00  0.00    -0.081 Cl
HETATM   15  C   UNL     1       7.737  26.546  56.212  1.00  0.00     0.040 A 
HETATM   16  C   UNL     1       5.973  30.871  57.911  1.00  0.00     0.053 A 
ENDROOT
BRANCH   1  17
HETATM   17  O   UNL     1       7.091  32.387  59.461  1.00  0.00    -0.348 OA
BRANCH  17  18
HETATM   18  C   UNL     1       6.146  32.470  60.534  1.00  0.00     0.203 C 
BRANCH  18  19
HETATM   19  C   UNL     1       6.799  33.263  61.674  1.00  0.00     0.261 C 
BRANCH  19  20
HETATM   20  N   UNL     1       5.780  33.685  62.731  1.00  0.00    -0.070 N 
HETATM   21  H   UNL     1       5.481  34.629  62.436  1.00  0.00     0.279 HD
BRANCH  20  22
HETATM   22  C   UNL     1       6.388  33.834  64.114  1.00  0.00     0.230 C 
HETATM   23  C   UNL     1       7.698  33.073  64.217  1.00  0.00     0.034 C 
ENDBRANCH  20  22
BRANCH  20  24
HETATM   24  C   UNL     1       4.497  32.874  62.755  1.00  0.00     0.230 C 
HETATM   25  C   UNL     1       3.257  33.744  62.680  1.00  0.00     0.034 C 
ENDBRANCH  20  24
ENDBRANCH  19  20
ENDBRANCH  18  19
ENDBRANCH  17  18
ENDBRANCH   1  17
BRANCH   8  26
HETATM   26  N   UNL     1       3.414  30.559  56.279  1.00  0.00    -0.226 NA
HETATM   27  H   UNL     1       3.933  31.307  55.804  1.00  0.00     0.145 HD
HETATM   28  H   UNL     1       3.696  30.700  57.256  1.00  0.00     0.145 HD
ENDBRANCH   8  26
BRANCH  12  29
HETATM   29  O   UNL     1       5.558  24.637  53.927  1.00  0.00    -0.348 OA
BRANCH  29  30
HETATM   30  C   UNL     1       4.621  24.964  52.896  1.00  0.00     0.203 C 
BRANCH  30  31
HETATM   31  C   UNL     1       5.409  25.523  51.705  1.00  0.00     0.261 C 
BRANCH  31  32
HETATM   32  N   UNL     1       4.645  26.629  50.973  1.00  0.00    -0.070 N 
HETATM   33  H   UNL     1       3.653  26.395  51.141  1.00  0.00     0.279 HD
BRANCH  32  34
HETATM   34  C   UNL     1       4.825  28.020  51.547  1.00  0.00     0.230 C 
HETATM   35  C   UNL     1       3.544  28.590  52.125  1.00  0.00     0.034 C 
ENDBRANCH  32  34
BRANCH  32  36
HETATM   36  C   UNL     1       4.854  26.513  49.473  1.00  0.00     0.230 C 
HETATM   37  C   UNL     1       3.610  26.016  48.763  1.00  0.00     0.034 C 
ENDBRANCH  32  36
ENDBRANCH  31  32
ENDBRANCH  30  31
ENDBRANCH  29  30
ENDBRANCH  12  29
TORSDOF 13
ENDMDL
MODEL 7
REMARK VINA RESULT:      -7.1      3.644     11.188
REMARK  13 active torsions:
REMARK  status: ('A' for Active; 'I' for Inactive)
REMARK    1  A    between atoms: C_2  and  N_3 
REMARK    2  A    between atoms: N_3  and  C_5 
REMARK    3  A    between atoms: N_3  and  C_34 
REMARK    4  A    between atoms: C_5  and  C_6 
REMARK    5  A    between atoms: C_6  and  O_7 
REMARK    6  A    between atoms: O_7  and  C_8 
REMARK    7  A    between atoms: N_15  and  N_16 
REMARK    8  A    between atoms: C_20  and  O_21 
REMARK    9  A    between atoms: O_21  and  C_22 
REMARK   10  A    between atoms: C_22  and  C_23 
REMARK   11  A    between atoms: C_23  and  N_24 
REMARK   12  A    between atoms: N_24  and  C_26 
REMARK   13  A    between atoms: N_24  and  C_28 
ROOT
HETATM    1  C   UNL     1       5.247  33.666  63.436  1.00  0.00     0.091 A 
HETATM    2  C   UNL     1       6.622  33.331  63.419  1.00  0.00     0.068 A 
HETATM    3 CL   UNL     1       7.629  33.704  64.775  1.00  0.00    -0.081 Cl
HETATM    4  C   UNL     1       7.204  32.677  62.323  1.00  0.00     0.040 A 
HETATM    5  C   UNL     1       6.401  32.376  61.235  1.00  0.00    -0.011 A 
HETATM    6  C   UNL     1       5.039  32.745  61.239  1.00  0.00     0.009 A 
HETATM    7  C   UNL     1       4.464  32.309  59.938  1.00  0.00     0.093 A 
HETATM    8  N   UNL     1       3.282  32.411  59.418  1.00  0.00    -0.203 NA
HETATM    9  C   UNL     1       5.564  31.649  59.198  1.00  0.00     0.009 A 
HETATM   10  C   UNL     1       6.715  31.699  59.993  1.00  0.00    -0.011 A 
HETATM   11  C   UNL     1       5.522  31.065  57.941  1.00  0.00     0.053 A 
HETATM   12  C   UNL     1       6.701  30.504  57.451  1.00  0.00     0.091 A 
HETATM   13  C   UNL     1       7.870  30.526  58.254  1.00  0.00     0.068 A 
HETATM   14 CL   UNL     1       9.339  29.811  57.679  1.00  0.00    -0.081 Cl
HETATM   15  C   UNL     1       7.886  31.129  59.524  1.00  0.00     0.040 A 
HETATM   16  C   UNL     1       4.451  33.384  62.321  1.00  0.00     0.053 A 
ENDROOT
BRANCH   1  17
HETATM   17  O   UNL     1       4.771  34.296  64.561  1.00  0.00    -0.348 OA
BRANCH  17  18
HETATM   18  C   UNL     1       3.767  35.294  64.347  1.00  0.00     0.203 C 
BRANCH  18  19
HETATM   19  C   UNL     1       4.440  36.668  64.462  1.00  0.00     0.261 C 
BRANCH  19  20
HETATM   20  N   UNL     1       4.512  37.382  63.113  1.00  0.00    -0.070 N 
HETATM   21  H   UNL     1       4.412  38.383  63.348  1.00  0.00     0.279 HD
BRANCH  20  22
HETATM   22  C   UNL     1       3.355  37.031  62.195  1.00  0.00     0.230 C 
HETATM   23  C   UNL     1       3.854  36.627  60.819  1.00  0.00     0.034 C 
ENDBRANCH  20  22
BRANCH  20  24
HETATM   24  C   UNL     1       5.852  37.293  62.404  1.00  0.00     0.230 C 
HETATM   25  C   UNL     1       6.554  38.635  62.316  1.00  0.00     0.034 C 
ENDBRANCH  20  24
ENDBRANCH  19  20
ENDBRANCH  18  19
ENDBRANCH  17  18
ENDBRANCH   1  17
BRANCH   8  26
HETATM   26  N   UNL     1       2.342  33.049  60.142  1.00  0.00    -0.226 NA
HETATM   27  H   UNL     1       1.419  32.767  59.791  1.00  0.00     0.145 HD
HETATM   28  H   UNL     1       2.361  34.045  59.895  1.00  0.00     0.145 HD
ENDBRANCH   8  26
BRANCH  12  29
HETATM   29  O   UNL     1       6.798  29.887  56.226  1.00  0.00    -0.348 OA
BRANCH  29  30
HETATM   30  C   UNL     1       6.206  28.588  56.119  1.00  0.00     0.203 C 
BRANCH  30  31
HETATM   31  C   UNL     1       7.209  27.671  55.408  1.00  0.00     0.261 C 
BRANCH  31  32
HETATM   32  N   UNL     1       7.201  26.251  55.979  1.00  0.00    -0.070 N 
HETATM   33  H   UNL     1       7.869  25.741  55.378  1.00  0.00     0.279 HD
BRANCH  32  34
HETATM   34  C   UNL     1       7.756  26.122  57.383  1.00  0.00     0.230 C 
HETATM   35  C   UNL     1       8.668  24.921  57.550  1.00  0.00     0.034 C 
ENDBRANCH  32  34
BRANCH  32  36
HETATM   36  C   UNL     1       5.849  25.597  55.752  1.00  0.00     0.230 C 
HETATM   37  C   UNL     1       5.123  25.325  57.055  1.00  0.00     0.034 C 
ENDBRANCH  32  36
ENDBRANCH  31  32
ENDBRANCH  30  31
ENDBRANCH  29  30
ENDBRANCH  12  29
TORSDOF 13
ENDMDL
MODEL 8
REMARK VINA RESULT:      -7.1      3.391     10.834
REMARK  13 active torsions:
REMARK  status: ('A' for Active; 'I' for Inactive)
REMARK    1  A    between atoms: C_2  and  N_3 
REMARK    2  A    between atoms: N_3  and  C_5 
REMARK    3  A    between atoms: N_3  and  C_34 
REMARK    4  A    between atoms: C_5  and  C_6 
REMARK    5  A    between atoms: C_6  and  O_7 
REMARK    6  A    between atoms: O_7  and  C_8 
REMARK    7  A    between atoms: N_15  and  N_16 
REMARK    8  A    between atoms: C_20  and  O_21 
REMARK    9  A    between atoms: O_21  and  C_22 
REMARK   10  A    between atoms: C_22  and  C_23 
REMARK   11  A    between atoms: C_23  and  N_24 
REMARK   12  A    between atoms: N_24  and  C_26 
REMARK   13  A    between atoms: N_24  and  C_28 
ROOT
HETATM    1  C   UNL     1       5.955  33.250  62.042  1.00  0.00     0.091 A 
HETATM    2  C   UNL     1       7.245  32.679  62.154  1.00  0.00     0.068 A 
HETATM    3 CL   UNL     1       8.197  32.946  63.574  1.00  0.00    -0.081 Cl
HETATM    4  C   UNL     1       7.782  31.873  61.140  1.00  0.00     0.040 A 
HETATM    5  C   UNL     1       7.022  31.656  60.002  1.00  0.00    -0.011 A 
HETATM    6  C   UNL     1       5.752  32.257  59.876  1.00  0.00     0.009 A 
HETATM    7  C   UNL     1       5.207  31.856  58.550  1.00  0.00     0.093 A 
HETATM    8  N   UNL     1       4.105  32.134  57.929  1.00  0.00    -0.203 NA
HETATM    9  C   UNL     1       6.224  30.974  57.934  1.00  0.00     0.009 A 
HETATM   10  C   UNL     1       7.303  30.866  58.820  1.00  0.00    -0.011 A 
HETATM   11  C   UNL     1       6.173  30.336  56.703  1.00  0.00     0.053 A 
HETATM   12  C   UNL     1       7.267  29.550  56.338  1.00  0.00     0.091 A 
HETATM   13  C   UNL     1       8.357  29.413  57.235  1.00  0.00     0.068 A 
HETATM   14 CL   UNL     1       9.713  28.421  56.815  1.00  0.00    -0.081 Cl
HETATM   15  C   UNL     1       8.384  30.075  58.475  1.00  0.00     0.040 A 
HETATM   16  C   UNL     1       5.207  33.049  60.876  1.00  0.00     0.053 A 
ENDROOT
BRANCH   1  17
HETATM   17  O   UNL     1       5.516  34.015  63.095  1.00  0.00    -0.348 OA
BRANCH  17  18
HETATM   18  C   UNL     1       5.555  35.434  62.903  1.00  0.00     0.203 C 
BRANCH  18  19
HETATM   19  C   UNL     1       5.029  36.096  64.182  1.00  0.00     0.261 C 
BRANCH  19  20
HETATM   20  N   UNL     1       3.530  35.867  64.367  1.00  0.00    -0.070 N 
HETATM   21  H   UNL     1       3.161  36.795  64.634  1.00  0.00     0.279 HD
BRANCH  20  22
HETATM   22  C   UNL     1       3.211  34.927  65.516  1.00  0.00     0.230 C 
HETATM   23  C   UNL     1       4.421  34.736  66.414  1.00  0.00     0.034 C 
ENDBRANCH  20  22
BRANCH  20  24
HETATM   24  C   UNL     1       2.769  35.507  63.105  1.00  0.00     0.230 C 
HETATM   25  C   UNL     1       2.151  34.123  63.172  1.00  0.00     0.034 C 
ENDBRANCH  20  24
ENDBRANCH  19  20
ENDBRANCH  18  19
ENDBRANCH  17  18
ENDBRANCH   1  17
BRANCH   8  26
HETATM   26  N   UNL     1       3.242  32.966  58.544  1.00  0.00    -0.226 NA
HETATM   27  H   UNL     1       3.506  33.931  58.314  1.00  0.00     0.145 HD
HETATM   28  H   UNL     1       3.426  32.936  59.553  1.00  0.00     0.145 HD
ENDBRANCH   8  26
BRANCH  12  29
HETATM   29  O   UNL     1       7.344  28.858  55.152  1.00  0.00    -0.348 OA
BRANCH  29  30
HETATM   30  C   UNL     1       6.116  28.323  54.647  1.00  0.00     0.203 C 
BRANCH  30  31
HETATM   31  C   UNL     1       6.027  26.856  55.087  1.00  0.00     0.261 C 
BRANCH  31  32
HETATM   32  N   UNL     1       7.381  26.147  55.017  1.00  0.00    -0.070 N 
HETATM   33  H   UNL     1       8.061  26.923  54.945  1.00  0.00     0.279 HD
BRANCH  32  34
HETATM   34  C   UNL     1       7.775  25.392  56.270  1.00  0.00     0.230 C 
HETATM   35  C   UNL     1       7.085  25.915  57.516  1.00  0.00     0.034 C 
ENDBRANCH  32  34
BRANCH  32  36
HETATM   36  C   UNL     1       7.502  25.364  53.721  1.00  0.00     0.230 C 
HETATM   37  C   UNL     1       7.946  23.933  53.961  1.00  0.00     0.034 C 
ENDBRANCH  32  36
ENDBRANCH  31  32
ENDBRANCH  30  31
ENDBRANCH  29  30
ENDBRANCH  12  29
TORSDOF 13
ENDMDL
MODEL 9
REMARK VINA RESULT:      -7.1      3.400      5.574
REMARK  13 active torsions:
REMARK  status: ('A' for Active; 'I' for Inactive)
REMARK    1  A    between atoms: C_2  and  N_3 
REMARK    2  A    between atoms: N_3  and  C_5 
REMARK    3  A    between atoms: N_3  and  C_34 
REMARK    4  A    between atoms: C_5  and  C_6 
REMARK    5  A    between atoms: C_6  and  O_7 
REMARK    6  A    between atoms: O_7  and  C_8 
REMARK    7  A    between atoms: N_15  and  N_16 
REMARK    8  A    between atoms: C_20  and  O_21 
REMARK    9  A    between atoms: O_21  and  C_22 
REMARK   10  A    between atoms: C_22  and  C_23 
REMARK   11  A    between atoms: C_23  and  N_24 
REMARK   12  A    between atoms: N_24  and  C_26 
REMARK   13  A    between atoms: N_24  and  C_28 
ROOT
HETATM    1  C   UNL     1       7.245  29.731  56.511  1.00  0.00     0.091 A 
HETATM    2  C   UNL     1       8.314  29.637  57.432  1.00  0.00     0.068 A 
HETATM    3 CL   UNL     1       9.741  28.748  57.027  1.00  0.00    -0.081 Cl
HETATM    4  C   UNL     1       8.263  30.271  58.683  1.00  0.00     0.040 A 
HETATM    5  C   UNL     1       7.121  30.985  59.011  1.00  0.00    -0.011 A 
HETATM    6  C   UNL     1       6.041  31.045  58.105  1.00  0.00     0.009 A 
HETATM    7  C   UNL     1       4.974  31.856  58.751  1.00  0.00     0.093 A 
HETATM    8  N   UNL     1       3.783  32.204  58.377  1.00  0.00    -0.203 NA
HETATM    9  C   UNL     1       5.509  32.276  60.066  1.00  0.00     0.009 A 
HETATM   10  C   UNL     1       6.798  31.745  60.201  1.00  0.00    -0.011 A 
HETATM   11  C   UNL     1       4.894  33.059  61.032  1.00  0.00     0.053 A 
HETATM   12  C   UNL     1       5.609  33.320  62.201  1.00  0.00     0.091 A 
HETATM   13  C   UNL     1       6.924  32.808  62.343  1.00  0.00     0.068 A 
HETATM   14 CL   UNL     1       7.840  33.142  63.774  1.00  0.00    -0.081 Cl
HETATM   15  C   UNL     1       7.522  32.013  61.349  1.00  0.00     0.040 A 
HETATM   16  C   UNL     1       6.085  30.430  56.862  1.00  0.00     0.053 A 
ENDROOT
BRANCH   1  17
HETATM   17  O   UNL     1       7.398  29.084  55.308  1.00  0.00    -0.348 OA
BRANCH  17  18
HETATM   18  C   UNL     1       6.425  28.077  55.006  1.00  0.00     0.203 C 
BRANCH  18  19
HETATM   19  C   UNL     1       7.177  26.809  54.583  1.00  0.00     0.261 C 
BRANCH  19  20
HETATM   20  N   UNL     1       7.142  25.737  55.671  1.00  0.00    -0.070 N 
HETATM   21  H   UNL     1       8.124  25.655  55.980  1.00  0.00     0.279 HD
BRANCH  20  22
HETATM   22  C   UNL     1       6.737  24.371  55.143  1.00  0.00     0.230 C 
HETATM   23  C   UNL     1       7.832  23.348  55.387  1.00  0.00     0.034 C 
ENDBRANCH  20  22
BRANCH  20  24
HETATM   24  C   UNL     1       6.380  26.114  56.928  1.00  0.00     0.230 C 
HETATM   25  C   UNL     1       5.083  25.341  57.076  1.00  0.00     0.034 C 
ENDBRANCH  20  24
ENDBRANCH  19  20
ENDBRANCH  18  19
ENDBRANCH  17  18
ENDBRANCH   1  17
BRANCH   8  26
HETATM   26  N   UNL     1       3.357  31.759  57.179  1.00  0.00    -0.226 NA
HETATM   27  H   UNL     1       2.927  32.545  56.677  1.00  0.00     0.145 HD
HETATM   28  H   UNL     1       2.549  31.144  57.330  1.00  0.00     0.145 HD
ENDBRANCH   8  26
BRANCH  12  29
HETATM   29  O   UNL     1       5.122  34.086  63.234  1.00  0.00    -0.348 OA
BRANCH  29  30
HETATM   30  C   UNL     1       3.698  34.151  63.363  1.00  0.00     0.203 C 
BRANCH  30  31
HETATM   31  C   UNL     1       3.373  34.450  64.832  1.00  0.00     0.261 C 
BRANCH  31  32
HETATM   32  N   UNL     1       4.593  34.957  65.604  1.00  0.00    -0.070 N 
HETATM   33  H   UNL     1       5.379  34.805  64.949  1.00  0.00     0.279 HD
BRANCH  32  34
HETATM   34  C   UNL     1       4.598  36.446  65.887  1.00  0.00     0.230 C 
HETATM   35  C   UNL     1       5.051  37.272  64.698  1.00  0.00     0.034 C 
ENDBRANCH  32  34
BRANCH  32  36
HETATM   36  C   UNL     1       4.870  34.066  66.802  1.00  0.00     0.230 C 
HETATM   37  C   UNL     1       5.447  34.846  67.968  1.00  0.00     0.034 C 
ENDBRANCH  32  36
ENDBRANCH  31  32
ENDBRANCH  30  31
ENDBRANCH  29  30
ENDBRANCH  12  29
TORSDOF 13
ENDMDL
MODEL 10
REMARK VINA RESULT:      -7.0      1.242      9.613
REMARK  13 active torsions:
REMARK  status: ('A' for Active; 'I' for Inactive)
REMARK    1  A    between atoms: C_2  and  N_3 
REMARK    2  A    between atoms: N_3  and  C_5 
REMARK    3  A    between atoms: N_3  and  C_34 
REMARK    4  A    between atoms: C_5  and  C_6 
REMARK    5  A    between atoms: C_6  and  O_7 
REMARK    6  A    between atoms: O_7  and  C_8 
REMARK    7  A    between atoms: N_15  and  N_16 
REMARK    8  A    between atoms: C_20  and  O_21 
REMARK    9  A    between atoms: O_21  and  C_22 
REMARK   10  A    between atoms: C_22  and  C_23 
REMARK   11  A    between atoms: C_23  and  N_24 
REMARK   12  A    between atoms: N_24  and  C_26 
REMARK   13  A    between atoms: N_24  and  C_28 
ROOT
HETATM    1  C   UNL     1       5.414  32.193  57.552  1.00  0.00     0.091 A 
HETATM    2  C   UNL     1       4.635  32.234  56.373  1.00  0.00     0.068 A 
HETATM    3 CL   UNL     1       3.636  33.605  56.033  1.00  0.00    -0.081 Cl
HETATM    4  C   UNL     1       4.659  31.187  55.440  1.00  0.00     0.040 A 
HETATM    5  C   UNL     1       5.459  30.087  55.708  1.00  0.00    -0.011 A 
HETATM    6  C   UNL     1       6.205  30.032  56.903  1.00  0.00     0.009 A 
HETATM    7  C   UNL     1       6.931  28.733  56.905  1.00  0.00     0.093 A 
HETATM    8  N   UNL     1       7.730  28.171  57.756  1.00  0.00    -0.203 NA
HETATM    9  C   UNL     1       6.577  28.057  55.637  1.00  0.00     0.009 A 
HETATM   10  C   UNL     1       5.695  28.886  54.933  1.00  0.00    -0.011 A 
HETATM   11  C   UNL     1       7.013  26.825  55.171  1.00  0.00     0.053 A 
HETATM   12  C   UNL     1       6.532  26.398  53.932  1.00  0.00     0.091 A 
HETATM   13  C   UNL     1       5.656  27.237  53.197  1.00  0.00     0.068 A 
HETATM   14 CL   UNL     1       5.069  26.739  51.646  1.00  0.00    -0.081 Cl
HETATM   15  C   UNL     1       5.228  28.480  53.695  1.00  0.00     0.040 A 
HETATM   16  C   UNL     1       6.196  31.066  57.828  1.00  0.00     0.053 A 
ENDROOT
BRANCH   1  17
HETATM   17  O   UNL     1       5.329  33.275  58.396  1.00  0.00    -0.348 OA
BRANCH  17  18
HETATM   18  C   UNL     1       4.300  33.218  59.391  1.00  0.00     0.203 C 
BRANCH  18  19
HETATM   19  C   UNL     1       4.896  32.569  60.646  1.00  0.00     0.261 C 
BRANCH  19  20
HETATM   20  N   UNL     1       6.262  33.155  60.997  1.00  0.00    -0.070 N 
HETATM   21  H   UNL     1       6.514  33.726  60.174  1.00  0.00     0.279 HD
BRANCH  20  22
HETATM   22  C   UNL     1       7.342  32.097  61.139  1.00  0.00     0.230 C 
HETATM   23  C   UNL     1       8.525  32.402  60.237  1.00  0.00     0.034 C 
ENDBRANCH  20  22
BRANCH  20  24
HETATM   24  C   UNL     1       6.268  34.138  62.154  1.00  0.00     0.230 C 
HETATM   25  C   UNL     1       5.665  33.553  63.417  1.00  0.00     0.034 C 
ENDBRANCH  20  24
ENDBRANCH  19  20
ENDBRANCH  18  19
ENDBRANCH  17  18
ENDBRANCH   1  17
BRANCH   8  26
HETATM   26  N   UNL     1       7.982  28.837  58.900  1.00  0.00    -0.226 NA
HETATM   27  H   UNL     1       8.881  28.509  59.273  1.00  0.00     0.145 HD
HETATM   28  H   UNL     1       7.328  28.506  59.619  1.00  0.00     0.145 HD
ENDBRANCH   8  26
BRANCH  12  29
HETATM   29  O   UNL     1       6.888  25.204  53.350  1.00  0.00    -0.348 OA
BRANCH  29  30
HETATM   30  C   UNL     1       7.891  24.439  54.027  1.00  0.00     0.203 C 
BRANCH  30  31
HETATM   31  C   UNL     1       7.427  22.977  54.056  1.00  0.00     0.261 C 
BRANCH  31  32
HETATM   32  N   UNL     1       8.418  22.069  54.789  1.00  0.00    -0.070 N 
HETATM   33  H   UNL     1       9.341  22.388  54.449  1.00  0.00     0.279 HD
BRANCH  32  34
HETATM   34  C   UNL     1       8.465  22.255  56.292  1.00  0.00     0.230 C 
HETATM   35  C   UNL     1       8.535  20.941  57.047  1.00  0.00     0.034 C 
ENDBRANCH  32  34
BRANCH  32  36
HETATM   36  C   UNL     1       8.271  20.634  54.315  1.00  0.00     0.230 C 
HETATM   37  C   UNL     1       8.287  20.531  52.802  1.00  0.00     0.034 C 
ENDBRANCH  32  36
ENDBRANCH  31  32
ENDBRANCH  30  31
ENDBRANCH  29  30
ENDBRANCH  12  29
TORSDOF 13
ENDMDL
