MODEL 1
REMARK VINA RESULT:      -9.7      0.000      0.000
REMARK  7 active torsions:
REMARK  status: ('A' for Active; 'I' for Inactive)
REMARK    1  A    between atoms: C_7  and  C_8 
REMARK    2  A    between atoms: C_8  and  N_9 
REMARK    3  A    between atoms: C_13  and  C_14 
REMARK    4  A    between atoms: C_14  and  C_15 
REMARK    5  A    between atoms: C_15  and  C_16 
REMARK    6  A    between atoms: N_26  and  C_27 
REMARK    7  A    between atoms: C_27  and  C_28 
ROOT
HETATM    1  C   UNL     1       6.715  25.578  54.468  1.00  0.00     0.123 C 
HETATM    2  N   UNL     1       6.430  25.642  55.892  1.00  0.00    -0.324 N 
HETATM    3  C   UNL     1       6.951  26.760  56.503  1.00  0.00     0.326 C 
HETATM    4  O   UNL     1       6.978  26.928  57.708  1.00  0.00    -0.247 OA
HETATM    5  N   UNL     1       7.375  27.607  55.533  1.00  0.00    -0.268 N 
HETATM    6  C   UNL     1       7.175  27.049  54.310  1.00  0.00     0.257 C 
HETATM    7  O   UNL     1       7.351  27.611  53.236  1.00  0.00    -0.270 OA
HETATM    8  H   UNL     1       6.239  24.829  56.475  1.00  0.00     0.165 HD
ENDROOT
BRANCH   1   9
HETATM    9  C   UNL     1       5.432  25.189  53.662  1.00  0.00     0.027 C 
HETATM   10  C   UNL     1       5.611  24.820  52.181  1.00  0.00     0.035 C 
HETATM   11  C   UNL     1       5.696  25.976  51.194  1.00  0.00     0.235 C 
HETATM   12  N   UNL     1       4.661  27.047  51.446  1.00  0.00    -0.067 N 
HETATM   13  H   UNL     1       3.781  26.696  51.049  1.00  0.00     0.280 HD
HETATM   14  C   UNL     1       4.404  27.411  52.883  1.00  0.00     0.235 C 
HETATM   15  C   UNL     1       4.257  26.181  53.758  1.00  0.00     0.035 C 
BRANCH  12  16
HETATM   16  C   UNL     1       4.985  28.323  50.672  1.00  0.00     0.277 C 
BRANCH  16  17
HETATM   17  C   UNL     1       4.043  28.639  49.575  1.00  0.00     0.011 A 
HETATM   18  C   UNL     1       4.024  28.068  48.269  1.00  0.00     0.060 A 
HETATM   19  C   UNL     1       4.936  27.049  47.684  1.00  0.00     0.073 C 
HETATM   20  N   UNL     1       3.020  28.555  47.539  1.00  0.00    -0.178 NA
HETATM   21  N   UNL     1       2.445  29.479  48.320  1.00  0.00    -0.284 N 
HETATM   22  C   UNL     1       1.347  30.268  47.813  1.00  0.00     0.179 C 
HETATM   23  C   UNL     1       3.000  29.546  49.567  1.00  0.00     0.122 A 
ENDBRANCH  16  17
ENDBRANCH  12  16
ENDBRANCH   1   9
BRANCH   1  24
HETATM   24  C   UNL     1       7.993  24.721  54.196  1.00  0.00     0.082 C 
BRANCH  24  25
HETATM   25  C   UNL     1       7.986  23.210  54.355  1.00  0.00    -0.034 A 
HETATM   26  C   UNL     1       8.186  22.515  55.561  1.00  0.00     0.040 A 
HETATM   27 CL   UNL     1       8.419  23.302  57.074  1.00  0.00    -0.084 Cl
HETATM   28  C   UNL     1       8.247  21.114  55.581  1.00  0.00     0.024 A 
HETATM   29  C   UNL     1       8.139  20.381  54.402  1.00  0.00     0.002 A 
HETATM   30  C   UNL     1       7.967  21.045  53.197  1.00  0.00     0.001 A 
HETATM   31  C   UNL     1       7.893  22.441  53.174  1.00  0.00     0.009 A 
ENDBRANCH  24  25
ENDBRANCH   1  24
BRANCH   5  32
HETATM   32  C   UNL     1       7.947  28.915  55.770  1.00  0.00     0.141 C 
BRANCH  32  33
HETATM   33  C   UNL     1       9.275  28.779  56.451  1.00  0.00     0.004 A 
HETATM   34  C   UNL     1      10.387  29.772  56.215  1.00  0.00     0.007 A 
HETATM   35  C   UNL     1       9.674  29.747  57.537  1.00  0.00     0.007 A 
ENDBRANCH  32  33
ENDBRANCH   5  32
TORSDOF 7
ENDMDL
MODEL 2
REMARK VINA RESULT:      -9.7      2.496      7.399
REMARK  7 active torsions:
REMARK  status: ('A' for Active; 'I' for Inactive)
REMARK    1  A    between atoms: C_7  and  C_8 
REMARK    2  A    between atoms: C_8  and  N_9 
REMARK    3  A    between atoms: C_13  and  C_14 
REMARK    4  A    between atoms: C_14  and  C_15 
REMARK    5  A    between atoms: C_15  and  C_16 
REMARK    6  A    between atoms: N_26  and  C_27 
REMARK    7  A    between atoms: C_27  and  C_28 
ROOT
HETATM    1  C   UNL     1       6.998  26.106  54.978  1.00  0.00     0.123 C 
HETATM    2  N   UNL     1       7.176  27.464  54.491  1.00  0.00    -0.324 N 
HETATM    3  C   UNL     1       6.455  27.732  53.349  1.00  0.00     0.326 C 
HETATM    4  O   UNL     1       6.587  28.741  52.682  1.00  0.00    -0.247 OA
HETATM    5  N   UNL     1       5.589  26.709  53.151  1.00  0.00    -0.268 N 
HETATM    6  C   UNL     1       5.757  25.766  54.116  1.00  0.00     0.257 C 
HETATM    7  O   UNL     1       5.049  24.779  54.274  1.00  0.00    -0.270 OA
HETATM    8  H   UNL     1       7.996  28.037  54.679  1.00  0.00     0.165 HD
ENDROOT
BRANCH   1   9
HETATM    9  C   UNL     1       6.760  26.098  56.524  1.00  0.00     0.027 C 
HETATM   10  C   UNL     1       5.527  26.846  57.055  1.00  0.00     0.035 C 
HETATM   11  C   UNL     1       5.667  28.351  57.238  1.00  0.00     0.235 C 
HETATM   12  N   UNL     1       6.965  28.748  57.898  1.00  0.00    -0.067 N 
HETATM   13  H   UNL     1       6.842  28.579  58.904  1.00  0.00     0.280 HD
HETATM   14  C   UNL     1       8.200  28.010  57.457  1.00  0.00     0.235 C 
HETATM   15  C   UNL     1       7.966  26.513  57.388  1.00  0.00     0.035 C 
BRANCH  12  16
HETATM   16  C   UNL     1       7.221  30.248  57.759  1.00  0.00     0.277 C 
BRANCH  16  17
HETATM   17  C   UNL     1       7.944  30.861  58.896  1.00  0.00     0.011 A 
HETATM   18  C   UNL     1       9.318  31.237  58.935  1.00  0.00     0.060 A 
HETATM   19  C   UNL     1      10.354  31.095  57.878  1.00  0.00     0.073 C 
HETATM   20  N   UNL     1       9.637  31.794  60.105  1.00  0.00    -0.178 NA
HETATM   21  N   UNL     1       8.520  31.711  60.840  1.00  0.00    -0.284 N 
HETATM   22  C   UNL     1       8.526  32.164  62.211  1.00  0.00     0.179 C 
HETATM   23  C   UNL     1       7.463  31.189  60.149  1.00  0.00     0.122 A 
ENDBRANCH  16  17
ENDBRANCH  12  16
ENDBRANCH   1   9
BRANCH   1  24
HETATM   24  C   UNL     1       8.132  25.172  54.445  1.00  0.00     0.082 C 
BRANCH  24  25
HETATM   25  C   UNL     1       7.952  23.665  54.372  1.00  0.00    -0.034 A 
HETATM   26  C   UNL     1       8.026  22.780  55.462  1.00  0.00     0.040 A 
HETATM   27 CL   UNL     1       8.285  23.302  57.083  1.00  0.00    -0.084 Cl
HETATM   28  C   UNL     1       7.932  21.394  55.271  1.00  0.00     0.024 A 
HETATM   29  C   UNL     1       7.791  20.862  53.992  1.00  0.00     0.002 A 
HETATM   30  C   UNL     1       7.742  21.713  52.898  1.00  0.00     0.001 A 
HETATM   31  C   UNL     1       7.823  23.096  53.086  1.00  0.00     0.009 A 
ENDBRANCH  24  25
ENDBRANCH   1  24
BRANCH   5  32
HETATM   32  C   UNL     1       4.624  26.638  52.074  1.00  0.00     0.141 C 
BRANCH  32  33
HETATM   33  C   UNL     1       5.332  26.525  50.758  1.00  0.00     0.004 A 
HETATM   34  C   UNL     1       4.584  26.202  49.487  1.00  0.00     0.007 A 
HETATM   35  C   UNL     1       5.139  27.582  49.699  1.00  0.00     0.007 A 
ENDBRANCH  32  33
ENDBRANCH   5  32
TORSDOF 7
ENDMDL
MODEL 3
REMARK VINA RESULT:      -9.4      2.727      8.222
REMARK  7 active torsions:
REMARK  status: ('A' for Active; 'I' for Inactive)
REMARK    1  A    between atoms: C_7  and  C_8 
REMARK    2  A    between atoms: C_8  and  N_9 
REMARK    3  A    between atoms: C_13  and  C_14 
REMARK    4  A    between atoms: C_14  and  C_15 
REMARK    5  A    between atoms: C_15  and  C_16 
REMARK    6  A    between atoms: N_26  and  C_27 
REMARK    7  A    between atoms: C_27  and  C_28 
ROOT
HETATM    1  C   UNL     1       5.014  27.602  53.532  1.00  0.00     0.123 C 
HETATM    2  N   UNL     1       4.246  26.414  53.195  1.00  0.00    -0.324 N 
HETATM    3  C   UNL     1       5.029  25.358  52.786  1.00  0.00     0.326 C 
HETATM    4  O   UNL     1       4.590  24.333  52.298  1.00  0.00    -0.247 OA
HETATM    5  N   UNL     1       6.322  25.666  53.055  1.00  0.00    -0.268 N 
HETATM    6  C   UNL     1       6.399  26.911  53.594  1.00  0.00     0.257 C 
HETATM    7  O   UNL     1       7.414  27.427  54.046  1.00  0.00    -0.270 OA
HETATM    8  H   UNL     1       3.274  26.426  52.896  1.00  0.00     0.165 HD
ENDROOT
BRANCH   1   9
HETATM    9  C   UNL     1       4.515  28.221  54.879  1.00  0.00     0.027 C 
HETATM   10  C   UNL     1       5.069  29.599  55.273  1.00  0.00     0.035 C 
HETATM   11  C   UNL     1       6.435  29.620  55.946  1.00  0.00     0.235 C 
HETATM   12  N   UNL     1       6.585  28.563  57.013  1.00  0.00    -0.067 N 
HETATM   13  H   UNL     1       6.104  28.923  57.846  1.00  0.00     0.280 HD
HETATM   14  C   UNL     1       6.012  27.206  56.704  1.00  0.00     0.235 C 
HETATM   15  C   UNL     1       4.618  27.305  56.113  1.00  0.00     0.035 C 
BRANCH  12  16
HETATM   16  C   UNL     1       8.047  28.390  57.420  1.00  0.00     0.277 C 
BRANCH  16  17
HETATM   17  C   UNL     1       8.649  29.569  58.083  1.00  0.00     0.011 A 
HETATM   18  C   UNL     1       9.915  30.160  57.799  1.00  0.00     0.060 A 
HETATM   19  C   UNL     1      10.936  29.741  56.802  1.00  0.00     0.073 C 
HETATM   20  N   UNL     1      10.134  31.232  58.562  1.00  0.00    -0.178 NA
HETATM   21  N   UNL     1       9.074  31.293  59.379  1.00  0.00    -0.284 N 
HETATM   22  C   UNL     1       9.013  32.311  60.402  1.00  0.00     0.179 C 
HETATM   23  C   UNL     1       8.135  30.337  59.111  1.00  0.00     0.122 A 
ENDBRANCH  16  17
ENDBRANCH  12  16
ENDBRANCH   1   9
BRANCH   1  24
HETATM   24  C   UNL     1       5.099  28.572  52.310  1.00  0.00     0.082 C 
BRANCH  24  25
HETATM   25  C   UNL     1       3.963  28.691  51.308  1.00  0.00    -0.034 A 
HETATM   26  C   UNL     1       3.871  27.993  50.092  1.00  0.00     0.040 A 
HETATM   27 CL   UNL     1       5.038  26.834  49.580  1.00  0.00    -0.084 Cl
HETATM   28  C   UNL     1       2.820  28.242  49.197  1.00  0.00     0.024 A 
HETATM   29  C   UNL     1       1.860  29.209  49.482  1.00  0.00     0.002 A 
HETATM   30  C   UNL     1       1.944  29.930  50.664  1.00  0.00     0.001 A 
HETATM   31  C   UNL     1       2.982  29.676  51.564  1.00  0.00     0.009 A 
ENDBRANCH  24  25
ENDBRANCH   1  24
BRANCH   5  32
HETATM   32  C   UNL     1       7.448  24.791  52.810  1.00  0.00     0.141 C 
BRANCH  32  33
HETATM   33  C   UNL     1       7.382  23.602  53.721  1.00  0.00     0.004 A 
HETATM   34  C   UNL     1       7.689  22.210  53.222  1.00  0.00     0.007 A 
HETATM   35  C   UNL     1       8.648  22.902  54.149  1.00  0.00     0.007 A 
ENDBRANCH  32  33
ENDBRANCH   5  32
TORSDOF 7
ENDMDL
MODEL 4
REMARK VINA RESULT:      -9.3      1.616      2.164
REMARK  7 active torsions:
REMARK  status: ('A' for Active; 'I' for Inactive)
REMARK    1  A    between atoms: C_7  and  C_8 
REMARK    2  A    between atoms: C_8  and  N_9 
REMARK    3  A    between atoms: C_13  and  C_14 
REMARK    4  A    between atoms: C_14  and  C_15 
REMARK    5  A    between atoms: C_15  and  C_16 
REMARK    6  A    between atoms: N_26  and  C_27 
REMARK    7  A    between atoms: C_27  and  C_28 
ROOT
HETATM    1  C   UNL     1       6.698  24.887  54.581  1.00  0.00     0.123 C 
HETATM    2  N   UNL     1       5.731  24.545  55.612  1.00  0.00    -0.324 N 
HETATM    3  C   UNL     1       5.612  25.508  56.588  1.00  0.00     0.326 C 
HETATM    4  O   UNL     1       4.994  25.354  57.625  1.00  0.00    -0.247 OA
HETATM    5  N   UNL     1       6.265  26.617  56.164  1.00  0.00    -0.268 N 
HETATM    6  C   UNL     1       6.835  26.385  54.952  1.00  0.00     0.257 C 
HETATM    7  O   UNL     1       7.396  27.224  54.259  1.00  0.00    -0.270 OA
HETATM    8  H   UNL     1       5.460  23.593  55.850  1.00  0.00     0.165 HD
ENDROOT
BRANCH   1   9
HETATM    9  C   UNL     1       6.116  24.602  53.157  1.00  0.00     0.027 C 
HETATM   10  C   UNL     1       6.901  25.139  51.951  1.00  0.00     0.035 C 
HETATM   11  C   UNL     1       6.676  26.600  51.584  1.00  0.00     0.235 C 
HETATM   12  N   UNL     1       5.219  26.997  51.603  1.00  0.00    -0.067 N 
HETATM   13  H   UNL     1       4.815  26.653  50.723  1.00  0.00     0.280 HD
HETATM   14  C   UNL     1       4.387  26.454  52.733  1.00  0.00     0.235 C 
HETATM   15  C   UNL     1       4.635  24.975  52.955  1.00  0.00     0.035 C 
BRANCH  12  16
HETATM   16  C   UNL     1       5.058  28.515  51.567  1.00  0.00     0.277 C 
BRANCH  16  17
HETATM   17  C   UNL     1       4.559  29.055  50.282  1.00  0.00     0.011 A 
HETATM   18  C   UNL     1       3.204  29.335  49.938  1.00  0.00     0.060 A 
HETATM   19  C   UNL     1       1.976  29.141  50.754  1.00  0.00     0.073 C 
HETATM   20  N   UNL     1       3.110  29.846  48.709  1.00  0.00    -0.178 NA
HETATM   21  N   UNL     1       4.362  29.826  48.233  1.00  0.00    -0.284 N 
HETATM   22  C   UNL     1       4.622  30.252  46.878  1.00  0.00     0.179 C 
HETATM   23  C   UNL     1       5.277  29.391  49.150  1.00  0.00     0.122 A 
ENDBRANCH  16  17
ENDBRANCH  12  16
ENDBRANCH   1   9
BRANCH   1  24
HETATM   24  C   UNL     1       8.093  24.260  54.900  1.00  0.00     0.082 C 
BRANCH  24  25
HETATM   25  C   UNL     1       8.237  22.802  55.305  1.00  0.00    -0.034 A 
HETATM   26  C   UNL     1       8.160  21.702  54.434  1.00  0.00     0.040 A 
HETATM   27 CL   UNL     1       7.939  21.860  52.733  1.00  0.00    -0.084 Cl
HETATM   28  C   UNL     1       8.219  20.390  54.926  1.00  0.00     0.024 A 
HETATM   29  C   UNL     1       8.328  20.149  56.292  1.00  0.00     0.002 A 
HETATM   30  C   UNL     1       8.379  21.218  57.174  1.00  0.00     0.001 A 
HETATM   31  C   UNL     1       8.333  22.527  56.687  1.00  0.00     0.009 A 
ENDBRANCH  24  25
ENDBRANCH   1  24
BRANCH   5  32
HETATM   32  C   UNL     1       6.334  27.866  56.893  1.00  0.00     0.141 C 
BRANCH  32  33
HETATM   33  C   UNL     1       7.596  27.919  57.700  1.00  0.00     0.004 A 
HETATM   34  C   UNL     1       8.818  28.651  57.201  1.00  0.00     0.007 A 
HETATM   35  C   UNL     1       8.026  29.211  58.350  1.00  0.00     0.007 A 
ENDBRANCH  32  33
ENDBRANCH   5  32
TORSDOF 7
ENDMDL
MODEL 5
REMARK VINA RESULT:      -9.1      2.959      7.456
REMARK  7 active torsions:
REMARK  status: ('A' for Active; 'I' for Inactive)
REMARK    1  A    between atoms: C_7  and  C_8 
REMARK    2  A    between atoms: C_8  and  N_9 
REMARK    3  A    between atoms: C_13  and  C_14 
REMARK    4  A    between atoms: C_14  and  C_15 
REMARK    5  A    between atoms: C_15  and  C_16 
REMARK    6  A    between atoms: N_26  and  C_27 
REMARK    7  A    between atoms: C_27  and  C_28 
ROOT
HETATM    1  C   UNL     1       5.945  26.345  55.027  1.00  0.00     0.123 C 
HETATM    2  N   UNL     1       7.277  26.891  54.827  1.00  0.00    -0.324 N 
HETATM    3  C   UNL     1       7.372  27.704  53.719  1.00  0.00     0.326 C 
HETATM    4  O   UNL     1       8.421  28.125  53.271  1.00  0.00    -0.247 OA
HETATM    5  N   UNL     1       6.116  27.953  53.275  1.00  0.00    -0.268 N 
HETATM    6  C   UNL     1       5.211  27.291  54.044  1.00  0.00     0.257 C 
HETATM    7  O   UNL     1       3.995  27.404  53.965  1.00  0.00    -0.270 OA
HETATM    8  H   UNL     1       8.132  26.458  55.170  1.00  0.00     0.165 HD
ENDROOT
BRANCH   1   9
HETATM    9  C   UNL     1       5.513  26.472  56.525  1.00  0.00     0.027 C 
HETATM   10  C   UNL     1       4.736  27.733  56.934  1.00  0.00     0.035 C 
HETATM   11  C   UNL     1       5.561  28.980  57.224  1.00  0.00     0.235 C 
HETATM   12  N   UNL     1       6.779  28.699  58.072  1.00  0.00    -0.067 N 
HETATM   13  H   UNL     1       6.445  28.623  59.040  1.00  0.00     0.280 HD
HETATM   14  C   UNL     1       7.549  27.446  57.752  1.00  0.00     0.235 C 
HETATM   15  C   UNL     1       6.630  26.254  57.563  1.00  0.00     0.035 C 
BRANCH  12  16
HETATM   16  C   UNL     1       7.747  29.880  58.059  1.00  0.00     0.277 C 
BRANCH  16  17
HETATM   17  C   UNL     1       7.674  30.755  59.251  1.00  0.00     0.011 A 
HETATM   18  C   UNL     1       6.792  31.855  59.455  1.00  0.00     0.060 A 
HETATM   19  C   UNL     1       5.758  32.404  58.537  1.00  0.00     0.073 C 
HETATM   20  N   UNL     1       6.970  32.406  60.657  1.00  0.00    -0.178 NA
HETATM   21  N   UNL     1       7.998  31.734  61.193  1.00  0.00    -0.284 N 
HETATM   22  C   UNL     1       8.514  32.119  62.485  1.00  0.00     0.179 C 
HETATM   23  C   UNL     1       8.437  30.708  60.403  1.00  0.00     0.122 A 
ENDBRANCH  16  17
ENDBRANCH  12  16
ENDBRANCH   1   9
BRANCH   1  24
HETATM   24  C   UNL     1       5.826  24.924  54.388  1.00  0.00     0.082 C 
BRANCH  24  25
HETATM   25  C   UNL     1       6.996  23.955  54.380  1.00  0.00    -0.034 A 
HETATM   26  C   UNL     1       7.873  23.743  53.301  1.00  0.00     0.040 A 
HETATM   27 CL   UNL     1       7.771  24.614  51.819  1.00  0.00    -0.084 Cl
HETATM   28  C   UNL     1       8.870  22.759  53.368  1.00  0.00     0.024 A 
HETATM   29  C   UNL     1       8.995  21.950  54.495  1.00  0.00     0.002 A 
HETATM   30  C   UNL     1       8.125  22.123  55.561  1.00  0.00     0.001 A 
HETATM   31  C   UNL     1       7.138  23.111  55.504  1.00  0.00     0.009 A 
ENDBRANCH  24  25
ENDBRANCH   1  24
BRANCH   5  32
HETATM   32  C   UNL     1       5.790  28.805  52.151  1.00  0.00     0.141 C 
BRANCH  32  33
HETATM   33  C   UNL     1       5.467  27.969  50.950  1.00  0.00     0.004 A 
HETATM   34  C   UNL     1       4.164  28.131  50.205  1.00  0.00     0.007 A 
HETATM   35  C   UNL     1       5.449  28.591  49.575  1.00  0.00     0.007 A 
ENDBRANCH  32  33
ENDBRANCH   5  32
TORSDOF 7
ENDMDL
MODEL 6
REMARK VINA RESULT:      -8.9      3.251      7.580
REMARK  7 active torsions:
REMARK  status: ('A' for Active; 'I' for Inactive)
REMARK    1  A    between atoms: C_7  and  C_8 
REMARK    2  A    between atoms: C_8  and  N_9 
REMARK    3  A    between atoms: C_13  and  C_14 
REMARK    4  A    between atoms: C_14  and  C_15 
REMARK    5  A    between atoms: C_15  and  C_16 
REMARK    6  A    between atoms: N_26  and  C_27 
REMARK    7  A    between atoms: C_27  and  C_28 
ROOT
HETATM    1  C   UNL     1       6.596  27.040  54.688  1.00  0.00     0.123 C 
HETATM    2  N   UNL     1       6.781  27.683  53.397  1.00  0.00    -0.324 N 
HETATM    3  C   UNL     1       5.724  28.485  53.031  1.00  0.00     0.326 C 
HETATM    4  O   UNL     1       5.593  28.978  51.927  1.00  0.00    -0.247 OA
HETATM    5  N   UNL     1       4.917  28.633  54.111  1.00  0.00    -0.268 N 
HETATM    6  C   UNL     1       5.407  27.915  55.157  1.00  0.00     0.257 C 
HETATM    7  O   UNL     1       4.966  27.934  56.299  1.00  0.00    -0.270 OA
HETATM    8  H   UNL     1       7.378  27.321  52.657  1.00  0.00     0.165 HD
ENDROOT
BRANCH   1   9
HETATM    9  C   UNL     1       7.893  27.155  55.556  1.00  0.00     0.027 C 
HETATM   10  C   UNL     1       7.766  26.870  57.060  1.00  0.00     0.035 C 
HETATM   11  C   UNL     1       7.263  28.012  57.933  1.00  0.00     0.235 C 
HETATM   12  N   UNL     1       7.912  29.336  57.605  1.00  0.00    -0.067 N 
HETATM   13  H   UNL     1       8.836  29.323  58.052  1.00  0.00     0.280 HD
HETATM   14  C   UNL     1       8.112  29.646  56.146  1.00  0.00     0.235 C 
HETATM   15  C   UNL     1       8.691  28.463  55.394  1.00  0.00     0.035 C 
BRANCH  12  16
HETATM   16  C   UNL     1       7.156  30.497  58.248  1.00  0.00     0.277 C 
BRANCH  16  17
HETATM   17  C   UNL     1       7.835  31.110  59.412  1.00  0.00     0.011 A 
HETATM   18  C   UNL     1       9.172  31.600  59.465  1.00  0.00     0.060 A 
HETATM   19  C   UNL     1      10.206  31.604  58.396  1.00  0.00     0.073 C 
HETATM   20  N   UNL     1       9.453  32.120  60.661  1.00  0.00    -0.178 NA
HETATM   21  N   UNL     1       8.355  31.902  61.396  1.00  0.00    -0.284 N 
HETATM   22  C   UNL     1       8.335  32.281  62.789  1.00  0.00     0.179 C 
HETATM   23  C   UNL     1       7.339  31.327  60.684  1.00  0.00     0.122 A 
ENDBRANCH  16  17
ENDBRANCH  12  16
ENDBRANCH   1   9
BRANCH   1  24
HETATM   24  C   UNL     1       6.002  25.606  54.513  1.00  0.00     0.082 C 
BRANCH  24  25
HETATM   25  C   UNL     1       6.897  24.383  54.393  1.00  0.00    -0.034 A 
HETATM   26  C   UNL     1       7.577  23.980  53.231  1.00  0.00     0.040 A 
HETATM   27 CL   UNL     1       7.531  24.869  51.757  1.00  0.00    -0.084 Cl
HETATM   28  C   UNL     1       8.308  22.784  53.205  1.00  0.00     0.024 A 
HETATM   29  C   UNL     1       8.354  21.955  54.322  1.00  0.00     0.002 A 
HETATM   30  C   UNL     1       7.669  22.318  55.472  1.00  0.00     0.001 A 
HETATM   31  C   UNL     1       6.950  23.515  55.507  1.00  0.00     0.009 A 
ENDBRANCH  24  25
ENDBRANCH   1  24
BRANCH   5  32
HETATM   32  C   UNL     1       3.718  29.442  54.143  1.00  0.00     0.141 C 
BRANCH  32  33
HETATM   33  C   UNL     1       4.081  30.891  54.267  1.00  0.00     0.004 A 
HETATM   34  C   UNL     1       3.280  31.832  55.134  1.00  0.00     0.007 A 
HETATM   35  C   UNL     1       4.663  31.421  55.554  1.00  0.00     0.007 A 
ENDBRANCH  32  33
ENDBRANCH   5  32
TORSDOF 7
ENDMDL
MODEL 7
REMARK VINA RESULT:      -8.9      1.540      1.969
REMARK  7 active torsions:
REMARK  status: ('A' for Active; 'I' for Inactive)
REMARK    1  A    between atoms: C_7  and  C_8 
REMARK    2  A    between atoms: C_8  and  N_9 
REMARK    3  A    between atoms: C_13  and  C_14 
REMARK    4  A    between atoms: C_14  and  C_15 
REMARK    5  A    between atoms: C_15  and  C_16 
REMARK    6  A    between atoms: N_26  and  C_27 
REMARK    7  A    between atoms: C_27  and  C_28 
ROOT
HETATM    1  C   UNL     1       6.619  25.207  54.187  1.00  0.00     0.123 C 
HETATM    2  N   UNL     1       6.367  24.883  55.582  1.00  0.00    -0.324 N 
HETATM    3  C   UNL     1       6.895  25.803  56.459  1.00  0.00     0.326 C 
HETATM    4  O   UNL     1       6.950  25.643  57.663  1.00  0.00    -0.247 OA
HETATM    5  N   UNL     1       7.289  26.885  55.743  1.00  0.00    -0.268 N 
HETATM    6  C   UNL     1       7.064  26.672  54.419  1.00  0.00     0.257 C 
HETATM    7  O   UNL     1       7.209  27.504  53.532  1.00  0.00    -0.270 OA
HETATM    8  H   UNL     1       6.197  23.941  55.929  1.00  0.00     0.165 HD
ENDROOT
BRANCH   1   9
HETATM    9  C   UNL     1       5.320  25.031  53.334  1.00  0.00     0.027 C 
HETATM   10  C   UNL     1       5.480  24.950  51.808  1.00  0.00     0.035 C 
HETATM   11  C   UNL     1       5.608  26.272  51.062  1.00  0.00     0.235 C 
HETATM   12  N   UNL     1       4.617  27.311  51.527  1.00  0.00    -0.067 N 
HETATM   13  H   UNL     1       3.723  27.078  51.079  1.00  0.00     0.280 HD
HETATM   14  C   UNL     1       4.378  27.399  53.010  1.00  0.00     0.235 C 
HETATM   15  C   UNL     1       4.185  26.029  53.632  1.00  0.00     0.035 C 
BRANCH  12  16
HETATM   16  C   UNL     1       4.989  28.700  51.012  1.00  0.00     0.277 C 
BRANCH  16  17
HETATM   17  C   UNL     1       3.891  29.692  51.057  1.00  0.00     0.011 A 
HETATM   18  C   UNL     1       2.664  29.647  50.332  1.00  0.00     0.060 A 
HETATM   19  C   UNL     1       2.195  28.628  49.356  1.00  0.00     0.073 C 
HETATM   20  N   UNL     1       1.883  30.686  50.632  1.00  0.00    -0.178 NA
HETATM   21  N   UNL     1       2.614  31.433  51.471  1.00  0.00    -0.284 N 
HETATM   22  C   UNL     1       2.094  32.692  51.951  1.00  0.00     0.179 C 
HETATM   23  C   UNL     1       3.816  30.864  51.786  1.00  0.00     0.122 A 
ENDBRANCH  16  17
ENDBRANCH  12  16
ENDBRANCH   1   9
BRANCH   1  24
HETATM   24  C   UNL     1       7.896  24.472  53.668  1.00  0.00     0.082 C 
BRANCH  24  25
HETATM   25  C   UNL     1       8.142  23.001  53.962  1.00  0.00    -0.034 A 
HETATM   26  C   UNL     1       8.813  22.495  55.089  1.00  0.00     0.040 A 
HETATM   27 CL   UNL     1       9.419  23.496  56.352  1.00  0.00    -0.084 Cl
HETATM   28  C   UNL     1       9.063  21.122  55.220  1.00  0.00     0.024 A 
HETATM   29  C   UNL     1       8.677  20.231  54.222  1.00  0.00     0.002 A 
HETATM   30  C   UNL     1       8.036  20.709  53.088  1.00  0.00     0.001 A 
HETATM   31  C   UNL     1       7.774  22.076  52.960  1.00  0.00     0.009 A 
ENDBRANCH  24  25
ENDBRANCH   1  24
BRANCH   5  32
HETATM   32  C   UNL     1       7.857  28.090  56.310  1.00  0.00     0.141 C 
BRANCH  32  33
HETATM   33  C   UNL     1       6.796  28.869  57.027  1.00  0.00     0.004 A 
HETATM   34  C   UNL     1       7.093  30.210  57.654  1.00  0.00     0.007 A 
HETATM   35  C   UNL     1       6.241  30.133  56.418  1.00  0.00     0.007 A 
ENDBRANCH  32  33
ENDBRANCH   5  32
TORSDOF 7
ENDMDL
MODEL 8
REMARK VINA RESULT:      -8.9      3.087      7.540
REMARK  7 active torsions:
REMARK  status: ('A' for Active; 'I' for Inactive)
REMARK    1  A    between atoms: C_7  and  C_8 
REMARK    2  A    between atoms: C_8  and  N_9 
REMARK    3  A    between atoms: C_13  and  C_14 
REMARK    4  A    between atoms: C_14  and  C_15 
REMARK    5  A    between atoms: C_15  and  C_16 
REMARK    6  A    between atoms: N_26  and  C_27 
REMARK    7  A    between atoms: C_27  and  C_28 
ROOT
HETATM    1  C   UNL     1       5.509  27.802  53.014  1.00  0.00     0.123 C 
HETATM    2  N   UNL     1       6.936  27.798  53.293  1.00  0.00    -0.324 N 
HETATM    3  C   UNL     1       7.255  28.372  54.503  1.00  0.00     0.326 C 
HETATM    4  O   UNL     1       8.391  28.626  54.857  1.00  0.00    -0.247 OA
HETATM    5  N   UNL     1       6.105  28.556  55.196  1.00  0.00    -0.268 N 
HETATM    6  C   UNL     1       5.044  28.149  54.450  1.00  0.00     0.257 C 
HETATM    7  O   UNL     1       3.885  28.084  54.841  1.00  0.00    -0.270 OA
HETATM    8  H   UNL     1       7.659  27.765  52.579  1.00  0.00     0.165 HD
ENDROOT
BRANCH   1   9
HETATM    9  C   UNL     1       5.044  26.407  52.480  1.00  0.00     0.027 C 
HETATM   10  C   UNL     1       4.848  25.284  53.510  1.00  0.00     0.035 C 
HETATM   11  C   UNL     1       6.097  24.530  53.946  1.00  0.00     0.235 C 
HETATM   12  N   UNL     1       6.999  24.163  52.793  1.00  0.00    -0.067 N 
HETATM   13  H   UNL     1       6.582  23.334  52.353  1.00  0.00     0.280 HD
HETATM   14  C   UNL     1       7.186  25.206  51.724  1.00  0.00     0.235 C 
HETATM   15  C   UNL     1       5.867  25.831  51.312  1.00  0.00     0.035 C 
BRANCH  12  16
HETATM   16  C   UNL     1       8.376  23.722  53.286  1.00  0.00     0.277 C 
BRANCH  16  17
HETATM   17  C   UNL     1       8.354  22.681  54.337  1.00  0.00     0.011 A 
HETATM   18  C   UNL     1       8.199  21.276  54.150  1.00  0.00     0.060 A 
HETATM   19  C   UNL     1       8.006  20.520  52.885  1.00  0.00     0.073 C 
HETATM   20  N   UNL     1       8.258  20.621  55.311  1.00  0.00    -0.178 NA
HETATM   21  N   UNL     1       8.368  21.580  56.241  1.00  0.00    -0.284 N 
HETATM   22  C   UNL     1       8.388  21.226  57.640  1.00  0.00     0.179 C 
HETATM   23  C   UNL     1       8.464  22.835  55.707  1.00  0.00     0.122 A 
ENDBRANCH  16  17
ENDBRANCH  12  16
ENDBRANCH   1   9
BRANCH   1  24
HETATM   24  C   UNL     1       5.117  29.043  52.149  1.00  0.00     0.082 C 
BRANCH  24  25
HETATM   25  C   UNL     1       4.039  28.959  51.081  1.00  0.00    -0.034 A 
HETATM   26  C   UNL     1       4.266  28.851  49.698  1.00  0.00     0.040 A 
HETATM   27 CL   UNL     1       5.840  28.742  49.008  1.00  0.00    -0.084 Cl
HETATM   28  C   UNL     1       3.197  28.869  48.790  1.00  0.00     0.024 A 
HETATM   29  C   UNL     1       1.888  29.023  49.238  1.00  0.00     0.002 A 
HETATM   30  C   UNL     1       1.640  29.158  50.596  1.00  0.00     0.001 A 
HETATM   31  C   UNL     1       2.701  29.127  51.505  1.00  0.00     0.009 A 
ENDBRANCH  24  25
ENDBRANCH   1  24
BRANCH   5  32
HETATM   32  C   UNL     1       6.024  29.099  56.536  1.00  0.00     0.141 C 
BRANCH  32  33
HETATM   33  C   UNL     1       5.690  30.559  56.478  1.00  0.00     0.004 A 
HETATM   34  C   UNL     1       4.593  31.149  57.332  1.00  0.00     0.007 A 
HETATM   35  C   UNL     1       6.032  31.461  57.638  1.00  0.00     0.007 A 
ENDBRANCH  32  33
ENDBRANCH   5  32
TORSDOF 7
ENDMDL
MODEL 9
REMARK VINA RESULT:      -8.7      2.748      6.784
REMARK  7 active torsions:
REMARK  status: ('A' for Active; 'I' for Inactive)
REMARK    1  A    between atoms: C_7  and  C_8 
REMARK    2  A    between atoms: C_8  and  N_9 
REMARK    3  A    between atoms: C_13  and  C_14 
REMARK    4  A    between atoms: C_14  and  C_15 
REMARK    5  A    between atoms: C_15  and  C_16 
REMARK    6  A    between atoms: N_26  and  C_27 
REMARK    7  A    between atoms: C_27  and  C_28 
ROOT
HETATM    1  C   UNL     1       6.734  24.467  54.605  1.00  0.00     0.123 C 
HETATM    2  N   UNL     1       7.916  25.194  54.174  1.00  0.00    -0.324 N 
HETATM    3  C   UNL     1       7.742  25.860  52.982  1.00  0.00     0.326 C 
HETATM    4  O   UNL     1       8.644  26.386  52.357  1.00  0.00    -0.247 OA
HETATM    5  N   UNL     1       6.421  25.840  52.681  1.00  0.00    -0.268 N 
HETATM    6  C   UNL     1       5.739  25.144  53.629  1.00  0.00     0.257 C 
HETATM    7  O   UNL     1       4.521  25.044  53.697  1.00  0.00    -0.270 OA
HETATM    8  H   UNL     1       8.867  24.956  54.448  1.00  0.00     0.165 HD
ENDROOT
BRANCH   1   9
HETATM    9  C   UNL     1       6.452  24.715  56.124  1.00  0.00     0.027 C 
HETATM   10  C   UNL     1       5.257  25.611  56.486  1.00  0.00     0.035 C 
HETATM   11  C   UNL     1       5.492  27.115  56.440  1.00  0.00     0.235 C 
HETATM   12  N   UNL     1       6.795  27.531  57.079  1.00  0.00    -0.067 N 
HETATM   13  H   UNL     1       6.633  27.528  58.093  1.00  0.00     0.280 HD
HETATM   14  C   UNL     1       7.990  26.658  56.804  1.00  0.00     0.235 C 
HETATM   15  C   UNL     1       7.659  25.186  56.958  1.00  0.00     0.035 C 
BRANCH  12  16
HETATM   16  C   UNL     1       7.153  28.971  56.720  1.00  0.00     0.277 C 
BRANCH  16  17
HETATM   17  C   UNL     1       8.103  29.624  57.650  1.00  0.00     0.011 A 
HETATM   18  C   UNL     1       9.468  29.945  57.396  1.00  0.00     0.060 A 
HETATM   19  C   UNL     1      10.272  29.695  56.170  1.00  0.00     0.073 C 
HETATM   20  N   UNL     1      10.026  30.560  58.440  1.00  0.00    -0.178 NA
HETATM   21  N   UNL     1       9.073  30.568  59.382  1.00  0.00    -0.284 N 
HETATM   22  C   UNL     1       9.361  31.105  60.691  1.00  0.00     0.179 C 
HETATM   23  C   UNL     1       7.886  30.048  58.947  1.00  0.00     0.122 A 
ENDBRANCH  16  17
ENDBRANCH  12  16
ENDBRANCH   1   9
BRANCH   1  24
HETATM   24  C   UNL     1       6.801  22.975  54.146  1.00  0.00     0.082 C 
BRANCH  24  25
HETATM   25  C   UNL     1       7.714  21.972  54.832  1.00  0.00    -0.034 A 
HETATM   26  C   UNL     1       8.370  20.900  54.201  1.00  0.00     0.040 A 
HETATM   27 CL   UNL     1       8.267  20.599  52.509  1.00  0.00    -0.084 Cl
HETATM   28  C   UNL     1       9.122  19.980  54.945  1.00  0.00     0.024 A 
HETATM   29  C   UNL     1       9.213  20.092  56.329  1.00  0.00     0.002 A 
HETATM   30  C   UNL     1       8.554  21.126  56.978  1.00  0.00     0.001 A 
HETATM   31  C   UNL     1       7.814  22.053  56.239  1.00  0.00     0.009 A 
ENDBRANCH  24  25
ENDBRANCH   1  24
BRANCH   5  32
HETATM   32  C   UNL     1       5.826  26.473  51.523  1.00  0.00     0.141 C 
BRANCH  32  33
HETATM   33  C   UNL     1       5.540  27.915  51.818  1.00  0.00     0.004 A 
HETATM   34  C   UNL     1       5.366  28.926  50.710  1.00  0.00     0.007 A 
HETATM   35  C   UNL     1       4.178  28.494  51.524  1.00  0.00     0.007 A 
ENDBRANCH  32  33
ENDBRANCH   5  32
TORSDOF 7
ENDMDL
MODEL 10
REMARK VINA RESULT:      -8.6      3.142      5.996
REMARK  7 active torsions:
REMARK  status: ('A' for Active; 'I' for Inactive)
REMARK    1  A    between atoms: C_7  and  C_8 
REMARK    2  A    between atoms: C_8  and  N_9 
REMARK    3  A    between atoms: C_13  and  C_14 
REMARK    4  A    between atoms: C_14  and  C_15 
REMARK    5  A    between atoms: C_15  and  C_16 
REMARK    6  A    between atoms: N_26  and  C_27 
REMARK    7  A    between atoms: C_27  and  C_28 
ROOT
HETATM    1  C   UNL     1       6.963  25.086  54.691  1.00  0.00     0.123 C 
HETATM    2  N   UNL     1       8.054  25.030  53.731  1.00  0.00    -0.324 N 
HETATM    3  C   UNL     1       7.635  25.140  52.424  1.00  0.00     0.326 C 
HETATM    4  O   UNL     1       8.353  24.948  51.461  1.00  0.00    -0.247 OA
HETATM    5  N   UNL     1       6.334  25.519  52.432  1.00  0.00    -0.268 N 
HETATM    6  C   UNL     1       5.888  25.621  53.712  1.00  0.00     0.257 C 
HETATM    7  O   UNL     1       4.792  26.051  54.050  1.00  0.00    -0.270 OA
HETATM    8  H   UNL     1       8.947  24.574  53.905  1.00  0.00     0.165 HD
ENDROOT
BRANCH   1   9
HETATM    9  C   UNL     1       7.319  26.040  55.879  1.00  0.00     0.027 C 
HETATM   10  C   UNL     1       6.347  26.083  57.068  1.00  0.00     0.035 C 
HETATM   11  C   UNL     1       5.122  26.975  56.918  1.00  0.00     0.235 C 
HETATM   12  N   UNL     1       5.444  28.328  56.331  1.00  0.00    -0.067 N 
HETATM   13  H   UNL     1       5.832  28.891  57.098  1.00  0.00     0.280 HD
HETATM   14  C   UNL     1       6.433  28.354  55.198  1.00  0.00     0.235 C 
HETATM   15  C   UNL     1       7.648  27.495  55.491  1.00  0.00     0.035 C 
BRANCH  12  16
HETATM   16  C   UNL     1       4.176  29.054  55.886  1.00  0.00     0.277 C 
BRANCH  16  17
HETATM   17  C   UNL     1       3.852  30.271  56.664  1.00  0.00     0.011 A 
HETATM   18  C   UNL     1       3.159  31.427  56.199  1.00  0.00     0.060 A 
HETATM   19  C   UNL     1       2.615  31.706  54.844  1.00  0.00     0.073 C 
HETATM   20  N   UNL     1       3.007  32.327  57.172  1.00  0.00    -0.178 NA
HETATM   21  N   UNL     1       3.656  31.808  58.224  1.00  0.00    -0.284 N 
HETATM   22  C   UNL     1       3.755  32.562  59.451  1.00  0.00     0.179 C 
HETATM   23  C   UNL     1       4.153  30.558  57.982  1.00  0.00     0.122 A 
ENDBRANCH  16  17
ENDBRANCH  12  16
ENDBRANCH   1   9
BRANCH   1  24
HETATM   24  C   UNL     1       6.485  23.649  55.074  1.00  0.00     0.082 C 
BRANCH  24  25
HETATM   25  C   UNL     1       7.474  22.542  55.400  1.00  0.00    -0.034 A 
HETATM   26  C   UNL     1       8.013  21.630  54.476  1.00  0.00     0.040 A 
HETATM   27 CL   UNL     1       7.657  21.675  52.792  1.00  0.00    -0.084 Cl
HETATM   28  C   UNL     1       8.853  20.590  54.899  1.00  0.00     0.024 A 
HETATM   29  C   UNL     1       9.149  20.421  56.249  1.00  0.00     0.002 A 
HETATM   30  C   UNL     1       8.609  21.293  57.183  1.00  0.00     0.001 A 
HETATM   31  C   UNL     1       7.782  22.338  56.764  1.00  0.00     0.009 A 
ENDBRANCH  24  25
ENDBRANCH   1  24
BRANCH   5  32
HETATM   32  C   UNL     1       5.542  25.784  51.250  1.00  0.00     0.141 C 
BRANCH  32  33
HETATM   33  C   UNL     1       5.565  27.249  50.934  1.00  0.00     0.004 A 
HETATM   34  C   UNL     1       4.881  27.801  49.707  1.00  0.00     0.007 A 
HETATM   35  C   UNL     1       4.309  28.074  51.070  1.00  0.00     0.007 A 
ENDBRANCH  32  33
ENDBRANCH   5  32
TORSDOF 7
ENDMDL
