MODEL 1
REMARK VINA RESULT:      -8.9      0.000      0.000
REMARK  6 active torsions:
REMARK  status: ('A' for Active; 'I' for Inactive)
REMARK       I    between atoms: N_2  and  C_3 
REMARK    1  A    between atoms: N_2  and  C_19 
REMARK       I    between atoms: C_3  and  N_4 
REMARK    2  A    between atoms: N_4  and  C_5 
REMARK    3  A    between atoms: C_12  and  C_13 
REMARK       I    between atoms: C_13  and  N_14 
REMARK    4  A    between atoms: C_19  and  C_20 
REMARK    5  A    between atoms: C_20  and  O_21 
REMARK    6  A    between atoms: O_21  and  C_22 
ROOT
HETATM    1  C   UNL     1       4.972  27.016  50.459  1.00  0.00     0.154 C 
HETATM    2  N   UNL     1       5.186  26.570  51.828  1.00  0.00    -0.336 N 
HETATM    3  C   UNL     1       5.406  27.584  52.770  1.00  0.00     0.322 C 
HETATM    4  N   UNL     1       5.472  27.138  54.070  1.00  0.00    -0.309 N 
HETATM    5  O   UNL     1       5.482  28.764  52.435  1.00  0.00    -0.247 OA
HETATM    6  H   UNL     1       4.967  26.287  54.251  1.00  0.00     0.170 HD
ENDROOT
BRANCH   4   7
HETATM    7  C   UNL     1       5.887  27.874  55.200  1.00  0.00     0.037 A 
HETATM    8  C   UNL     1       7.182  28.391  55.341  1.00  0.00     0.046 A 
HETATM    9  C   UNL     1       7.533  29.077  56.524  1.00  0.00     0.030 A 
HETATM   10  C   UNL     1       6.572  29.243  57.513  1.00  0.00     0.063 A 
HETATM   11  C   UNL     1       8.711  29.694  57.044  1.00  0.00     0.156 A 
HETATM   12  N   UNL     1       7.192  29.950  58.504  1.00  0.00    -0.277 N 
HETATM   13  C   UNL     1       5.273  28.741  57.406  1.00  0.00     0.034 A 
HETATM   14  H   UNL     1       6.788  30.260  59.381  1.00  0.00     0.189 HD
HETATM   15  N   UNL     1       8.481  30.240  58.261  1.00  0.00    -0.168 NA
HETATM   16  C   UNL     1       4.957  28.041  56.234  1.00  0.00     0.032 A 
BRANCH  11  17
HETATM   17  C   UNL     1      10.038  29.759  56.417  1.00  0.00     0.270 C 
HETATM   18  N   UNL     1      11.076  29.777  57.310  1.00  0.00    -0.365 N 
HETATM   19  H   UNL     1      10.864  29.714  58.299  1.00  0.00     0.159 HD
HETATM   20  H   UNL     1      12.025  29.781  56.972  1.00  0.00     0.159 HD
HETATM   21  O   UNL     1      10.242  29.779  55.208  1.00  0.00    -0.266 OA
ENDBRANCH  11  17
ENDBRANCH   4   7
BRANCH   2  22
HETATM   22  C   UNL     1       5.721  25.206  51.989  1.00  0.00     0.153 C 
BRANCH  22  23
HETATM   23  C   UNL     1       7.244  25.120  51.804  1.00  0.00     0.195 C 
BRANCH  23  24
HETATM   24  O   UNL     1       7.881  25.288  53.079  1.00  0.00    -0.350 OA
BRANCH  24  25
HETATM   25  C   UNL     1       7.895  24.120  53.786  1.00  0.00     0.068 A 
HETATM   26  C   UNL     1       7.551  24.170  55.136  1.00  0.00     0.038 A 
HETATM   27  C   UNL     1       7.523  22.996  55.889  1.00  0.00     0.026 A 
HETATM   28  C   UNL     1       7.826  21.780  55.280  1.00  0.00     0.034 A 
HETATM   29 CL   UNL     1       7.793  20.329  56.204  1.00  0.00    -0.084 Cl
HETATM   30  C   UNL     1       8.151  21.728  53.923  1.00  0.00     0.026 A 
HETATM   31  C   UNL     1       8.180  22.902  53.169  1.00  0.00     0.038 A 
ENDBRANCH  24  25
ENDBRANCH  23  24
ENDBRANCH  22  23
ENDBRANCH   2  22
TORSDOF 6
ENDMDL
MODEL 2
REMARK VINA RESULT:      -8.8      4.626      8.488
REMARK  6 active torsions:
REMARK  status: ('A' for Active; 'I' for Inactive)
REMARK       I    between atoms: N_2  and  C_3 
REMARK    1  A    between atoms: N_2  and  C_19 
REMARK       I    between atoms: C_3  and  N_4 
REMARK    2  A    between atoms: N_4  and  C_5 
REMARK    3  A    between atoms: C_12  and  C_13 
REMARK       I    between atoms: C_13  and  N_14 
REMARK    4  A    between atoms: C_19  and  C_20 
REMARK    5  A    between atoms: C_20  and  O_21 
REMARK    6  A    between atoms: O_21  and  C_22 
ROOT
HETATM    1  C   UNL     1       5.538  28.641  57.124  1.00  0.00     0.154 C 
HETATM    2  N   UNL     1       6.667  28.048  56.423  1.00  0.00    -0.336 N 
HETATM    3  C   UNL     1       6.412  26.827  55.783  1.00  0.00     0.322 C 
HETATM    4  N   UNL     1       7.461  26.362  55.023  1.00  0.00    -0.309 N 
HETATM    5  O   UNL     1       5.320  26.271  55.875  1.00  0.00    -0.247 OA
HETATM    6  H   UNL     1       8.078  27.076  54.673  1.00  0.00     0.170 HD
ENDROOT
BRANCH   4   7
HETATM    7  C   UNL     1       7.585  25.084  54.439  1.00  0.00     0.037 A 
HETATM    8  C   UNL     1       7.907  23.936  55.176  1.00  0.00     0.046 A 
HETATM    9  C   UNL     1       8.059  22.700  54.512  1.00  0.00     0.030 A 
HETATM   10  C   UNL     1       7.862  22.650  53.138  1.00  0.00     0.063 A 
HETATM   11  C   UNL     1       8.404  21.368  54.886  1.00  0.00     0.156 A 
HETATM   12  N   UNL     1       8.053  21.342  52.793  1.00  0.00    -0.277 N 
HETATM   13  C   UNL     1       7.541  23.774  52.372  1.00  0.00     0.034 A 
HETATM   14  H   UNL     1       7.981  20.935  51.867  1.00  0.00     0.189 HD
HETATM   15  N   UNL     1       8.384  20.538  53.817  1.00  0.00    -0.168 NA
HETATM   16  C   UNL     1       7.421  24.993  53.052  1.00  0.00     0.032 A 
BRANCH  11  17
HETATM   17  C   UNL     1       8.764  20.877  56.224  1.00  0.00     0.270 C 
HETATM   18  N   UNL     1       9.790  19.972  56.229  1.00  0.00    -0.365 N 
HETATM   19  H   UNL     1      10.234  19.738  55.348  1.00  0.00     0.159 HD
HETATM   20  H   UNL     1      10.133  19.611  57.105  1.00  0.00     0.159 HD
HETATM   21  O   UNL     1       8.229  21.235  57.267  1.00  0.00    -0.266 OA
ENDBRANCH  11  17
ENDBRANCH   4   7
BRANCH   2  22
HETATM   22  C   UNL     1       8.005  28.422  56.918  1.00  0.00     0.153 C 
BRANCH  22  23
HETATM   23  C   UNL     1       7.991  29.004  58.340  1.00  0.00     0.195 C 
BRANCH  23  24
HETATM   24  O   UNL     1       8.379  30.383  58.285  1.00  0.00    -0.350 OA
BRANCH  24  25
HETATM   25  C   UNL     1       8.336  30.962  59.522  1.00  0.00     0.068 A 
HETATM   26  C   UNL     1       7.352  31.919  59.761  1.00  0.00     0.038 A 
HETATM   27  C   UNL     1       7.254  32.514  61.020  1.00  0.00     0.026 A 
HETATM   28  C   UNL     1       8.133  32.134  62.031  1.00  0.00     0.034 A 
HETATM   29 CL   UNL     1       8.016  32.864  63.585  1.00  0.00    -0.084 Cl
HETATM   30  C   UNL     1       9.106  31.160  61.797  1.00  0.00     0.026 A 
HETATM   31  C   UNL     1       9.206  30.566  60.538  1.00  0.00     0.038 A 
ENDBRANCH  24  25
ENDBRANCH  23  24
ENDBRANCH  22  23
ENDBRANCH   2  22
TORSDOF 6
ENDMDL
MODEL 3
REMARK VINA RESULT:      -8.5      2.258      3.230
REMARK  6 active torsions:
REMARK  status: ('A' for Active; 'I' for Inactive)
REMARK       I    between atoms: N_2  and  C_3 
REMARK    1  A    between atoms: N_2  and  C_19 
REMARK       I    between atoms: C_3  and  N_4 
REMARK    2  A    between atoms: N_4  and  C_5 
REMARK    3  A    between atoms: C_12  and  C_13 
REMARK       I    between atoms: C_13  and  N_14 
REMARK    4  A    between atoms: C_19  and  C_20 
REMARK    5  A    between atoms: C_20  and  O_21 
REMARK    6  A    between atoms: O_21  and  C_22 
ROOT
HETATM    1  C   UNL     1       4.090  28.146  53.655  1.00  0.00     0.154 C 
HETATM    2  N   UNL     1       5.347  27.785  54.294  1.00  0.00    -0.336 N 
HETATM    3  C   UNL     1       5.916  28.770  55.114  1.00  0.00     0.322 C 
HETATM    4  N   UNL     1       7.030  28.351  55.804  1.00  0.00    -0.309 N 
HETATM    5  O   UNL     1       5.412  29.886  55.220  1.00  0.00    -0.247 OA
HETATM    6  H   UNL     1       7.068  27.361  55.985  1.00  0.00     0.170 HD
ENDROOT
BRANCH   4   7
HETATM    7  C   UNL     1       7.931  29.156  56.532  1.00  0.00     0.037 A 
HETATM    8  C   UNL     1       7.577  29.822  57.713  1.00  0.00     0.046 A 
HETATM    9  C   UNL     1       8.523  30.647  58.359  1.00  0.00     0.030 A 
HETATM   10  C   UNL     1       9.796  30.760  57.814  1.00  0.00     0.063 A 
HETATM   11  C   UNL     1       8.538  31.487  59.512  1.00  0.00     0.156 A 
HETATM   12  N   UNL     1      10.477  31.592  58.656  1.00  0.00    -0.277 N 
HETATM   13  C   UNL     1      10.182  30.112  56.638  1.00  0.00     0.034 A 
HETATM   14  H   UNL     1      11.442  31.892  58.574  1.00  0.00     0.189 HD
HETATM   15  N   UNL     1       9.754  32.053  59.691  1.00  0.00    -0.168 NA
HETATM   16  C   UNL     1       9.217  29.320  56.002  1.00  0.00     0.032 A 
BRANCH  11  17
HETATM   17  C   UNL     1       7.424  31.769  60.428  1.00  0.00     0.270 C 
HETATM   18  N   UNL     1       7.431  31.009  61.566  1.00  0.00    -0.365 N 
HETATM   19  H   UNL     1       8.193  30.354  61.705  1.00  0.00     0.159 HD
HETATM   20  H   UNL     1       6.729  31.160  62.272  1.00  0.00     0.159 HD
HETATM   21  O   UNL     1       6.556  32.614  60.236  1.00  0.00    -0.266 OA
ENDBRANCH  11  17
ENDBRANCH   4   7
BRANCH   2  22
HETATM   22  C   UNL     1       6.153  26.760  53.606  1.00  0.00     0.153 C 
BRANCH  22  23
HETATM   23  C   UNL     1       5.758  25.322  53.975  1.00  0.00     0.195 C 
BRANCH  23  24
HETATM   24  O   UNL     1       6.396  24.414  53.068  1.00  0.00    -0.350 OA
BRANCH  24  25
HETATM   25  C   UNL     1       7.122  23.469  53.736  1.00  0.00     0.068 A 
HETATM   26  C   UNL     1       7.140  23.524  55.129  1.00  0.00     0.038 A 
HETATM   27  C   UNL     1       7.846  22.561  55.852  1.00  0.00     0.026 A 
HETATM   28  C   UNL     1       8.514  21.544  55.175  1.00  0.00     0.034 A 
HETATM   29 CL   UNL     1       9.384  20.354  56.063  1.00  0.00    -0.084 Cl
HETATM   30  C   UNL     1       8.478  21.477  53.780  1.00  0.00     0.026 A 
HETATM   31  C   UNL     1       7.775  22.441  53.056  1.00  0.00     0.038 A 
ENDBRANCH  24  25
ENDBRANCH  23  24
ENDBRANCH  22  23
ENDBRANCH   2  22
TORSDOF 6
ENDMDL
MODEL 4
REMARK VINA RESULT:      -8.3      4.995      9.203
REMARK  6 active torsions:
REMARK  status: ('A' for Active; 'I' for Inactive)
REMARK       I    between atoms: N_2  and  C_3 
REMARK    1  A    between atoms: N_2  and  C_19 
REMARK       I    between atoms: C_3  and  N_4 
REMARK    2  A    between atoms: N_4  and  C_5 
REMARK    3  A    between atoms: C_12  and  C_13 
REMARK       I    between atoms: C_13  and  N_14 
REMARK    4  A    between atoms: C_19  and  C_20 
REMARK    5  A    between atoms: C_20  and  O_21 
REMARK    6  A    between atoms: O_21  and  C_22 
ROOT
HETATM    1  C   UNL     1      10.250  31.160  57.985  1.00  0.00     0.154 C 
HETATM    2  N   UNL     1       9.176  30.196  58.175  1.00  0.00    -0.336 N 
HETATM    3  C   UNL     1       9.183  29.099  57.302  1.00  0.00     0.322 C 
HETATM    4  N   UNL     1       8.237  28.144  57.593  1.00  0.00    -0.309 N 
HETATM    5  O   UNL     1      10.007  29.008  56.394  1.00  0.00    -0.247 OA
HETATM    6  H   UNL     1       7.957  28.107  58.559  1.00  0.00     0.170 HD
ENDROOT
BRANCH   4   7
HETATM    7  C   UNL     1       7.862  27.047  56.788  1.00  0.00     0.037 A 
HETATM    8  C   UNL     1       7.091  27.182  55.625  1.00  0.00     0.046 A 
HETATM    9  C   UNL     1       6.718  26.030  54.899  1.00  0.00     0.030 A 
HETATM   10  C   UNL     1       7.147  24.788  55.348  1.00  0.00     0.063 A 
HETATM   11  C   UNL     1       5.941  25.756  53.735  1.00  0.00     0.156 A 
HETATM   12  N   UNL     1       6.656  23.888  54.444  1.00  0.00    -0.277 N 
HETATM   13  C   UNL     1       7.915  24.617  56.502  1.00  0.00     0.034 A 
HETATM   14  H   UNL     1       6.781  22.882  54.450  1.00  0.00     0.189 HD
HETATM   15  N   UNL     1       5.922  24.431  53.458  1.00  0.00    -0.168 NA
HETATM   16  C   UNL     1       8.250  25.773  57.219  1.00  0.00     0.032 A 
BRANCH  11  17
HETATM   17  C   UNL     1       5.211  26.719  52.898  1.00  0.00     0.270 C 
HETATM   18  N   UNL     1       3.908  26.909  53.273  1.00  0.00    -0.365 N 
HETATM   19  H   UNL     1       3.563  26.416  54.089  1.00  0.00     0.159 HD
HETATM   20  H   UNL     1       3.341  27.582  52.783  1.00  0.00     0.159 HD
HETATM   21  O   UNL     1       5.694  27.331  51.952  1.00  0.00    -0.266 OA
ENDBRANCH  11  17
ENDBRANCH   4   7
BRANCH   2  22
HETATM   22  C   UNL     1       7.940  30.714  58.790  1.00  0.00     0.153 C 
BRANCH  22  23
HETATM   23  C   UNL     1       8.185  31.866  59.777  1.00  0.00     0.195 C 
BRANCH  23  24
HETATM   24  O   UNL     1       6.921  32.370  60.231  1.00  0.00    -0.350 OA
BRANCH  24  25
HETATM   25  C   UNL     1       6.970  32.721  61.550  1.00  0.00     0.068 A 
HETATM   26  C   UNL     1       5.884  33.414  62.082  1.00  0.00     0.038 A 
HETATM   27  C   UNL     1       5.880  33.767  63.433  1.00  0.00     0.026 A 
HETATM   28  C   UNL     1       6.957  33.409  64.241  1.00  0.00     0.034 A 
HETATM   29 CL   UNL     1       6.956  33.842  65.907  1.00  0.00    -0.084 Cl
HETATM   30  C   UNL     1       8.035  32.697  63.712  1.00  0.00     0.026 A 
HETATM   31  C   UNL     1       8.041  32.346  62.361  1.00  0.00     0.038 A 
ENDBRANCH  24  25
ENDBRANCH  23  24
ENDBRANCH  22  23
ENDBRANCH   2  22
TORSDOF 6
ENDMDL
MODEL 5
REMARK VINA RESULT:      -8.3      1.673      2.653
REMARK  6 active torsions:
REMARK  status: ('A' for Active; 'I' for Inactive)
REMARK       I    between atoms: N_2  and  C_3 
REMARK    1  A    between atoms: N_2  and  C_19 
REMARK       I    between atoms: C_3  and  N_4 
REMARK    2  A    between atoms: N_4  and  C_5 
REMARK    3  A    between atoms: C_12  and  C_13 
REMARK       I    between atoms: C_13  and  N_14 
REMARK    4  A    between atoms: C_19  and  C_20 
REMARK    5  A    between atoms: C_20  and  O_21 
REMARK    6  A    between atoms: O_21  and  C_22 
ROOT
HETATM    1  C   UNL     1       5.076  27.195  50.319  1.00  0.00     0.154 C 
HETATM    2  N   UNL     1       5.326  26.809  51.700  1.00  0.00    -0.336 N 
HETATM    3  C   UNL     1       5.704  27.847  52.563  1.00  0.00     0.322 C 
HETATM    4  N   UNL     1       5.803  27.472  53.883  1.00  0.00    -0.309 N 
HETATM    5  O   UNL     1       5.878  28.991  52.150  1.00  0.00    -0.247 OA
HETATM    6  H   UNL     1       5.226  26.690  54.144  1.00  0.00     0.170 HD
ENDROOT
BRANCH   4   7
HETATM    7  C   UNL     1       6.357  28.224  54.940  1.00  0.00     0.037 A 
HETATM    8  C   UNL     1       5.583  29.010  55.805  1.00  0.00     0.046 A 
HETATM    9  C   UNL     1       6.217  29.771  56.810  1.00  0.00     0.030 A 
HETATM   10  C   UNL     1       7.599  29.703  56.931  1.00  0.00     0.063 A 
HETATM   11  C   UNL     1       5.802  30.687  57.822  1.00  0.00     0.156 A 
HETATM   12  N   UNL     1       7.911  30.514  57.985  1.00  0.00    -0.277 N 
HETATM   13  C   UNL     1       8.401  28.931  56.086  1.00  0.00     0.034 A 
HETATM   14  H   UNL     1       8.832  30.699  58.365  1.00  0.00     0.189 HD
HETATM   15  N   UNL     1       6.856  31.127  58.548  1.00  0.00    -0.168 NA
HETATM   16  C   UNL     1       7.750  28.205  55.080  1.00  0.00     0.032 A 
BRANCH  11  17
HETATM   17  C   UNL     1       4.437  31.157  58.099  1.00  0.00     0.270 C 
HETATM   18  N   UNL     1       3.602  30.190  58.589  1.00  0.00    -0.365 N 
HETATM   19  H   UNL     1       3.979  29.262  58.751  1.00  0.00     0.159 HD
HETATM   20  H   UNL     1       2.658  30.428  58.847  1.00  0.00     0.159 HD
HETATM   21  O   UNL     1       4.047  32.308  57.936  1.00  0.00    -0.266 OA
ENDBRANCH  11  17
ENDBRANCH   4   7
BRANCH   2  22
HETATM   22  C   UNL     1       5.730  25.408  51.918  1.00  0.00     0.153 C 
BRANCH  22  23
HETATM   23  C   UNL     1       7.233  25.165  51.710  1.00  0.00     0.195 C 
BRANCH  23  24
HETATM   24  O   UNL     1       7.911  25.322  52.964  1.00  0.00    -0.350 OA
BRANCH  24  25
HETATM   25  C   UNL     1       7.888  24.167  53.691  1.00  0.00     0.068 A 
HETATM   26  C   UNL     1       7.669  24.263  55.064  1.00  0.00     0.038 A 
HETATM   27  C   UNL     1       7.608  23.105  55.841  1.00  0.00     0.026 A 
HETATM   28  C   UNL     1       7.752  21.860  55.232  1.00  0.00     0.034 A 
HETATM   29 CL   UNL     1       7.677  20.429  56.185  1.00  0.00    -0.084 Cl
HETATM   30  C   UNL     1       7.951  21.763  53.854  1.00  0.00     0.026 A 
HETATM   31  C   UNL     1       8.014  22.921  53.077  1.00  0.00     0.038 A 
ENDBRANCH  24  25
ENDBRANCH  23  24
ENDBRANCH  22  23
ENDBRANCH   2  22
TORSDOF 6
ENDMDL
MODEL 6
REMARK VINA RESULT:      -8.2      3.812      6.841
REMARK  6 active torsions:
REMARK  status: ('A' for Active; 'I' for Inactive)
REMARK       I    between atoms: N_2  and  C_3 
REMARK    1  A    between atoms: N_2  and  C_19 
REMARK       I    between atoms: C_3  and  N_4 
REMARK    2  A    between atoms: N_4  and  C_5 
REMARK    3  A    between atoms: C_12  and  C_13 
REMARK       I    between atoms: C_13  and  N_14 
REMARK    4  A    between atoms: C_19  and  C_20 
REMARK    5  A    between atoms: C_20  and  O_21 
REMARK    6  A    between atoms: O_21  and  C_22 
ROOT
HETATM    1  C   UNL     1       4.288  29.521  55.008  1.00  0.00     0.154 C 
HETATM    2  N   UNL     1       4.198  28.217  54.367  1.00  0.00    -0.336 N 
HETATM    3  C   UNL     1       5.303  27.374  54.545  1.00  0.00     0.322 C 
HETATM    4  N   UNL     1       5.129  26.106  54.040  1.00  0.00    -0.309 N 
HETATM    5  O   UNL     1       6.306  27.751  55.147  1.00  0.00    -0.247 OA
HETATM    6  H   UNL     1       4.172  25.797  53.994  1.00  0.00     0.170 HD
ENDROOT
BRANCH   4   7
HETATM    7  C   UNL     1       6.118  25.113  53.880  1.00  0.00     0.037 A 
HETATM    8  C   UNL     1       6.613  24.350  54.946  1.00  0.00     0.046 A 
HETATM    9  C   UNL     1       7.637  23.406  54.711  1.00  0.00     0.030 A 
HETATM   10  C   UNL     1       8.113  23.243  53.417  1.00  0.00     0.063 A 
HETATM   11  C   UNL     1       8.401  22.500  55.505  1.00  0.00     0.156 A 
HETATM   12  N   UNL     1       9.064  22.265  53.503  1.00  0.00    -0.277 N 
HETATM   13  C   UNL     1       7.644  23.987  52.332  1.00  0.00     0.034 A 
HETATM   14  H   UNL     1       9.617  21.880  52.746  1.00  0.00     0.189 HD
HETATM   15  N   UNL     1       9.268  21.792  54.744  1.00  0.00    -0.168 NA
HETATM   16  C   UNL     1       6.646  24.935  52.595  1.00  0.00     0.032 A 
BRANCH  11  17
HETATM   17  C   UNL     1       8.332  22.307  56.960  1.00  0.00     0.270 C 
HETATM   18  N   UNL     1       8.396  23.469  57.681  1.00  0.00    -0.365 N 
HETATM   19  H   UNL     1       8.452  24.347  57.178  1.00  0.00     0.159 HD
HETATM   20  H   UNL     1       8.316  23.439  58.685  1.00  0.00     0.159 HD
HETATM   21  O   UNL     1       8.210  21.221  57.518  1.00  0.00    -0.266 OA
ENDBRANCH  11  17
ENDBRANCH   4   7
BRANCH   2  22
HETATM   22  C   UNL     1       3.318  28.136  53.186  1.00  0.00     0.153 C 
BRANCH  22  23
HETATM   23  C   UNL     1       3.420  29.360  52.262  1.00  0.00     0.195 C 
BRANCH  23  24
HETATM   24  O   UNL     1       4.472  29.142  51.312  1.00  0.00    -0.350 OA
BRANCH  24  25
HETATM   25  C   UNL     1       4.113  28.215  50.375  1.00  0.00     0.068 A 
HETATM   26  C   UNL     1       3.007  28.490  49.574  1.00  0.00     0.038 A 
HETATM   27  C   UNL     1       2.624  27.584  48.584  1.00  0.00     0.026 A 
HETATM   28  C   UNL     1       3.362  26.417  48.396  1.00  0.00     0.034 A 
HETATM   29 CL   UNL     1       2.894  25.297  47.177  1.00  0.00    -0.084 Cl
HETATM   30  C   UNL     1       4.483  26.152  49.186  1.00  0.00     0.026 A 
HETATM   31  C   UNL     1       4.865  27.057  50.177  1.00  0.00     0.038 A 
ENDBRANCH  24  25
ENDBRANCH  23  24
ENDBRANCH  22  23
ENDBRANCH   2  22
TORSDOF 6
ENDMDL
MODEL 7
REMARK VINA RESULT:      -8.2      3.167      4.750
REMARK  6 active torsions:
REMARK  status: ('A' for Active; 'I' for Inactive)
REMARK       I    between atoms: N_2  and  C_3 
REMARK    1  A    between atoms: N_2  and  C_19 
REMARK       I    between atoms: C_3  and  N_4 
REMARK    2  A    between atoms: N_4  and  C_5 
REMARK    3  A    between atoms: C_12  and  C_13 
REMARK       I    between atoms: C_13  and  N_14 
REMARK    4  A    between atoms: C_19  and  C_20 
REMARK    5  A    between atoms: C_20  and  O_21 
REMARK    6  A    between atoms: O_21  and  C_22 
ROOT
HETATM    1  C   UNL     1       8.559  23.496  56.964  1.00  0.00     0.154 C 
HETATM    2  N   UNL     1       8.310  24.761  56.289  1.00  0.00    -0.336 N 
HETATM    3  C   UNL     1       7.952  25.832  57.120  1.00  0.00     0.322 C 
HETATM    4  N   UNL     1       7.854  27.040  56.468  1.00  0.00    -0.309 N 
HETATM    5  O   UNL     1       7.794  25.680  58.329  1.00  0.00    -0.247 OA
HETATM    6  H   UNL     1       8.420  27.120  55.639  1.00  0.00     0.170 HD
ENDROOT
BRANCH   4   7
HETATM    7  C   UNL     1       7.317  28.240  56.979  1.00  0.00     0.037 A 
HETATM    8  C   UNL     1       8.097  29.216  57.613  1.00  0.00     0.046 A 
HETATM    9  C   UNL     1       7.477  30.370  58.140  1.00  0.00     0.030 A 
HETATM   10  C   UNL     1       6.104  30.518  57.995  1.00  0.00     0.063 A 
HETATM   11  C   UNL     1       7.901  31.527  58.859  1.00  0.00     0.156 A 
HETATM   12  N   UNL     1       5.806  31.719  58.575  1.00  0.00    -0.277 N 
HETATM   13  C   UNL     1       5.296  29.564  57.371  1.00  0.00     0.034 A 
HETATM   14  H   UNL     1       4.895  32.156  58.647  1.00  0.00     0.189 HD
HETATM   15  N   UNL     1       6.861  32.357  59.109  1.00  0.00    -0.168 NA
HETATM   16  C   UNL     1       5.931  28.417  56.879  1.00  0.00     0.032 A 
BRANCH  11  17
HETATM   17  C   UNL     1       9.259  31.848  59.320  1.00  0.00     0.270 C 
HETATM   18  N   UNL     1       9.461  31.631  60.656  1.00  0.00    -0.365 N 
HETATM   19  H   UNL     1       8.698  31.249  61.205  1.00  0.00     0.159 HD
HETATM   20  H   UNL     1      10.372  31.784  61.055  1.00  0.00     0.159 HD
HETATM   21  O   UNL     1      10.164  32.258  58.601  1.00  0.00    -0.266 OA
ENDBRANCH  11  17
ENDBRANCH   4   7
BRANCH   2  22
HETATM   22  C   UNL     1       7.886  24.672  54.880  1.00  0.00     0.153 C 
BRANCH  22  23
HETATM   23  C   UNL     1       6.406  24.295  54.709  1.00  0.00     0.195 C 
BRANCH  23  24
HETATM   24  O   UNL     1       5.613  25.490  54.723  1.00  0.00    -0.350 OA
BRANCH  24  25
HETATM   25  C   UNL     1       5.561  26.068  53.487  1.00  0.00     0.068 A 
HETATM   26  C   UNL     1       5.266  25.252  52.396  1.00  0.00     0.038 A 
HETATM   27  C   UNL     1       5.174  25.806  51.119  1.00  0.00     0.026 A 
HETATM   28  C   UNL     1       5.363  27.176  50.948  1.00  0.00     0.034 A 
HETATM   29 CL   UNL     1       5.250  27.865  49.375  1.00  0.00    -0.084 Cl
HETATM   30  C   UNL     1       5.639  27.997  52.044  1.00  0.00     0.026 A 
HETATM   31  C   UNL     1       5.733  27.442  53.321  1.00  0.00     0.038 A 
ENDBRANCH  24  25
ENDBRANCH  23  24
ENDBRANCH  22  23
ENDBRANCH   2  22
TORSDOF 6
ENDMDL
MODEL 8
REMARK VINA RESULT:      -8.1      2.620      5.737
REMARK  6 active torsions:
REMARK  status: ('A' for Active; 'I' for Inactive)
REMARK       I    between atoms: N_2  and  C_3 
REMARK    1  A    between atoms: N_2  and  C_19 
REMARK       I    between atoms: C_3  and  N_4 
REMARK    2  A    between atoms: N_4  and  C_5 
REMARK    3  A    between atoms: C_12  and  C_13 
REMARK       I    between atoms: C_13  and  N_14 
REMARK    4  A    between atoms: C_19  and  C_20 
REMARK    5  A    between atoms: C_20  and  O_21 
REMARK    6  A    between atoms: O_21  and  C_22 
ROOT
HETATM    1  C   UNL     1       5.322  28.330  57.298  1.00  0.00     0.154 C 
HETATM    2  N   UNL     1       5.633  27.409  56.214  1.00  0.00    -0.336 N 
HETATM    3  C   UNL     1       5.428  27.904  54.919  1.00  0.00     0.322 C 
HETATM    4  N   UNL     1       5.856  27.059  53.921  1.00  0.00    -0.309 N 
HETATM    5  O   UNL     1       4.949  29.020  54.728  1.00  0.00    -0.247 OA
HETATM    6  H   UNL     1       6.599  26.434  54.186  1.00  0.00     0.170 HD
ENDROOT
BRANCH   4   7
HETATM    7  C   UNL     1       5.600  27.179  52.539  1.00  0.00     0.037 A 
HETATM    8  C   UNL     1       5.689  28.395  51.849  1.00  0.00     0.046 A 
HETATM    9  C   UNL     1       5.372  28.442  50.474  1.00  0.00     0.030 A 
HETATM   10  C   UNL     1       4.999  27.268  49.833  1.00  0.00     0.063 A 
HETATM   11  C   UNL     1       5.307  29.452  49.468  1.00  0.00     0.156 A 
HETATM   12  N   UNL     1       4.780  27.622  48.531  1.00  0.00    -0.277 N 
HETATM   13  C   UNL     1       4.898  26.039  50.489  1.00  0.00     0.034 A 
HETATM   14  H   UNL     1       4.501  27.014  47.769  1.00  0.00     0.189 HD
HETATM   15  N   UNL     1       4.954  28.928  48.271  1.00  0.00    -0.168 NA
HETATM   16  C   UNL     1       5.193  26.024  51.859  1.00  0.00     0.032 A 
BRANCH  11  17
HETATM   17  C   UNL     1       5.558  30.891  49.626  1.00  0.00     0.270 C 
HETATM   18  N   UNL     1       4.426  31.637  49.817  1.00  0.00    -0.365 N 
HETATM   19  H   UNL     1       3.534  31.158  49.866  1.00  0.00     0.159 HD
HETATM   20  H   UNL     1       4.502  32.629  49.975  1.00  0.00     0.159 HD
HETATM   21  O   UNL     1       6.667  31.414  49.612  1.00  0.00    -0.266 OA
ENDBRANCH  11  17
ENDBRANCH   4   7
BRANCH   2  22
HETATM   22  C   UNL     1       5.548  25.973  56.539  1.00  0.00     0.153 C 
BRANCH  22  23
HETATM   23  C   UNL     1       6.903  25.347  56.901  1.00  0.00     0.195 C 
BRANCH  23  24
HETATM   24  O   UNL     1       7.771  25.416  55.761  1.00  0.00    -0.350 OA
BRANCH  24  25
HETATM   25  C   UNL     1       7.815  24.224  55.096  1.00  0.00     0.068 A 
HETATM   26  C   UNL     1       7.902  24.256  53.705  1.00  0.00     0.038 A 
HETATM   27  C   UNL     1       7.980  23.061  52.987  1.00  0.00     0.026 A 
HETATM   28  C   UNL     1       7.985  21.847  53.670  1.00  0.00     0.034 A 
HETATM   29 CL   UNL     1       8.082  20.372  52.790  1.00  0.00    -0.084 Cl
HETATM   30  C   UNL     1       7.918  21.817  55.065  1.00  0.00     0.026 A 
HETATM   31  C   UNL     1       7.839  23.011  55.783  1.00  0.00     0.038 A 
ENDBRANCH  24  25
ENDBRANCH  23  24
ENDBRANCH  22  23
ENDBRANCH   2  22
TORSDOF 6
ENDMDL
MODEL 9
REMARK VINA RESULT:      -8.1      4.588      8.349
REMARK  6 active torsions:
REMARK  status: ('A' for Active; 'I' for Inactive)
REMARK       I    between atoms: N_2  and  C_3 
REMARK    1  A    between atoms: N_2  and  C_19 
REMARK       I    between atoms: C_3  and  N_4 
REMARK    2  A    between atoms: N_4  and  C_5 
REMARK    3  A    between atoms: C_12  and  C_13 
REMARK       I    between atoms: C_13  and  N_14 
REMARK    4  A    between atoms: C_19  and  C_20 
REMARK    5  A    between atoms: C_20  and  O_21 
REMARK    6  A    between atoms: O_21  and  C_22 
ROOT
HETATM    1  C   UNL     1       4.682  30.242  56.414  1.00  0.00     0.154 C 
HETATM    2  N   UNL     1       5.947  29.586  56.115  1.00  0.00    -0.336 N 
HETATM    3  C   UNL     1       5.856  28.396  55.380  1.00  0.00     0.322 C 
HETATM    4  N   UNL     1       7.072  27.875  55.002  1.00  0.00    -0.309 N 
HETATM    5  O   UNL     1       4.768  27.912  55.076  1.00  0.00    -0.247 OA
HETATM    6  H   UNL     1       7.811  28.552  54.910  1.00  0.00     0.170 HD
ENDROOT
BRANCH   4   7
HETATM    7  C   UNL     1       7.315  26.601  54.447  1.00  0.00     0.037 A 
HETATM    8  C   UNL     1       7.546  25.460  55.227  1.00  0.00     0.046 A 
HETATM    9  C   UNL     1       7.827  24.229  54.596  1.00  0.00     0.030 A 
HETATM   10  C   UNL     1       7.845  24.177  53.208  1.00  0.00     0.063 A 
HETATM   11  C   UNL     1       8.141  22.904  55.021  1.00  0.00     0.156 A 
HETATM   12  N   UNL     1       8.118  22.874  52.899  1.00  0.00    -0.277 N 
HETATM   13  C   UNL     1       7.620  25.294  52.400  1.00  0.00     0.034 A 
HETATM   14  H   UNL     1       8.198  22.468  51.974  1.00  0.00     0.189 HD
HETATM   15  N   UNL     1       8.304  22.076  53.963  1.00  0.00    -0.168 NA
HETATM   16  C   UNL     1       7.369  26.509  53.051  1.00  0.00     0.032 A 
BRANCH  11  17
HETATM   17  C   UNL     1       8.301  22.419  56.399  1.00  0.00     0.270 C 
HETATM   18  N   UNL     1       8.224  21.059  56.525  1.00  0.00    -0.365 N 
HETATM   19  H   UNL     1       8.100  20.502  55.687  1.00  0.00     0.159 HD
HETATM   20  H   UNL     1       8.362  20.632  57.426  1.00  0.00     0.159 HD
HETATM   21  O   UNL     1       8.503  23.135  57.374  1.00  0.00    -0.266 OA
ENDBRANCH  11  17
ENDBRANCH   4   7
BRANCH   2  22
HETATM   22  C   UNL     1       7.056  29.862  57.047  1.00  0.00     0.153 C 
BRANCH  22  23
HETATM   23  C   UNL     1       6.730  30.953  58.079  1.00  0.00     0.195 C 
BRANCH  23  24
HETATM   24  O   UNL     1       7.956  31.487  58.598  1.00  0.00    -0.350 OA
BRANCH  24  25
HETATM   25  C   UNL     1       7.827  31.849  59.908  1.00  0.00     0.068 A 
HETATM   26  C   UNL     1       8.865  31.527  60.780  1.00  0.00     0.038 A 
HETATM   27  C   UNL     1       8.787  31.903  62.122  1.00  0.00     0.026 A 
HETATM   28  C   UNL     1       7.676  32.612  62.575  1.00  0.00     0.034 A 
HETATM   29 CL   UNL     1       7.576  33.079  64.228  1.00  0.00    -0.084 Cl
HETATM   30  C   UNL     1       6.646  32.952  61.696  1.00  0.00     0.026 A 
HETATM   31  C   UNL     1       6.722  32.574  60.355  1.00  0.00     0.038 A 
ENDBRANCH  24  25
ENDBRANCH  23  24
ENDBRANCH  22  23
ENDBRANCH   2  22
TORSDOF 6
ENDMDL
MODEL 10
REMARK VINA RESULT:      -8.0      4.712      8.893
REMARK  6 active torsions:
REMARK  status: ('A' for Active; 'I' for Inactive)
REMARK       I    between atoms: N_2  and  C_3 
REMARK    1  A    between atoms: N_2  and  C_19 
REMARK       I    between atoms: C_3  and  N_4 
REMARK    2  A    between atoms: N_4  and  C_5 
REMARK    3  A    between atoms: C_12  and  C_13 
REMARK       I    between atoms: C_13  and  N_14 
REMARK    4  A    between atoms: C_19  and  C_20 
REMARK    5  A    between atoms: C_20  and  O_21 
REMARK    6  A    between atoms: O_21  and  C_22 
ROOT
HETATM    1  C   UNL     1      10.390  30.774  57.706  1.00  0.00     0.154 C 
HETATM    2  N   UNL     1       9.248  29.898  57.931  1.00  0.00    -0.336 N 
HETATM    3  C   UNL     1       8.694  29.316  56.782  1.00  0.00     0.322 C 
HETATM    4  N   UNL     1       7.706  28.394  57.042  1.00  0.00    -0.309 N 
HETATM    5  O   UNL     1       9.111  29.591  55.660  1.00  0.00    -0.247 OA
HETATM    6  H   UNL     1       7.774  27.943  57.939  1.00  0.00     0.170 HD
ENDROOT
BRANCH   4   7
HETATM    7  C   UNL     1       6.828  27.805  56.108  1.00  0.00     0.037 A 
HETATM    8  C   UNL     1       7.063  26.552  55.524  1.00  0.00     0.046 A 
HETATM    9  C   UNL     1       6.160  26.051  54.562  1.00  0.00     0.030 A 
HETATM   10  C   UNL     1       5.043  26.808  54.234  1.00  0.00     0.063 A 
HETATM   11  C   UNL     1       6.070  24.884  53.746  1.00  0.00     0.156 A 
HETATM   12  N   UNL     1       4.361  26.066  53.311  1.00  0.00    -0.277 N 
HETATM   13  C   UNL     1       4.779  28.061  54.794  1.00  0.00     0.034 A 
HETATM   14  H   UNL     1       3.489  26.305  52.855  1.00  0.00     0.189 HD
HETATM   15  N   UNL     1       4.948  24.901  52.989  1.00  0.00    -0.168 NA
HETATM   16  C   UNL     1       5.703  28.547  55.727  1.00  0.00     0.032 A 
BRANCH  11  17
HETATM   17  C   UNL     1       7.029  23.773  53.663  1.00  0.00     0.270 C 
HETATM   18  N   UNL     1       7.856  23.830  52.574  1.00  0.00    -0.365 N 
HETATM   19  H   UNL     1       7.774  24.621  51.945  1.00  0.00     0.159 HD
HETATM   20  H   UNL     1       8.573  23.133  52.455  1.00  0.00     0.159 HD
HETATM   21  O   UNL     1       7.123  22.867  54.484  1.00  0.00    -0.266 OA
ENDBRANCH  11  17
ENDBRANCH   4   7
BRANCH   2  22
HETATM   22  C   UNL     1       8.459  30.162  59.148  1.00  0.00     0.153 C 
BRANCH  22  23
HETATM   23  C   UNL     1       8.174  31.653  59.382  1.00  0.00     0.195 C 
BRANCH  23  24
HETATM   24  O   UNL     1       8.821  32.070  60.592  1.00  0.00    -0.350 OA
BRANCH  24  25
HETATM   25  C   UNL     1       7.912  32.348  61.572  1.00  0.00     0.068 A 
HETATM   26  C   UNL     1       8.375  32.447  62.883  1.00  0.00     0.038 A 
HETATM   27  C   UNL     1       7.485  32.758  63.912  1.00  0.00     0.026 A 
HETATM   28  C   UNL     1       6.143  32.983  63.616  1.00  0.00     0.034 A 
HETATM   29 CL   UNL     1       5.041  33.369  64.881  1.00  0.00    -0.084 Cl
HETATM   30  C   UNL     1       5.683  32.905  62.300  1.00  0.00     0.026 A 
HETATM   31  C   UNL     1       6.572  32.591  61.271  1.00  0.00     0.038 A 
ENDBRANCH  24  25
ENDBRANCH  23  24
ENDBRANCH  22  23
ENDBRANCH   2  22
TORSDOF 6
ENDMDL
