MODEL 1
REMARK VINA RESULT:      -9.6      0.000      0.000
REMARK  7 active torsions:
REMARK  status: ('A' for Active; 'I' for Inactive)
REMARK    1  A    between atoms: C_2  and  N_3 
REMARK    2  A    between atoms: N_3  and  C_4 
REMARK    3  A    between atoms: C_4  and  N_5 
REMARK    4  A    between atoms: N_5  and  N_6 
REMARK    5  A    between atoms: N_6  and  C_7 
REMARK    6  A    between atoms: N_8  and  C_9 
REMARK    7  A    between atoms: C_9  and  C_10 
ROOT
HETATM    1  C   UNL     1       5.162  26.772  50.898  1.00  0.00     0.204 C 
HETATM    2  N   UNL     1       4.690  27.836  51.637  1.00  0.00    -0.283 N 
HETATM    3  C   UNL     1       5.188  28.075  52.902  1.00  0.00     0.259 C 
HETATM    4  O   UNL     1       5.121  29.180  53.434  1.00  0.00    -0.267 OA
HETATM    5  C   UNL     1       5.839  26.930  53.590  1.00  0.00     0.049 C 
HETATM    6  C   UNL     1       6.142  25.887  52.792  1.00  0.00     0.083 C 
HETATM    7  C   UNL     1       6.820  24.699  53.378  1.00  0.00    -0.000 A 
HETATM    8  C   UNL     1       6.861  24.528  54.769  1.00  0.00    -0.044 A 
HETATM    9  C   UNL     1       7.454  23.386  55.329  1.00  0.00     0.008 A 
HETATM   10  C   UNL     1       8.028  22.417  54.509  1.00  0.00     0.001 A 
HETATM   11  C   UNL     1       8.002  22.579  53.127  1.00  0.00     0.001 A 
HETATM   12  C   UNL     1       7.400  23.710  52.568  1.00  0.00     0.014 A 
HETATM   13  C   UNL     1       6.178  25.532  55.656  1.00  0.00     0.054 C 
HETATM   14  C   UNL     1       6.182  26.988  55.092  1.00  0.00    -0.002 C 
HETATM   15  C   UNL     1       7.589  27.638  55.225  1.00  0.00     0.015 C 
HETATM   16  C   UNL     1       8.047  27.855  56.668  1.00  0.00     0.001 C 
HETATM   17  C   UNL     1       7.015  28.617  57.490  1.00  0.00     0.000 C 
HETATM   18  C   UNL     1       5.635  27.974  57.421  1.00  0.00     0.001 C 
HETATM   19  C   UNL     1       5.175  27.795  55.970  1.00  0.00     0.015 C 
HETATM   20  N   UNL     1       5.895  25.845  51.444  1.00  0.00    -0.217 NA
ENDROOT
BRANCH   1  21
HETATM   21  N   UNL     1       4.880  26.696  49.544  1.00  0.00    -0.171 NA
HETATM   22  H   UNL     1       5.661  26.692  48.892  1.00  0.00     0.156 HD
BRANCH  21  23
HETATM   23  N   UNL     1       3.906  25.731  49.203  1.00  0.00    -0.291 N 
HETATM   24  H   UNL     1       3.612  25.186  50.014  1.00  0.00     0.183 HD
BRANCH  23  25
HETATM   25  C   UNL     1       2.961  26.028  48.252  1.00  0.00     0.182 C 
HETATM   26  S   UNL     1       2.772  25.260  46.780  1.00  0.00    -0.040 SA
BRANCH  25  27
HETATM   27  N   UNL     1       2.058  26.999  48.591  1.00  0.00    -0.367 N 
HETATM   28  H   UNL     1       2.452  27.723  49.181  1.00  0.00     0.161 HD
BRANCH  27  29
HETATM   29  C   UNL     1       0.824  27.332  47.895  1.00  0.00     0.117 C 
HETATM   30  C   UNL     1       0.988  28.587  47.055  1.00  0.00     0.026 C 
ENDBRANCH  27  29
ENDBRANCH  25  27
ENDBRANCH  23  25
ENDBRANCH  21  23
ENDBRANCH   1  21
BRANCH   2  31
HETATM   31  C   UNL     1       3.775  28.831  51.087  1.00  0.00     0.173 C 
BRANCH  31  32
HETATM   32  C   UNL     1       4.379  29.854  50.144  1.00  0.00    -0.040 A 
HETATM   33  C   UNL     1       5.575  30.538  50.406  1.00  0.00     0.009 A 
HETATM   34  C   UNL     1       6.059  31.493  49.509  1.00  0.00     0.001 A 
HETATM   35  C   UNL     1       5.353  31.785  48.344  1.00  0.00     0.000 A 
HETATM   36  C   UNL     1       4.161  31.120  48.072  1.00  0.00     0.001 A 
HETATM   37  C   UNL     1       3.678  30.161  48.964  1.00  0.00     0.009 A 
ENDBRANCH  31  32
ENDBRANCH   2  31
TORSDOF 7
ENDMDL
MODEL 2
REMARK VINA RESULT:      -9.3      3.698      6.876
REMARK  7 active torsions:
REMARK  status: ('A' for Active; 'I' for Inactive)
REMARK    1  A    between atoms: C_2  and  N_3 
REMARK    2  A    between atoms: N_3  and  C_4 
REMARK    3  A    between atoms: C_4  and  N_5 
REMARK    4  A    between atoms: N_5  and  N_6 
REMARK    5  A    between atoms: N_6  and  C_7 
REMARK    6  A    between atoms: N_8  and  C_9 
REMARK    7  A    between atoms: C_9  and  C_10 
ROOT
HETATM    1  C   UNL     1       6.576  28.896  55.512  1.00  0.00     0.204 C 
HETATM    2  N   UNL     1       7.077  28.013  56.445  1.00  0.00    -0.283 N 
HETATM    3  C   UNL     1       7.451  26.740  56.063  1.00  0.00     0.259 C 
HETATM    4  O   UNL     1       8.245  26.068  56.715  1.00  0.00    -0.267 OA
HETATM    5  C   UNL     1       6.863  26.223  54.798  1.00  0.00     0.049 C 
HETATM    6  C   UNL     1       6.284  27.158  54.019  1.00  0.00     0.083 C 
HETATM    7  C   UNL     1       5.688  26.749  52.718  1.00  0.00    -0.000 A 
HETATM    8  C   UNL     1       5.451  25.393  52.450  1.00  0.00    -0.044 A 
HETATM    9  C   UNL     1       4.843  25.002  51.246  1.00  0.00     0.008 A 
HETATM   10  C   UNL     1       4.486  25.955  50.296  1.00  0.00     0.001 A 
HETATM   11  C   UNL     1       4.723  27.303  50.547  1.00  0.00     0.001 A 
HETATM   12  C   UNL     1       5.316  27.695  51.750  1.00  0.00     0.014 A 
HETATM   13  C   UNL     1       5.765  24.367  53.502  1.00  0.00     0.054 C 
HETATM   14  C   UNL     1       6.979  24.736  54.411  1.00  0.00    -0.002 C 
HETATM   15  C   UNL     1       8.326  24.555  53.652  1.00  0.00     0.015 C 
HETATM   16  C   UNL     1       8.643  23.108  53.271  1.00  0.00     0.001 C 
HETATM   17  C   UNL     1       8.561  22.168  54.468  1.00  0.00     0.000 C 
HETATM   18  C   UNL     1       7.231  22.286  55.203  1.00  0.00     0.001 C 
HETATM   19  C   UNL     1       6.945  23.736  55.608  1.00  0.00     0.015 C 
HETATM   20  N   UNL     1       6.224  28.494  54.324  1.00  0.00    -0.217 NA
ENDROOT
BRANCH   1  21
HETATM   21  N   UNL     1       6.468  30.240  55.825  1.00  0.00    -0.171 NA
HETATM   22  H   UNL     1       7.028  30.902  55.294  1.00  0.00     0.156 HD
BRANCH  21  23
HETATM   23  N   UNL     1       5.141  30.697  55.999  1.00  0.00    -0.291 N 
HETATM   24  H   UNL     1       4.883  30.743  56.984  1.00  0.00     0.183 HD
BRANCH  23  25
HETATM   25  C   UNL     1       4.640  31.658  55.157  1.00  0.00     0.182 C 
HETATM   26  S   UNL     1       4.293  33.241  55.567  1.00  0.00    -0.040 SA
BRANCH  25  27
HETATM   27  N   UNL     1       4.483  31.285  53.849  1.00  0.00    -0.367 N 
HETATM   28  H   UNL     1       5.350  31.301  53.323  1.00  0.00     0.161 HD
BRANCH  27  29
HETATM   29  C   UNL     1       3.398  30.497  53.284  1.00  0.00     0.117 C 
HETATM   30  C   UNL     1       3.261  30.743  51.791  1.00  0.00     0.026 C 
ENDBRANCH  27  29
ENDBRANCH  25  27
ENDBRANCH  23  25
ENDBRANCH  21  23
ENDBRANCH   1  21
BRANCH   2  31
HETATM   31  C   UNL     1       7.374  28.406  57.818  1.00  0.00     0.173 C 
BRANCH  31  32
HETATM   32  C   UNL     1       8.436  29.474  57.999  1.00  0.00    -0.040 A 
HETATM   33  C   UNL     1       9.664  29.468  57.323  1.00  0.00     0.009 A 
HETATM   34  C   UNL     1      10.612  30.466  57.561  1.00  0.00     0.001 A 
HETATM   35  C   UNL     1      10.351  31.478  58.482  1.00  0.00     0.000 A 
HETATM   36  C   UNL     1       9.139  31.495  59.166  1.00  0.00     0.001 A 
HETATM   37  C   UNL     1       8.189  30.502  58.926  1.00  0.00     0.009 A 
ENDBRANCH  31  32
ENDBRANCH   2  31
TORSDOF 7
ENDMDL
MODEL 3
REMARK VINA RESULT:      -8.9      2.508      3.848
REMARK  7 active torsions:
REMARK  status: ('A' for Active; 'I' for Inactive)
REMARK    1  A    between atoms: C_2  and  N_3 
REMARK    2  A    between atoms: N_3  and  C_4 
REMARK    3  A    between atoms: C_4  and  N_5 
REMARK    4  A    between atoms: N_5  and  N_6 
REMARK    5  A    between atoms: N_6  and  C_7 
REMARK    6  A    between atoms: N_8  and  C_9 
REMARK    7  A    between atoms: C_9  and  C_10 
ROOT
HETATM    1  C   UNL     1       4.611  27.734  54.132  1.00  0.00     0.204 C 
HETATM    2  N   UNL     1       4.628  28.990  54.699  1.00  0.00    -0.283 N 
HETATM    3  C   UNL     1       5.704  29.390  55.466  1.00  0.00     0.259 C 
HETATM    4  O   UNL     1       5.968  30.574  55.657  1.00  0.00    -0.267 OA
HETATM    5  C   UNL     1       6.554  28.311  56.036  1.00  0.00     0.049 C 
HETATM    6  C   UNL     1       6.364  27.093  55.492  1.00  0.00     0.083 C 
HETATM    7  C   UNL     1       7.184  25.948  55.974  1.00  0.00    -0.000 A 
HETATM    8  C   UNL     1       7.908  26.057  57.170  1.00  0.00    -0.044 A 
HETATM    9  C   UNL     1       8.644  24.966  57.658  1.00  0.00     0.008 A 
HETATM   10  C   UNL     1       8.680  23.768  56.950  1.00  0.00     0.001 A 
HETATM   11  C   UNL     1       7.972  23.650  55.757  1.00  0.00     0.001 A 
HETATM   12  C   UNL     1       7.229  24.731  55.277  1.00  0.00     0.014 A 
HETATM   13  C   UNL     1       7.813  27.321  57.978  1.00  0.00     0.054 C 
HETATM   14  C   UNL     1       7.607  28.610  57.122  1.00  0.00    -0.002 C 
HETATM   15  C   UNL     1       8.921  29.021  56.397  1.00  0.00     0.015 C 
HETATM   16  C   UNL     1      10.052  29.443  57.338  1.00  0.00     0.001 C 
HETATM   17  C   UNL     1       9.610  30.521  58.319  1.00  0.00     0.000 C 
HETATM   18  C   UNL     1       8.351  30.125  59.082  1.00  0.00     0.001 C 
HETATM   19  C   UNL     1       7.218  29.740  58.126  1.00  0.00     0.015 C 
HETATM   20  N   UNL     1       5.472  26.823  54.486  1.00  0.00    -0.217 NA
ENDROOT
BRANCH   1  21
HETATM   21  N   UNL     1       3.685  27.435  53.147  1.00  0.00    -0.171 NA
HETATM   22  H   UNL     1       3.228  28.209  52.669  1.00  0.00     0.156 HD
BRANCH  21  23
HETATM   23  N   UNL     1       4.095  26.429  52.243  1.00  0.00    -0.291 N 
HETATM   24  H   UNL     1       3.362  25.736  52.090  1.00  0.00     0.183 HD
BRANCH  23  25
HETATM   25  C   UNL     1       4.900  26.759  51.181  1.00  0.00     0.182 C 
HETATM   26  S   UNL     1       4.452  27.674  49.855  1.00  0.00    -0.040 SA
BRANCH  25  27
HETATM   27  N   UNL     1       6.203  26.351  51.269  1.00  0.00    -0.367 N 
HETATM   28  H   UNL     1       6.858  27.121  51.340  1.00  0.00     0.161 HD
BRANCH  27  29
HETATM   29  C   UNL     1       6.689  25.047  51.694  1.00  0.00     0.117 C 
HETATM   30  C   UNL     1       8.135  25.122  52.151  1.00  0.00     0.026 C 
ENDBRANCH  27  29
ENDBRANCH  25  27
ENDBRANCH  23  25
ENDBRANCH  21  23
ENDBRANCH   1  21
BRANCH   2  31
HETATM   31  C   UNL     1       3.611  29.996  54.410  1.00  0.00     0.173 C 
BRANCH  31  32
HETATM   32  C   UNL     1       3.998  31.080  53.422  1.00  0.00    -0.040 A 
HETATM   33  C   UNL     1       3.992  32.447  53.729  1.00  0.00     0.009 A 
HETATM   34  C   UNL     1       4.328  33.396  52.760  1.00  0.00     0.001 A 
HETATM   35  C   UNL     1       4.666  32.993  51.470  1.00  0.00     0.000 A 
HETATM   36  C   UNL     1       4.670  31.640  51.147  1.00  0.00     0.001 A 
HETATM   37  C   UNL     1       4.340  30.690  52.115  1.00  0.00     0.009 A 
ENDBRANCH  31  32
ENDBRANCH   2  31
TORSDOF 7
ENDMDL
MODEL 4
REMARK VINA RESULT:      -8.8      1.519      1.837
REMARK  7 active torsions:
REMARK  status: ('A' for Active; 'I' for Inactive)
REMARK    1  A    between atoms: C_2  and  N_3 
REMARK    2  A    between atoms: N_3  and  C_4 
REMARK    3  A    between atoms: C_4  and  N_5 
REMARK    4  A    between atoms: N_5  and  N_6 
REMARK    5  A    between atoms: N_6  and  C_7 
REMARK    6  A    between atoms: N_8  and  C_9 
REMARK    7  A    between atoms: C_9  and  C_10 
ROOT
HETATM    1  C   UNL     1       5.074  26.490  52.327  1.00  0.00     0.204 C 
HETATM    2  N   UNL     1       4.751  27.667  52.967  1.00  0.00    -0.283 N 
HETATM    3  C   UNL     1       5.550  28.142  53.988  1.00  0.00     0.259 C 
HETATM    4  O   UNL     1       5.559  29.326  54.316  1.00  0.00    -0.267 OA
HETATM    5  C   UNL     1       6.427  27.150  54.665  1.00  0.00     0.049 C 
HETATM    6  C   UNL     1       6.571  25.981  54.010  1.00  0.00     0.083 C 
HETATM    7  C   UNL     1       7.449  24.929  54.590  1.00  0.00    -0.000 A 
HETATM    8  C   UNL     1       7.865  25.020  55.926  1.00  0.00    -0.044 A 
HETATM    9  C   UNL     1       8.653  24.007  56.496  1.00  0.00     0.008 A 
HETATM   10  C   UNL     1       9.047  22.909  55.735  1.00  0.00     0.001 A 
HETATM   11  C   UNL     1       8.647  22.812  54.406  1.00  0.00     0.001 A 
HETATM   12  C   UNL     1       7.852  23.813  53.841  1.00  0.00     0.014 A 
HETATM   13  C   UNL     1       7.381  26.163  56.774  1.00  0.00     0.054 C 
HETATM   14  C   UNL     1       7.150  27.489  55.984  1.00  0.00    -0.002 C 
HETATM   15  C   UNL     1       8.501  28.167  55.614  1.00  0.00     0.015 C 
HETATM   16  C   UNL     1       9.310  28.653  56.819  1.00  0.00     0.001 C 
HETATM   17  C   UNL     1       8.487  29.543  57.741  1.00  0.00     0.000 C 
HETATM   18  C   UNL     1       7.179  28.884  58.163  1.00  0.00     0.001 C 
HETATM   19  C   UNL     1       6.364  28.435  56.945  1.00  0.00     0.015 C 
HETATM   20  N   UNL     1       5.979  25.688  52.808  1.00  0.00    -0.217 NA
ENDROOT
BRANCH   1  21
HETATM   21  N   UNL     1       4.450  26.161  51.135  1.00  0.00    -0.171 NA
HETATM   22  H   UNL     1       3.462  26.382  51.035  1.00  0.00     0.156 HD
BRANCH  21  23
HETATM   23  N   UNL     1       5.184  26.501  49.977  1.00  0.00    -0.291 N 
HETATM   24  H   UNL     1       5.915  25.818  49.778  1.00  0.00     0.183 HD
BRANCH  23  25
HETATM   25  C   UNL     1       4.540  27.081  48.912  1.00  0.00     0.182 C 
HETATM   26  S   UNL     1       5.272  27.803  47.594  1.00  0.00    -0.040 SA
BRANCH  25  27
HETATM   27  N   UNL     1       3.175  26.987  48.916  1.00  0.00    -0.367 N 
HETATM   28  H   UNL     1       2.817  26.399  49.661  1.00  0.00     0.161 HD
BRANCH  27  29
HETATM   29  C   UNL     1       2.228  27.912  48.311  1.00  0.00     0.117 C 
HETATM   30  C   UNL     1       0.978  27.189  47.840  1.00  0.00     0.026 C 
ENDBRANCH  27  29
ENDBRANCH  25  27
ENDBRANCH  23  25
ENDBRANCH  21  23
ENDBRANCH   1  21
BRANCH   2  31
HETATM   31  C   UNL     1       3.665  28.534  52.519  1.00  0.00     0.173 C 
BRANCH  31  32
HETATM   32  C   UNL     1       4.072  29.851  51.887  1.00  0.00    -0.040 A 
HETATM   33  C   UNL     1       3.432  31.070  52.155  1.00  0.00     0.009 A 
HETATM   34  C   UNL     1       3.836  32.242  51.512  1.00  0.00     0.001 A 
HETATM   35  C   UNL     1       4.878  32.213  50.588  1.00  0.00     0.000 A 
HETATM   36  C   UNL     1       5.520  31.011  50.306  1.00  0.00     0.001 A 
HETATM   37  C   UNL     1       5.121  29.839  50.951  1.00  0.00     0.009 A 
ENDBRANCH  31  32
ENDBRANCH   2  31
TORSDOF 7
ENDMDL
MODEL 5
REMARK VINA RESULT:      -8.6      9.255     12.049
REMARK  7 active torsions:
REMARK  status: ('A' for Active; 'I' for Inactive)
REMARK    1  A    between atoms: C_2  and  N_3 
REMARK    2  A    between atoms: N_3  and  C_4 
REMARK    3  A    between atoms: C_4  and  N_5 
REMARK    4  A    between atoms: N_5  and  N_6 
REMARK    5  A    between atoms: N_6  and  C_7 
REMARK    6  A    between atoms: N_8  and  C_9 
REMARK    7  A    between atoms: C_9  and  C_10 
ROOT
HETATM    1  C   UNL     1       3.289  33.091  60.747  1.00  0.00     0.204 C 
HETATM    2  N   UNL     1       4.159  32.738  59.737  1.00  0.00    -0.283 N 
HETATM    3  C   UNL     1       5.409  32.238  60.043  1.00  0.00     0.259 C 
HETATM    4  O   UNL     1       6.052  31.553  59.251  1.00  0.00    -0.267 OA
HETATM    5  C   UNL     1       5.938  32.546  61.398  1.00  0.00     0.049 C 
HETATM    6  C   UNL     1       5.022  33.008  62.272  1.00  0.00     0.083 C 
HETATM    7  C   UNL     1       5.443  33.323  63.664  1.00  0.00    -0.000 A 
HETATM    8  C   UNL     1       6.805  33.440  63.976  1.00  0.00    -0.044 A 
HETATM    9  C   UNL     1       7.211  33.785  65.275  1.00  0.00     0.008 A 
HETATM   10  C   UNL     1       6.264  33.997  66.275  1.00  0.00     0.001 A 
HETATM   11  C   UNL     1       4.910  33.876  65.980  1.00  0.00     0.001 A 
HETATM   12  C   UNL     1       4.504  33.545  64.684  1.00  0.00     0.014 A 
HETATM   13  C   UNL     1       7.828  33.286  62.886  1.00  0.00     0.054 C 
HETATM   14  C   UNL     1       7.414  32.288  61.759  1.00  0.00    -0.002 C 
HETATM   15  C   UNL     1       7.525  30.814  62.245  1.00  0.00     0.015 C 
HETATM   16  C   UNL     1       8.952  30.362  62.561  1.00  0.00     0.001 C 
HETATM   17  C   UNL     1       9.907  30.628  61.404  1.00  0.00     0.000 C 
HETATM   18  C   UNL     1       9.859  32.079  60.939  1.00  0.00     0.001 C 
HETATM   19  C   UNL     1       8.428  32.505  60.593  1.00  0.00     0.015 C 
HETATM   20  N   UNL     1       3.694  33.188  61.981  1.00  0.00    -0.217 NA
ENDROOT
BRANCH   1  21
HETATM   21  N   UNL     1       1.955  33.320  60.458  1.00  0.00    -0.171 NA
HETATM   22  H   UNL     1       1.332  32.517  60.404  1.00  0.00     0.156 HD
BRANCH  21  23
HETATM   23  N   UNL     1       1.374  34.387  61.179  1.00  0.00    -0.291 N 
HETATM   24  H   UNL     1       0.934  34.066  62.041  1.00  0.00     0.183 HD
BRANCH  23  25
HETATM   25  C   UNL     1       1.993  35.613  61.192  1.00  0.00     0.182 C 
HETATM   26  S   UNL     1       2.011  36.718  59.938  1.00  0.00    -0.040 SA
BRANCH  25  27
HETATM   27  N   UNL     1       2.584  35.973  62.372  1.00  0.00    -0.367 N 
HETATM   28  H   UNL     1       2.734  35.189  62.999  1.00  0.00     0.161 HD
BRANCH  27  29
HETATM   29  C   UNL     1       3.370  37.169  62.633  1.00  0.00     0.117 C 
HETATM   30  C   UNL     1       4.807  36.817  62.979  1.00  0.00     0.026 C 
ENDBRANCH  27  29
ENDBRANCH  25  27
ENDBRANCH  23  25
ENDBRANCH  21  23
ENDBRANCH   1  21
BRANCH   2  31
HETATM   31  C   UNL     1       3.768  32.729  58.331  1.00  0.00     0.173 C 
BRANCH  31  32
HETATM   32  C   UNL     1       4.284  33.874  57.481  1.00  0.00    -0.040 A 
HETATM   33  C   UNL     1       4.323  35.206  57.917  1.00  0.00     0.009 A 
HETATM   34  C   UNL     1       4.780  36.218  57.070  1.00  0.00     0.001 A 
HETATM   35  C   UNL     1       5.196  35.917  55.775  1.00  0.00     0.000 A 
HETATM   36  C   UNL     1       5.158  34.600  55.325  1.00  0.00     0.001 A 
HETATM   37  C   UNL     1       4.706  33.587  56.171  1.00  0.00     0.009 A 
ENDBRANCH  31  32
ENDBRANCH   2  31
TORSDOF 7
ENDMDL
MODEL 6
REMARK VINA RESULT:      -8.6      2.657      7.200
REMARK  7 active torsions:
REMARK  status: ('A' for Active; 'I' for Inactive)
REMARK    1  A    between atoms: C_2  and  N_3 
REMARK    2  A    between atoms: N_3  and  C_4 
REMARK    3  A    between atoms: C_4  and  N_5 
REMARK    4  A    between atoms: N_5  and  N_6 
REMARK    5  A    between atoms: N_6  and  C_7 
REMARK    6  A    between atoms: N_8  and  C_9 
REMARK    7  A    between atoms: C_9  and  C_10 
ROOT
HETATM    1  C   UNL     1       4.805  26.607  53.560  1.00  0.00     0.204 C 
HETATM    2  N   UNL     1       4.680  27.783  54.268  1.00  0.00    -0.283 N 
HETATM    3  C   UNL     1       4.198  28.918  53.646  1.00  0.00     0.259 C 
HETATM    4  O   UNL     1       3.698  29.847  54.275  1.00  0.00    -0.267 OA
HETATM    5  C   UNL     1       4.289  28.955  52.162  1.00  0.00     0.049 C 
HETATM    6  C   UNL     1       4.541  27.766  51.580  1.00  0.00     0.083 C 
HETATM    7  C   UNL     1       4.626  27.689  50.097  1.00  0.00    -0.000 A 
HETATM    8  C   UNL     1       4.755  28.862  49.339  1.00  0.00    -0.044 A 
HETATM    9  C   UNL     1       4.885  28.796  47.942  1.00  0.00     0.008 A 
HETATM   10  C   UNL     1       4.869  27.565  47.291  1.00  0.00     0.001 A 
HETATM   11  C   UNL     1       4.734  26.394  48.031  1.00  0.00     0.001 A 
HETATM   12  C   UNL     1       4.617  26.458  49.423  1.00  0.00     0.014 A 
HETATM   13  C   UNL     1       4.849  30.187  50.041  1.00  0.00     0.054 C 
HETATM   14  C   UNL     1       4.046  30.259  51.378  1.00  0.00    -0.002 C 
HETATM   15  C   UNL     1       2.516  30.365  51.110  1.00  0.00     0.015 C 
HETATM   16  C   UNL     1       2.088  31.658  50.413  1.00  0.00     0.001 C 
HETATM   17  C   UNL     1       2.603  32.897  51.136  1.00  0.00     0.000 C 
HETATM   18  C   UNL     1       4.109  32.846  51.367  1.00  0.00     0.001 C 
HETATM   19  C   UNL     1       4.517  31.562  52.097  1.00  0.00     0.015 C 
HETATM   20  N   UNL     1       4.702  26.587  52.262  1.00  0.00    -0.217 NA
ENDROOT
BRANCH   1  21
HETATM   21  N   UNL     1       5.014  25.416  54.236  1.00  0.00    -0.171 NA
HETATM   22  H   UNL     1       4.225  24.783  54.345  1.00  0.00     0.156 HD
BRANCH  21  23
HETATM   23  N   UNL     1       6.190  24.729  53.861  1.00  0.00    -0.291 N 
HETATM   24  H   UNL     1       6.672  25.195  53.092  1.00  0.00     0.183 HD
BRANCH  23  25
HETATM   25  C   UNL     1       6.956  24.121  54.825  1.00  0.00     0.182 C 
HETATM   26  S   UNL     1       7.184  24.667  56.389  1.00  0.00    -0.040 SA
BRANCH  25  27
HETATM   27  N   UNL     1       7.518  22.924  54.475  1.00  0.00    -0.367 N 
HETATM   28  H   UNL     1       7.445  22.221  55.202  1.00  0.00     0.161 HD
BRANCH  27  29
HETATM   29  C   UNL     1       7.784  22.438  53.129  1.00  0.00     0.117 C 
HETATM   30  C   UNL     1       7.923  20.925  53.109  1.00  0.00     0.026 C 
ENDBRANCH  27  29
ENDBRANCH  25  27
ENDBRANCH  23  25
ENDBRANCH  21  23
ENDBRANCH   1  21
BRANCH   2  31
HETATM   31  C   UNL     1       4.900  27.861  55.709  1.00  0.00     0.173 C 
BRANCH  31  32
HETATM   32  C   UNL     1       6.280  28.304  56.156  1.00  0.00    -0.040 A 
HETATM   33  C   UNL     1       7.342  28.543  55.273  1.00  0.00     0.009 A 
HETATM   34  C   UNL     1       8.598  28.917  55.755  1.00  0.00     0.001 A 
HETATM   35  C   UNL     1       8.815  29.048  57.126  1.00  0.00     0.000 A 
HETATM   36  C   UNL     1       7.773  28.808  58.017  1.00  0.00     0.001 A 
HETATM   37  C   UNL     1       6.515  28.439  57.536  1.00  0.00     0.009 A 
ENDBRANCH  31  32
ENDBRANCH   2  31
TORSDOF 7
ENDMDL
MODEL 7
REMARK VINA RESULT:      -8.3      2.537      5.143
REMARK  7 active torsions:
REMARK  status: ('A' for Active; 'I' for Inactive)
REMARK    1  A    between atoms: C_2  and  N_3 
REMARK    2  A    between atoms: N_3  and  C_4 
REMARK    3  A    between atoms: C_4  and  N_5 
REMARK    4  A    between atoms: N_5  and  N_6 
REMARK    5  A    between atoms: N_6  and  C_7 
REMARK    6  A    between atoms: N_8  and  C_9 
REMARK    7  A    between atoms: C_9  and  C_10 
ROOT
HETATM    1  C   UNL     1       4.930  29.430  51.651  1.00  0.00     0.204 C 
HETATM    2  N   UNL     1       5.315  28.412  50.806  1.00  0.00    -0.283 N 
HETATM    3  C   UNL     1       5.726  27.200  51.325  1.00  0.00     0.259 C 
HETATM    4  O   UNL     1       5.696  26.163  50.668  1.00  0.00    -0.267 OA
HETATM    5  C   UNL     1       6.188  27.201  52.739  1.00  0.00     0.049 C 
HETATM    6  C   UNL     1       5.865  28.307  53.439  1.00  0.00     0.083 C 
HETATM    7  C   UNL     1       6.258  28.397  54.871  1.00  0.00    -0.000 A 
HETATM    8  C   UNL     1       7.206  27.508  55.397  1.00  0.00    -0.044 A 
HETATM    9  C   UNL     1       7.620  27.617  56.734  1.00  0.00     0.008 A 
HETATM   10  C   UNL     1       7.079  28.599  57.560  1.00  0.00     0.001 A 
HETATM   11  C   UNL     1       6.131  29.483  57.053  1.00  0.00     0.001 A 
HETATM   12  C   UNL     1       5.728  29.383  55.718  1.00  0.00     0.014 A 
HETATM   13  C   UNL     1       7.850  26.495  54.492  1.00  0.00     0.054 C 
HETATM   14  C   UNL     1       6.923  25.988  53.342  1.00  0.00    -0.002 C 
HETATM   15  C   UNL     1       5.842  25.008  53.881  1.00  0.00     0.015 C 
HETATM   16  C   UNL     1       6.403  23.698  54.437  1.00  0.00     0.001 C 
HETATM   17  C   UNL     1       7.324  23.000  53.444  1.00  0.00     0.000 C 
HETATM   18  C   UNL     1       8.427  23.923  52.935  1.00  0.00     0.001 C 
HETATM   19  C   UNL     1       7.847  25.214  52.350  1.00  0.00     0.015 C 
HETATM   20  N   UNL     1       5.161  29.368  52.931  1.00  0.00    -0.217 NA
ENDROOT
BRANCH   1  21
HETATM   21  N   UNL     1       4.258  30.529  51.143  1.00  0.00    -0.171 NA
HETATM   22  H   UNL     1       3.242  30.498  51.113  1.00  0.00     0.156 HD
BRANCH  21  23
HETATM   23  N   UNL     1       4.731  31.775  51.615  1.00  0.00    -0.291 N 
HETATM   24  H   UNL     1       5.025  31.723  52.590  1.00  0.00     0.183 HD
BRANCH  23  25
HETATM   25  C   UNL     1       5.442  32.593  50.772  1.00  0.00     0.182 C 
HETATM   26  S   UNL     1       5.836  34.193  51.056  1.00  0.00    -0.040 SA
BRANCH  25  27
HETATM   27  N   UNL     1       5.924  32.006  49.634  1.00  0.00    -0.367 N 
HETATM   28  H   UNL     1       6.272  31.065  49.787  1.00  0.00     0.161 HD
BRANCH  27  29
HETATM   29  C   UNL     1       5.609  32.363  48.260  1.00  0.00     0.117 C 
HETATM   30  C   UNL     1       4.234  31.856  47.861  1.00  0.00     0.026 C 
ENDBRANCH  27  29
ENDBRANCH  25  27
ENDBRANCH  23  25
ENDBRANCH  21  23
ENDBRANCH   1  21
BRANCH   2  31
HETATM   31  C   UNL     1       5.174  28.497  49.356  1.00  0.00     0.173 C 
BRANCH  31  32
HETATM   32  C   UNL     1       3.956  27.821  48.757  1.00  0.00    -0.040 A 
HETATM   33  C   UNL     1       4.029  26.797  47.802  1.00  0.00     0.009 A 
HETATM   34  C   UNL     1       2.865  26.240  47.266  1.00  0.00     0.001 A 
HETATM   35  C   UNL     1       1.615  26.703  47.669  1.00  0.00     0.000 A 
HETATM   36  C   UNL     1       1.525  27.723  48.611  1.00  0.00     0.001 A 
HETATM   37  C   UNL     1       2.686  28.277  49.152  1.00  0.00     0.009 A 
ENDBRANCH  31  32
ENDBRANCH   2  31
TORSDOF 7
ENDMDL
MODEL 8
REMARK VINA RESULT:      -8.3      3.312      8.201
REMARK  7 active torsions:
REMARK  status: ('A' for Active; 'I' for Inactive)
REMARK    1  A    between atoms: C_2  and  N_3 
REMARK    2  A    between atoms: N_3  and  C_4 
REMARK    3  A    between atoms: C_4  and  N_5 
REMARK    4  A    between atoms: N_5  and  N_6 
REMARK    5  A    between atoms: N_6  and  C_7 
REMARK    6  A    between atoms: N_8  and  C_9 
REMARK    7  A    between atoms: C_9  and  C_10 
ROOT
HETATM    1  C   UNL     1       4.656  27.316  54.164  1.00  0.00     0.204 C 
HETATM    2  N   UNL     1       4.629  26.456  53.087  1.00  0.00    -0.283 N 
HETATM    3  C   UNL     1       4.652  26.957  51.801  1.00  0.00     0.259 C 
HETATM    4  O   UNL     1       5.024  26.284  50.843  1.00  0.00    -0.267 OA
HETATM    5  C   UNL     1       4.227  28.371  51.627  1.00  0.00     0.049 C 
HETATM    6  C   UNL     1       4.165  29.088  52.767  1.00  0.00     0.083 C 
HETATM    7  C   UNL     1       3.774  30.522  52.700  1.00  0.00    -0.000 A 
HETATM    8  C   UNL     1       3.183  31.036  51.537  1.00  0.00    -0.044 A 
HETATM    9  C   UNL     1       2.766  32.375  51.483  1.00  0.00     0.008 A 
HETATM   10  C   UNL     1       2.952  33.215  52.577  1.00  0.00     0.001 A 
HETATM   11  C   UNL     1       3.545  32.720  53.735  1.00  0.00     0.001 A 
HETATM   12  C   UNL     1       3.949  31.383  53.795  1.00  0.00     0.014 A 
HETATM   13  C   UNL     1       2.911  30.116  50.380  1.00  0.00     0.054 C 
HETATM   14  C   UNL     1       3.945  28.957  50.230  1.00  0.00    -0.002 C 
HETATM   15  C   UNL     1       5.297  29.479  49.661  1.00  0.00     0.015 C 
HETATM   16  C   UNL     1       5.212  30.015  48.231  1.00  0.00     0.001 C 
HETATM   17  C   UNL     1       4.571  29.013  47.279  1.00  0.00     0.000 C 
HETATM   18  C   UNL     1       3.219  28.521  47.785  1.00  0.00     0.001 C 
HETATM   19  C   UNL     1       3.328  27.955  49.204  1.00  0.00     0.015 C 
HETATM   20  N   UNL     1       4.468  28.595  54.010  1.00  0.00    -0.217 NA
ENDROOT
BRANCH   1  21
HETATM   21  N   UNL     1       4.916  26.823  55.432  1.00  0.00    -0.171 NA
HETATM   22  H   UNL     1       5.851  26.472  55.627  1.00  0.00     0.156 HD
BRANCH  21  23
HETATM   23  N   UNL     1       4.428  27.629  56.485  1.00  0.00    -0.291 N 
HETATM   24  H   UNL     1       3.616  27.209  56.938  1.00  0.00     0.183 HD
BRANCH  23  25
HETATM   25  C   UNL     1       5.311  28.327  57.270  1.00  0.00     0.182 C 
HETATM   26  S   UNL     1       6.959  28.065  57.367  1.00  0.00    -0.040 SA
BRANCH  25  27
HETATM   27  N   UNL     1       4.785  29.376  57.975  1.00  0.00    -0.367 N 
HETATM   28  H   UNL     1       5.182  29.471  58.903  1.00  0.00     0.161 HD
BRANCH  27  29
HETATM   29  C   UNL     1       4.112  30.548  57.436  1.00  0.00     0.117 C 
HETATM   30  C   UNL     1       5.058  31.732  57.346  1.00  0.00     0.026 C 
ENDBRANCH  27  29
ENDBRANCH  25  27
ENDBRANCH  23  25
ENDBRANCH  21  23
ENDBRANCH   1  21
BRANCH   2  31
HETATM   31  C   UNL     1       4.723  25.007  53.235  1.00  0.00     0.173 C 
BRANCH  31  32
HETATM   32  C   UNL     1       6.099  24.449  53.544  1.00  0.00    -0.040 A 
HETATM   33  C   UNL     1       7.073  24.204  52.566  1.00  0.00     0.009 A 
HETATM   34  C   UNL     1       8.310  23.657  52.915  1.00  0.00     0.001 A 
HETATM   35  C   UNL     1       8.589  23.340  54.243  1.00  0.00     0.000 A 
HETATM   36  C   UNL     1       7.630  23.572  55.225  1.00  0.00     0.001 A 
HETATM   37  C   UNL     1       6.396  24.123  54.879  1.00  0.00     0.009 A 
ENDBRANCH  31  32
ENDBRANCH   2  31
TORSDOF 7
ENDMDL
MODEL 9
REMARK VINA RESULT:      -8.3      3.342      5.930
REMARK  7 active torsions:
REMARK  status: ('A' for Active; 'I' for Inactive)
REMARK    1  A    between atoms: C_2  and  N_3 
REMARK    2  A    between atoms: N_3  and  C_4 
REMARK    3  A    between atoms: C_4  and  N_5 
REMARK    4  A    between atoms: N_5  and  N_6 
REMARK    5  A    between atoms: N_6  and  C_7 
REMARK    6  A    between atoms: N_8  and  C_9 
REMARK    7  A    between atoms: C_9  and  C_10 
ROOT
HETATM    1  C   UNL     1       3.849  29.775  53.857  1.00  0.00     0.204 C 
HETATM    2  N   UNL     1       3.905  28.675  53.027  1.00  0.00    -0.283 N 
HETATM    3  C   UNL     1       4.564  27.533  53.435  1.00  0.00     0.259 C 
HETATM    4  O   UNL     1       4.323  26.430  52.952  1.00  0.00    -0.267 OA
HETATM    5  C   UNL     1       5.573  27.695  54.515  1.00  0.00     0.049 C 
HETATM    6  C   UNL     1       5.509  28.866  55.179  1.00  0.00     0.083 C 
HETATM    7  C   UNL     1       6.459  29.117  56.297  1.00  0.00    -0.000 A 
HETATM    8  C   UNL     1       7.590  28.303  56.455  1.00  0.00    -0.044 A 
HETATM    9  C   UNL     1       8.518  28.563  57.476  1.00  0.00     0.008 A 
HETATM   10  C   UNL     1       8.315  29.622  58.357  1.00  0.00     0.001 A 
HETATM   11  C   UNL     1       7.192  30.432  58.217  1.00  0.00     0.001 A 
HETATM   12  C   UNL     1       6.275  30.182  57.193  1.00  0.00     0.014 A 
HETATM   13  C   UNL     1       7.854  27.206  55.461  1.00  0.00     0.054 C 
HETATM   14  C   UNL     1       6.563  26.565  54.863  1.00  0.00    -0.002 C 
HETATM   15  C   UNL     1       5.865  25.635  55.897  1.00  0.00     0.015 C 
HETATM   16  C   UNL     1       6.682  24.400  56.284  1.00  0.00     0.001 C 
HETATM   17  C   UNL     1       7.142  23.611  55.065  1.00  0.00     0.000 C 
HETATM   18  C   UNL     1       7.876  24.487  54.055  1.00  0.00     0.001 C 
HETATM   19  C   UNL     1       7.030  25.699  53.651  1.00  0.00     0.015 C 
HETATM   20  N   UNL     1       4.597  29.856  54.919  1.00  0.00    -0.217 NA
ENDROOT
BRANCH   1  21
HETATM   21  N   UNL     1       2.964  30.803  53.578  1.00  0.00    -0.171 NA
HETATM   22  H   UNL     1       2.225  30.628  52.901  1.00  0.00     0.156 HD
BRANCH  21  23
HETATM   23  N   UNL     1       2.481  31.484  54.718  1.00  0.00    -0.291 N 
HETATM   24  H   UNL     1       2.676  30.970  55.577  1.00  0.00     0.183 HD
BRANCH  23  25
HETATM   25  C   UNL     1       2.538  32.855  54.762  1.00  0.00     0.182 C 
HETATM   26  S   UNL     1       2.072  33.899  53.542  1.00  0.00    -0.040 SA
BRANCH  25  27
HETATM   27  N   UNL     1       2.950  33.398  55.949  1.00  0.00    -0.367 N 
HETATM   28  H   UNL     1       2.495  34.278  56.164  1.00  0.00     0.161 HD
BRANCH  27  29
HETATM   29  C   UNL     1       3.574  32.703  57.064  1.00  0.00     0.117 C 
HETATM   30  C   UNL     1       4.654  33.555  57.709  1.00  0.00     0.026 C 
ENDBRANCH  27  29
ENDBRANCH  25  27
ENDBRANCH  23  25
ENDBRANCH  21  23
ENDBRANCH   1  21
BRANCH   2  31
HETATM   31  C   UNL     1       3.166  28.600  51.771  1.00  0.00     0.173 C 
BRANCH  31  32
HETATM   32  C   UNL     1       3.992  28.645  50.500  1.00  0.00    -0.040 A 
HETATM   33  C   UNL     1       4.759  29.753  50.113  1.00  0.00     0.009 A 
HETATM   34  C   UNL     1       5.471  29.740  48.911  1.00  0.00     0.001 A 
HETATM   35  C   UNL     1       5.420  28.626  48.075  1.00  0.00     0.000 A 
HETATM   36  C   UNL     1       4.658  27.521  48.442  1.00  0.00     0.001 A 
HETATM   37  C   UNL     1       3.951  27.529  49.645  1.00  0.00     0.009 A 
ENDBRANCH  31  32
ENDBRANCH   2  31
TORSDOF 7
ENDMDL
MODEL 10
REMARK VINA RESULT:      -8.1      9.330     11.443
REMARK  7 active torsions:
REMARK  status: ('A' for Active; 'I' for Inactive)
REMARK    1  A    between atoms: C_2  and  N_3 
REMARK    2  A    between atoms: N_3  and  C_4 
REMARK    3  A    between atoms: C_4  and  N_5 
REMARK    4  A    between atoms: N_5  and  N_6 
REMARK    5  A    between atoms: N_6  and  C_7 
REMARK    6  A    between atoms: N_8  and  C_9 
REMARK    7  A    between atoms: C_9  and  C_10 
ROOT
HETATM    1  C   UNL     1       3.150  33.364  60.515  1.00  0.00     0.204 C 
HETATM    2  N   UNL     1       4.042  32.953  59.548  1.00  0.00    -0.283 N 
HETATM    3  C   UNL     1       5.257  32.407  59.913  1.00  0.00     0.259 C 
HETATM    4  O   UNL     1       5.900  31.680  59.161  1.00  0.00    -0.267 OA
HETATM    5  C   UNL     1       5.745  32.723  61.282  1.00  0.00     0.049 C 
HETATM    6  C   UNL     1       4.816  33.241  62.109  1.00  0.00     0.083 C 
HETATM    7  C   UNL     1       5.195  33.567  63.510  1.00  0.00    -0.000 A 
HETATM    8  C   UNL     1       6.548  33.634  63.875  1.00  0.00    -0.044 A 
HETATM    9  C   UNL     1       6.917  33.990  65.182  1.00  0.00     0.008 A 
HETATM   10  C   UNL     1       5.942  34.263  66.138  1.00  0.00     0.001 A 
HETATM   11  C   UNL     1       4.596  34.192  65.791  1.00  0.00     0.001 A 
HETATM   12  C   UNL     1       4.228  33.851  64.487  1.00  0.00     0.014 A 
HETATM   13  C   UNL     1       7.605  33.415  62.829  1.00  0.00     0.054 C 
HETATM   14  C   UNL     1       7.193  32.410  61.707  1.00  0.00    -0.002 C 
HETATM   15  C   UNL     1       7.222  30.944  62.226  1.00  0.00     0.015 C 
HETATM   16  C   UNL     1       8.615  30.439  62.607  1.00  0.00     0.001 C 
HETATM   17  C   UNL     1       9.625  30.640  61.485  1.00  0.00     0.000 C 
HETATM   18  C   UNL     1       9.657  32.081  60.989  1.00  0.00     0.001 C 
HETATM   19  C   UNL     1       8.261  32.560  60.578  1.00  0.00     0.015 C 
HETATM   20  N   UNL     1       3.509  33.470  61.762  1.00  0.00    -0.217 NA
ENDROOT
BRANCH   1  21
HETATM   21  N   UNL     1       1.839  33.642  60.168  1.00  0.00    -0.171 NA
HETATM   22  H   UNL     1       1.127  32.950  60.390  1.00  0.00     0.156 HD
BRANCH  21  23
HETATM   23  N   UNL     1       1.414  34.952  60.487  1.00  0.00    -0.291 N 
HETATM   24  H   UNL     1       1.769  35.254  61.394  1.00  0.00     0.183 HD
BRANCH  23  25
HETATM   25  C   UNL     1       1.310  35.891  59.492  1.00  0.00     0.182 C 
HETATM   26  S   UNL     1       1.975  37.425  59.513  1.00  0.00    -0.040 SA
BRANCH  25  27
HETATM   27  N   UNL     1       0.657  35.491  58.357  1.00  0.00    -0.367 N 
HETATM   28  H   UNL     1      -0.325  35.292  58.511  1.00  0.00     0.161 HD
BRANCH  27  29
HETATM   29  C   UNL     1       1.060  35.733  56.980  1.00  0.00     0.117 C 
HETATM   30  C   UNL     1       0.087  35.095  56.003  1.00  0.00     0.026 C 
ENDBRANCH  27  29
ENDBRANCH  25  27
ENDBRANCH  23  25
ENDBRANCH  21  23
ENDBRANCH   1  21
BRANCH   2  31
HETATM   31  C   UNL     1       3.707  32.930  58.127  1.00  0.00     0.173 C 
BRANCH  31  32
HETATM   32  C   UNL     1       4.263  34.062  57.286  1.00  0.00    -0.040 A 
HETATM   33  C   UNL     1       4.687  33.906  55.959  1.00  0.00     0.009 A 
HETATM   34  C   UNL     1       5.221  34.985  55.250  1.00  0.00     0.001 A 
HETATM   35  C   UNL     1       5.348  36.232  55.859  1.00  0.00     0.000 A 
HETATM   36  C   UNL     1       4.938  36.402  57.179  1.00  0.00     0.001 A 
HETATM   37  C   UNL     1       4.399  35.327  57.886  1.00  0.00     0.009 A 
ENDBRANCH  31  32
ENDBRANCH   2  31
TORSDOF 7
ENDMDL
