MODEL 1
REMARK VINA RESULT:     -11.1      0.000      0.000
REMARK  4 active torsions:
REMARK  status: ('A' for Active; 'I' for Inactive)
REMARK    1  A    between atoms: C_6  and  C_7 
REMARK    2  A    between atoms: C_14  and  C_15 
REMARK       I    between atoms: C_15  and  N_16 
REMARK    3  A    between atoms: N_16  and  N_17 
REMARK       I    between atoms: N_17  and  C_18 
REMARK       I    between atoms: C_18  and  N_19 
REMARK    4  A    between atoms: N_19  and  C_20 
ROOT
HETATM    1  C   UNL     1       7.480  28.182  54.243  1.00  0.00     0.271 C 
HETATM    2  N   UNL     1       6.564  28.749  55.099  1.00  0.00    -0.262 N 
HETATM    3  O   UNL     1       8.601  28.639  54.048  1.00  0.00    -0.266 OA
HETATM    4  H   UNL     1       5.631  28.380  55.283  1.00  0.00     0.190 HD
ENDROOT
BRANCH   1   5
HETATM    5  C   UNL     1       7.010  26.957  53.557  1.00  0.00     0.048 A 
HETATM    6  C   UNL     1       6.191  27.030  52.411  1.00  0.00     0.009 A 
HETATM    7  C   UNL     1       5.732  28.231  51.810  1.00  0.00     0.015 A 
HETATM    8  C   UNL     1       5.843  25.800  51.827  1.00  0.00     0.068 A 
HETATM    9  C   UNL     1       4.944  28.204  50.661  1.00  0.00     0.001 A 
HETATM   10  C   UNL     1       4.606  26.983  50.094  1.00  0.00     0.002 A 
HETATM   11  C   UNL     1       5.058  25.800  50.682  1.00  0.00     0.032 A 
HETATM   12  N   UNL     1       6.245  24.616  52.324  1.00  0.00    -0.248 NA
HETATM   13  C   UNL     1       7.010  24.567  53.442  1.00  0.00     0.070 A 
HETATM   14  C   UNL     1       7.418  25.726  54.080  1.00  0.00     0.050 A 
BRANCH  13  15
HETATM   15  C   UNL     1       7.384  23.216  53.896  1.00  0.00     0.010 A 
HETATM   16  C   UNL     1       7.406  22.844  55.242  1.00  0.00     0.130 A 
HETATM   17  N   UNL     1       7.758  21.620  55.712  1.00  0.00    -0.272 NA
HETATM   18  C   UNL     1       8.100  20.695  54.793  1.00  0.00     0.116 A 
HETATM   19  C   UNL     1       8.104  20.937  53.432  1.00  0.00     0.020 A 
HETATM   20  C   UNL     1       7.741  22.207  52.987  1.00  0.00     0.017 A 
ENDBRANCH  13  15
ENDBRANCH   1   5
BRANCH   2  21
HETATM   21  N   UNL     1       6.925  29.906  55.805  1.00  0.00    -0.249 N 
HETATM   22  C   UNL     1       7.036  29.780  57.181  1.00  0.00     0.339 C 
HETATM   23  N   UNL     1       7.328  30.986  57.779  1.00  0.00    -0.308 N 
HETATM   24  O   UNL     1       6.927  28.689  57.732  1.00  0.00    -0.245 OA
HETATM   25  H   UNL     1       7.555  31.739  57.144  1.00  0.00     0.170 HD
HETATM   26  H   UNL     1       6.568  30.770  55.402  1.00  0.00     0.192 HD
BRANCH  23  27
HETATM   27  C   UNL     1       7.511  31.237  59.154  1.00  0.00     0.038 A 
HETATM   28  C   UNL     1       8.458  30.583  59.947  1.00  0.00     0.055 A 
HETATM   29  C   UNL     1       8.588  30.896  61.306  1.00  0.00     0.058 A 
HETATM   30 CL   UNL     1       9.785  30.043  62.219  1.00  0.00    -0.082 Cl
HETATM   31  C   UNL     1       7.765  31.867  61.884  1.00  0.00     0.055 A 
HETATM   32 CL   UNL     1       7.873  32.310  63.550  1.00  0.00    -0.083 Cl
HETATM   33  C   UNL     1       6.811  32.516  61.099  1.00  0.00     0.028 A 
HETATM   34  C   UNL     1       6.682  32.199  59.743  1.00  0.00     0.031 A 
ENDBRANCH  23  27
ENDBRANCH   2  21
TORSDOF 4
ENDMDL
MODEL 2
REMARK VINA RESULT:     -10.8      0.706      1.355
REMARK  4 active torsions:
REMARK  status: ('A' for Active; 'I' for Inactive)
REMARK    1  A    between atoms: C_6  and  C_7 
REMARK    2  A    between atoms: C_14  and  C_15 
REMARK       I    between atoms: C_15  and  N_16 
REMARK    3  A    between atoms: N_16  and  N_17 
REMARK       I    between atoms: N_17  and  C_18 
REMARK       I    between atoms: C_18  and  N_19 
REMARK    4  A    between atoms: N_19  and  C_20 
ROOT
HETATM    1  C   UNL     1       7.903  28.072  54.295  1.00  0.00     0.271 C 
HETATM    2  N   UNL     1       7.225  28.540  55.396  1.00  0.00    -0.262 N 
HETATM    3  O   UNL     1       8.930  28.583  53.862  1.00  0.00    -0.266 OA
HETATM    4  H   UNL     1       6.375  28.124  55.778  1.00  0.00     0.190 HD
ENDROOT
BRANCH   1   5
HETATM    5  C   UNL     1       7.295  26.884  53.652  1.00  0.00     0.048 A 
HETATM    6  C   UNL     1       6.392  27.018  52.577  1.00  0.00     0.009 A 
HETATM    7  C   UNL     1       5.968  28.250  52.014  1.00  0.00     0.015 A 
HETATM    8  C   UNL     1       5.913  25.817  52.027  1.00  0.00     0.068 A 
HETATM    9  C   UNL     1       5.088  28.281  50.934  1.00  0.00     0.001 A 
HETATM   10  C   UNL     1       4.621  27.089  50.400  1.00  0.00     0.002 A 
HETATM   11  C   UNL     1       5.038  25.875  50.950  1.00  0.00     0.032 A 
HETATM   12  N   UNL     1       6.272  24.606  52.490  1.00  0.00    -0.248 NA
HETATM   13  C   UNL     1       7.122  24.501  53.542  1.00  0.00     0.070 A 
HETATM   14  C   UNL     1       7.660  25.627  54.142  1.00  0.00     0.050 A 
BRANCH  13  15
HETATM   15  C   UNL     1       7.439  23.125  53.966  1.00  0.00     0.010 A 
HETATM   16  C   UNL     1       7.398  22.711  55.299  1.00  0.00     0.130 A 
HETATM   17  N   UNL     1       7.696  21.464  55.743  1.00  0.00    -0.272 NA
HETATM   18  C   UNL     1       8.045  20.557  54.808  1.00  0.00     0.116 A 
HETATM   19  C   UNL     1       8.108  20.840  53.456  1.00  0.00     0.020 A 
HETATM   20  C   UNL     1       7.800  22.134  53.038  1.00  0.00     0.017 A 
ENDBRANCH  13  15
ENDBRANCH   1   5
BRANCH   2  21
HETATM   21  N   UNL     1       7.733  29.654  56.080  1.00  0.00    -0.249 N 
HETATM   22  C   UNL     1       7.474  29.714  57.441  1.00  0.00     0.339 C 
HETATM   23  N   UNL     1       7.959  30.877  57.999  1.00  0.00    -0.308 N 
HETATM   24  O   UNL     1       6.922  28.787  58.026  1.00  0.00    -0.245 OA
HETATM   25  H   UNL     1       8.540  31.437  57.391  1.00  0.00     0.170 HD
HETATM   26  H   UNL     1       7.752  30.510  55.529  1.00  0.00     0.192 HD
BRANCH  23  27
HETATM   27  C   UNL     1       7.878  31.276  59.348  1.00  0.00     0.038 A 
HETATM   28  C   UNL     1       6.888  32.124  59.852  1.00  0.00     0.055 A 
HETATM   29  C   UNL     1       6.866  32.467  61.211  1.00  0.00     0.058 A 
HETATM   30 CL   UNL     1       5.607  33.519  61.757  1.00  0.00    -0.082 Cl
HETATM   31  C   UNL     1       7.843  31.964  62.076  1.00  0.00     0.055 A 
HETATM   32 CL   UNL     1       7.876  32.337  63.761  1.00  0.00    -0.083 Cl
HETATM   33  C   UNL     1       8.840  31.125  61.576  1.00  0.00     0.028 A 
HETATM   34  C   UNL     1       8.859  30.787  60.219  1.00  0.00     0.031 A 
ENDBRANCH  23  27
ENDBRANCH   2  21
TORSDOF 4
ENDMDL
MODEL 3
REMARK VINA RESULT:     -10.7      1.914      2.347
REMARK  4 active torsions:
REMARK  status: ('A' for Active; 'I' for Inactive)
REMARK    1  A    between atoms: C_6  and  C_7 
REMARK    2  A    between atoms: C_14  and  C_15 
REMARK       I    between atoms: C_15  and  N_16 
REMARK    3  A    between atoms: N_16  and  N_17 
REMARK       I    between atoms: N_17  and  C_18 
REMARK       I    between atoms: C_18  and  N_19 
REMARK    4  A    between atoms: N_19  and  C_20 
ROOT
HETATM    1  C   UNL     1       7.768  26.603  57.034  1.00  0.00     0.271 C 
HETATM    2  N   UNL     1       8.245  27.843  56.673  1.00  0.00    -0.262 N 
HETATM    3  O   UNL     1       7.765  26.187  58.188  1.00  0.00    -0.266 OA
HETATM    4  H   UNL     1       8.248  28.212  55.722  1.00  0.00     0.190 HD
ENDROOT
BRANCH   1   5
HETATM    5  C   UNL     1       7.251  25.788  55.912  1.00  0.00     0.048 A 
HETATM    6  C   UNL     1       6.259  26.287  55.043  1.00  0.00     0.009 A 
HETATM    7  C   UNL     1       5.656  27.568  55.141  1.00  0.00     0.015 A 
HETATM    8  C   UNL     1       5.878  25.434  53.993  1.00  0.00     0.068 A 
HETATM    9  C   UNL     1       4.698  27.984  54.218  1.00  0.00     0.001 A 
HETATM   10  C   UNL     1       4.330  27.132  53.187  1.00  0.00     0.002 A 
HETATM   11  C   UNL     1       4.922  25.872  53.087  1.00  0.00     0.032 A 
HETATM   12  N   UNL     1       6.407  24.209  53.819  1.00  0.00    -0.248 NA
HETATM   13  C   UNL     1       7.342  23.738  54.681  1.00  0.00     0.070 A 
HETATM   14  C   UNL     1       7.793  24.511  55.738  1.00  0.00     0.050 A 
BRANCH  13  15
HETATM   15  C   UNL     1       7.843  22.382  54.394  1.00  0.00     0.010 A 
HETATM   16  C   UNL     1       8.315  21.519  55.386  1.00  0.00     0.130 A 
HETATM   17  N   UNL     1       8.802  20.271  55.173  1.00  0.00    -0.272 NA
HETATM   18  C   UNL     1       8.813  19.836  53.896  1.00  0.00     0.116 A 
HETATM   19  C   UNL     1       8.360  20.590  52.830  1.00  0.00     0.020 A 
HETATM   20  C   UNL     1       7.871  21.870  53.087  1.00  0.00     0.017 A 
ENDBRANCH  13  15
ENDBRANCH   1   5
BRANCH   2  21
HETATM   21  N   UNL     1       8.743  28.692  57.671  1.00  0.00    -0.249 N 
HETATM   22  C   UNL     1       7.817  29.504  58.310  1.00  0.00     0.339 C 
HETATM   23  N   UNL     1       8.421  30.342  59.221  1.00  0.00    -0.308 N 
HETATM   24  O   UNL     1       6.616  29.401  58.082  1.00  0.00    -0.245 OA
HETATM   25  H   UNL     1       9.398  30.157  59.396  1.00  0.00     0.170 HD
HETATM   26  H   UNL     1       9.684  29.039  57.495  1.00  0.00     0.192 HD
BRANCH  23  27
HETATM   27  C   UNL     1       7.796  31.298  60.047  1.00  0.00     0.038 A 
HETATM   28  C   UNL     1       8.185  31.566  61.362  1.00  0.00     0.055 A 
HETATM   29  C   UNL     1       7.522  32.542  62.118  1.00  0.00     0.058 A 
HETATM   30 CL   UNL     1       8.065  32.815  63.737  1.00  0.00    -0.082 Cl
HETATM   31  C   UNL     1       6.457  33.257  61.560  1.00  0.00     0.055 A 
HETATM   32 CL   UNL     1       5.598  34.477  62.428  1.00  0.00    -0.083 Cl
HETATM   33  C   UNL     1       6.057  32.986  60.251  1.00  0.00     0.028 A 
HETATM   34  C   UNL     1       6.721  32.010  59.500  1.00  0.00     0.031 A 
ENDBRANCH  23  27
ENDBRANCH   2  21
TORSDOF 4
ENDMDL
MODEL 4
REMARK VINA RESULT:     -10.3      5.368      9.773
REMARK  4 active torsions:
REMARK  status: ('A' for Active; 'I' for Inactive)
REMARK    1  A    between atoms: C_6  and  C_7 
REMARK    2  A    between atoms: C_14  and  C_15 
REMARK       I    between atoms: C_15  and  N_16 
REMARK    3  A    between atoms: N_16  and  N_17 
REMARK       I    between atoms: N_17  and  C_18 
REMARK       I    between atoms: C_18  and  N_19 
REMARK    4  A    between atoms: N_19  and  C_20 
ROOT
HETATM    1  C   UNL     1       7.210  25.403  52.548  1.00  0.00     0.271 C 
HETATM    2  N   UNL     1       6.006  25.932  52.144  1.00  0.00    -0.262 N 
HETATM    3  O   UNL     1       8.046  24.948  51.774  1.00  0.00    -0.266 OA
HETATM    4  H   UNL     1       5.302  26.323  52.770  1.00  0.00     0.190 HD
ENDROOT
BRANCH   1   5
HETATM    5  C   UNL     1       7.433  25.417  54.011  1.00  0.00     0.048 A 
HETATM    6  C   UNL     1       7.672  24.225  54.726  1.00  0.00     0.009 A 
HETATM    7  C   UNL     1       7.714  22.926  54.156  1.00  0.00     0.015 A 
HETATM    8  C   UNL     1       7.907  24.373  56.104  1.00  0.00     0.068 A 
HETATM    9  C   UNL     1       7.982  21.805  54.941  1.00  0.00     0.001 A 
HETATM   10  C   UNL     1       8.212  21.964  56.300  1.00  0.00     0.002 A 
HETATM   11  C   UNL     1       8.172  23.241  56.863  1.00  0.00     0.032 A 
HETATM   12  N   UNL     1       7.897  25.567  56.722  1.00  0.00    -0.248 NA
HETATM   13  C   UNL     1       7.640  26.699  56.021  1.00  0.00     0.070 A 
HETATM   14  C   UNL     1       7.411  26.658  54.656  1.00  0.00     0.050 A 
BRANCH  13  15
HETATM   15  C   UNL     1       7.649  27.947  56.805  1.00  0.00     0.010 A 
HETATM   16  C   UNL     1       6.487  28.648  57.133  1.00  0.00     0.130 A 
HETATM   17  N   UNL     1       6.443  29.808  57.837  1.00  0.00    -0.272 NA
HETATM   18  C   UNL     1       7.623  30.304  58.259  1.00  0.00     0.116 A 
HETATM   19  C   UNL     1       8.840  29.695  58.011  1.00  0.00     0.020 A 
HETATM   20  C   UNL     1       8.846  28.508  57.281  1.00  0.00     0.017 A 
ENDBRANCH  13  15
ENDBRANCH   1   5
BRANCH   2  21
HETATM   21  N   UNL     1       5.712  25.973  50.774  1.00  0.00    -0.249 N 
HETATM   22  C   UNL     1       4.813  26.948  50.365  1.00  0.00     0.339 C 
HETATM   23  N   UNL     1       4.546  26.856  49.016  1.00  0.00    -0.308 N 
HETATM   24  O   UNL     1       4.386  27.789  51.148  1.00  0.00    -0.245 OA
HETATM   25  H   UNL     1       5.129  26.210  48.503  1.00  0.00     0.170 HD
HETATM   26  H   UNL     1       5.716  25.063  50.317  1.00  0.00     0.192 HD
BRANCH  23  27
HETATM   27  C   UNL     1       3.684  27.675  48.258  1.00  0.00     0.038 A 
HETATM   28  C   UNL     1       2.395  27.301  47.869  1.00  0.00     0.055 A 
HETATM   29  C   UNL     1       1.592  28.176  47.125  1.00  0.00     0.058 A 
HETATM   30 CL   UNL     1       0.008  27.640  46.684  1.00  0.00    -0.082 Cl
HETATM   31  C   UNL     1       2.079  29.436  46.762  1.00  0.00     0.055 A 
HETATM   32 CL   UNL     1       1.146  30.569  45.853  1.00  0.00    -0.083 Cl
HETATM   33  C   UNL     1       3.370  29.810  47.139  1.00  0.00     0.028 A 
HETATM   34  C   UNL     1       4.168  28.933  47.879  1.00  0.00     0.031 A 
ENDBRANCH  23  27
ENDBRANCH   2  21
TORSDOF 4
ENDMDL
MODEL 5
REMARK VINA RESULT:     -10.3      4.053     10.483
REMARK  4 active torsions:
REMARK  status: ('A' for Active; 'I' for Inactive)
REMARK    1  A    between atoms: C_6  and  C_7 
REMARK    2  A    between atoms: C_14  and  C_15 
REMARK       I    between atoms: C_15  and  N_16 
REMARK    3  A    between atoms: N_16  and  N_17 
REMARK       I    between atoms: N_17  and  C_18 
REMARK       I    between atoms: C_18  and  N_19 
REMARK    4  A    between atoms: N_19  and  C_20 
ROOT
HETATM    1  C   UNL     1       5.365  30.268  57.370  1.00  0.00     0.271 C 
HETATM    2  N   UNL     1       4.912  29.011  57.701  1.00  0.00    -0.262 N 
HETATM    3  O   UNL     1       5.557  30.638  56.217  1.00  0.00    -0.266 OA
HETATM    4  H   UNL     1       4.737  28.687  58.652  1.00  0.00     0.190 HD
ENDROOT
BRANCH   1   5
HETATM    5  C   UNL     1       5.612  31.161  58.525  1.00  0.00     0.048 A 
HETATM    6  C   UNL     1       6.920  31.399  58.997  1.00  0.00     0.009 A 
HETATM    7  C   UNL     1       8.101  30.830  58.454  1.00  0.00     0.015 A 
HETATM    8  C   UNL     1       7.029  32.296  60.074  1.00  0.00     0.068 A 
HETATM    9  C   UNL     1       9.355  31.145  58.974  1.00  0.00     0.001 A 
HETATM   10  C   UNL     1       9.450  32.031  60.038  1.00  0.00     0.002 A 
HETATM   11  C   UNL     1       8.289  32.593  60.573  1.00  0.00     0.032 A 
HETATM   12  N   UNL     1       5.963  32.890  60.640  1.00  0.00    -0.248 NA
HETATM   13  C   UNL     1       4.712  32.627  60.187  1.00  0.00     0.070 A 
HETATM   14  C   UNL     1       4.503  31.769  59.121  1.00  0.00     0.050 A 
BRANCH  13  15
HETATM   15  C   UNL     1       3.623  33.330  60.889  1.00  0.00     0.010 A 
HETATM   16  C   UNL     1       2.574  33.967  60.221  1.00  0.00     0.130 A 
HETATM   17  N   UNL     1       1.559  34.641  60.819  1.00  0.00    -0.272 NA
HETATM   18  C   UNL     1       1.569  34.679  62.166  1.00  0.00     0.116 A 
HETATM   19  C   UNL     1       2.543  34.074  62.940  1.00  0.00     0.020 A 
HETATM   20  C   UNL     1       3.573  33.396  62.291  1.00  0.00     0.017 A 
ENDBRANCH  13  15
ENDBRANCH   1   5
BRANCH   2  21
HETATM   21  N   UNL     1       4.637  28.099  56.673  1.00  0.00    -0.249 N 
HETATM   22  C   UNL     1       5.574  27.098  56.469  1.00  0.00     0.339 C 
HETATM   23  N   UNL     1       5.239  26.301  55.395  1.00  0.00    -0.308 N 
HETATM   24  O   UNL     1       6.535  26.962  57.219  1.00  0.00    -0.245 OA
HETATM   25  H   UNL     1       4.319  26.461  55.010  1.00  0.00     0.170 HD
HETATM   26  H   UNL     1       4.143  28.501  55.878  1.00  0.00     0.192 HD
BRANCH  23  27
HETATM   27  C   UNL     1       5.955  25.194  54.897  1.00  0.00     0.038 A 
HETATM   28  C   UNL     1       6.596  24.251  55.705  1.00  0.00     0.055 A 
HETATM   29  C   UNL     1       7.278  23.168  55.135  1.00  0.00     0.058 A 
HETATM   30 CL   UNL     1       8.045  22.045  56.204  1.00  0.00    -0.082 Cl
HETATM   31  C   UNL     1       7.326  23.024  53.745  1.00  0.00     0.055 A 
HETATM   32 CL   UNL     1       8.142  21.713  52.972  1.00  0.00    -0.083 Cl
HETATM   33  C   UNL     1       6.697  23.968  52.932  1.00  0.00     0.028 A 
HETATM   34  C   UNL     1       6.018  25.048  53.506  1.00  0.00     0.031 A 
ENDBRANCH  23  27
ENDBRANCH   2  21
TORSDOF 4
ENDMDL
MODEL 6
REMARK VINA RESULT:      -9.9      1.890      4.549
REMARK  4 active torsions:
REMARK  status: ('A' for Active; 'I' for Inactive)
REMARK    1  A    between atoms: C_6  and  C_7 
REMARK    2  A    between atoms: C_14  and  C_15 
REMARK       I    between atoms: C_15  and  N_16 
REMARK    3  A    between atoms: N_16  and  N_17 
REMARK       I    between atoms: N_17  and  C_18 
REMARK       I    between atoms: C_18  and  N_19 
REMARK    4  A    between atoms: N_19  and  C_20 
ROOT
HETATM    1  C   UNL     1       5.051  28.681  54.838  1.00  0.00     0.271 C 
HETATM    2  N   UNL     1       6.024  29.647  54.959  1.00  0.00    -0.262 N 
HETATM    3  O   UNL     1       4.035  28.653  55.524  1.00  0.00    -0.266 OA
HETATM    4  H   UNL     1       6.871  29.695  54.393  1.00  0.00     0.190 HD
ENDROOT
BRANCH   1   5
HETATM    5  C   UNL     1       5.322  27.656  53.806  1.00  0.00     0.048 A 
HETATM    6  C   UNL     1       5.861  26.399  54.149  1.00  0.00     0.009 A 
HETATM    7  C   UNL     1       6.205  25.988  55.463  1.00  0.00     0.015 A 
HETATM    8  C   UNL     1       6.037  25.496  53.085  1.00  0.00     0.068 A 
HETATM    9  C   UNL     1       6.712  24.713  55.708  1.00  0.00     0.001 A 
HETATM   10  C   UNL     1       6.881  23.831  54.650  1.00  0.00     0.002 A 
HETATM   11  C   UNL     1       6.543  24.232  53.356  1.00  0.00     0.032 A 
HETATM   12  N   UNL     1       5.726  25.799  51.812  1.00  0.00    -0.248 NA
HETATM   13  C   UNL     1       5.232  27.023  51.500  1.00  0.00     0.070 A 
HETATM   14  C   UNL     1       5.010  27.975  52.481  1.00  0.00     0.050 A 
BRANCH  13  15
HETATM   15  C   UNL     1       4.935  27.242  50.073  1.00  0.00     0.010 A 
HETATM   16  C   UNL     1       4.994  28.500  49.468  1.00  0.00     0.130 A 
HETATM   17  N   UNL     1       4.715  28.757  48.165  1.00  0.00    -0.272 NA
HETATM   18  C   UNL     1       4.366  27.701  47.402  1.00  0.00     0.116 A 
HETATM   19  C   UNL     1       4.286  26.407  47.881  1.00  0.00     0.020 A 
HETATM   20  C   UNL     1       4.576  26.182  49.225  1.00  0.00     0.017 A 
ENDBRANCH  13  15
ENDBRANCH   1   5
BRANCH   2  21
HETATM   21  N   UNL     1       5.848  30.669  55.902  1.00  0.00    -0.249 N 
HETATM   22  C   UNL     1       6.508  30.513  57.112  1.00  0.00     0.339 C 
HETATM   23  N   UNL     1       6.214  31.537  57.986  1.00  0.00    -0.308 N 
HETATM   24  O   UNL     1       7.284  29.582  57.298  1.00  0.00    -0.245 OA
HETATM   25  H   UNL     1       5.693  32.306  57.589  1.00  0.00     0.170 HD
HETATM   26  H   UNL     1       4.929  31.107  55.879  1.00  0.00     0.192 HD
BRANCH  23  27
HETATM   27  C   UNL     1       6.699  31.706  59.298  1.00  0.00     0.038 A 
HETATM   28  C   UNL     1       7.799  31.019  59.818  1.00  0.00     0.055 A 
HETATM   29  C   UNL     1       8.230  31.250  61.131  1.00  0.00     0.058 A 
HETATM   30 CL   UNL     1       9.601  30.362  61.699  1.00  0.00    -0.082 Cl
HETATM   31  C   UNL     1       7.556  32.173  61.938  1.00  0.00     0.055 A 
HETATM   32 CL   UNL     1       8.032  32.514  63.562  1.00  0.00    -0.083 Cl
HETATM   33  C   UNL     1       6.449  32.853  61.428  1.00  0.00     0.028 A 
HETATM   34  C   UNL     1       6.022  32.618  60.117  1.00  0.00     0.031 A 
ENDBRANCH  23  27
ENDBRANCH   2  21
TORSDOF 4
ENDMDL
MODEL 7
REMARK VINA RESULT:      -9.5      4.427     10.481
REMARK  4 active torsions:
REMARK  status: ('A' for Active; 'I' for Inactive)
REMARK    1  A    between atoms: C_6  and  C_7 
REMARK    2  A    between atoms: C_14  and  C_15 
REMARK       I    between atoms: C_15  and  N_16 
REMARK    3  A    between atoms: N_16  and  N_17 
REMARK       I    between atoms: N_17  and  C_18 
REMARK       I    between atoms: C_18  and  N_19 
REMARK    4  A    between atoms: N_19  and  C_20 
ROOT
HETATM    1  C   UNL     1       7.024  31.637  58.954  1.00  0.00     0.271 C 
HETATM    2  N   UNL     1       6.619  30.359  58.644  1.00  0.00    -0.262 N 
HETATM    3  O   UNL     1       8.173  32.039  58.808  1.00  0.00    -0.266 OA
HETATM    4  H   UNL     1       5.667  30.008  58.750  1.00  0.00     0.190 HD
ENDROOT
BRANCH   1   5
HETATM    5  C   UNL     1       5.956  32.512  59.490  1.00  0.00     0.048 A 
HETATM    6  C   UNL     1       5.052  33.171  58.631  1.00  0.00     0.009 A 
HETATM    7  C   UNL     1       5.062  33.087  57.215  1.00  0.00     0.015 A 
HETATM    8  C   UNL     1       4.060  33.942  59.261  1.00  0.00     0.068 A 
HETATM    9  C   UNL     1       4.110  33.757  56.448  1.00  0.00     0.001 A 
HETATM   10  C   UNL     1       3.136  34.516  57.081  1.00  0.00     0.002 A 
HETATM   11  C   UNL     1       3.123  34.599  58.475  1.00  0.00     0.032 A 
HETATM   12  N   UNL     1       3.970  34.066  60.597  1.00  0.00    -0.248 NA
HETATM   13  C   UNL     1       4.865  33.445  61.404  1.00  0.00     0.070 A 
HETATM   14  C   UNL     1       5.870  32.650  60.879  1.00  0.00     0.050 A 
BRANCH  13  15
HETATM   15  C   UNL     1       4.671  33.658  62.850  1.00  0.00     0.010 A 
HETATM   16  C   UNL     1       5.614  33.280  63.808  1.00  0.00     0.130 A 
HETATM   17  N   UNL     1       5.476  33.439  65.149  1.00  0.00    -0.272 NA
HETATM   18  C   UNL     1       4.338  34.022  65.575  1.00  0.00     0.116 A 
HETATM   19  C   UNL     1       3.336  34.453  64.724  1.00  0.00     0.020 A 
HETATM   20  C   UNL     1       3.511  34.268  63.354  1.00  0.00     0.017 A 
ENDBRANCH  13  15
ENDBRANCH   1   5
BRANCH   2  21
HETATM   21  N   UNL     1       7.558  29.462  58.117  1.00  0.00    -0.249 N 
HETATM   22  C   UNL     1       7.058  28.270  57.614  1.00  0.00     0.339 C 
HETATM   23  N   UNL     1       8.069  27.438  57.185  1.00  0.00    -0.308 N 
HETATM   24  O   UNL     1       5.851  28.065  57.542  1.00  0.00    -0.245 OA
HETATM   25  H   UNL     1       8.990  27.853  57.163  1.00  0.00     0.170 HD
HETATM   26  H   UNL     1       8.460  29.474  58.590  1.00  0.00     0.192 HD
BRANCH  23  27
HETATM   27  C   UNL     1       7.936  26.153  56.621  1.00  0.00     0.038 A 
HETATM   28  C   UNL     1       7.347  25.903  55.378  1.00  0.00     0.055 A 
HETATM   29  C   UNL     1       7.262  24.597  54.878  1.00  0.00     0.058 A 
HETATM   30 CL   UNL     1       6.520  24.372  53.332  1.00  0.00    -0.082 Cl
HETATM   31  C   UNL     1       7.766  23.527  55.624  1.00  0.00     0.055 A 
HETATM   32 CL   UNL     1       7.703  21.893  55.069  1.00  0.00    -0.083 Cl
HETATM   33  C   UNL     1       8.346  23.769  56.870  1.00  0.00     0.028 A 
HETATM   34  C   UNL     1       8.427  25.074  57.366  1.00  0.00     0.031 A 
ENDBRANCH  23  27
ENDBRANCH   2  21
TORSDOF 4
ENDMDL
MODEL 8
REMARK VINA RESULT:      -9.4      4.092     10.936
REMARK  4 active torsions:
REMARK  status: ('A' for Active; 'I' for Inactive)
REMARK    1  A    between atoms: C_6  and  C_7 
REMARK    2  A    between atoms: C_14  and  C_15 
REMARK       I    between atoms: C_15  and  N_16 
REMARK    3  A    between atoms: N_16  and  N_17 
REMARK       I    between atoms: N_17  and  C_18 
REMARK       I    between atoms: C_18  and  N_19 
REMARK    4  A    between atoms: N_19  and  C_20 
ROOT
HETATM    1  C   UNL     1       7.291  31.802  59.024  1.00  0.00     0.271 C 
HETATM    2  N   UNL     1       6.642  30.885  58.229  1.00  0.00    -0.262 N 
HETATM    3  O   UNL     1       8.498  32.013  58.970  1.00  0.00    -0.266 OA
HETATM    4  H   UNL     1       5.639  30.702  58.251  1.00  0.00     0.190 HD
ENDROOT
BRANCH   1   5
HETATM    5  C   UNL     1       6.416  32.530  59.970  1.00  0.00     0.048 A 
HETATM    6  C   UNL     1       6.771  32.678  61.327  1.00  0.00     0.009 A 
HETATM    7  C   UNL     1       7.950  32.161  61.924  1.00  0.00     0.015 A 
HETATM    8  C   UNL     1       5.878  33.423  62.117  1.00  0.00     0.068 A 
HETATM    9  C   UNL     1       8.228  32.380  63.273  1.00  0.00     0.001 A 
HETATM   10  C   UNL     1       7.338  33.116  64.042  1.00  0.00     0.002 A 
HETATM   11  C   UNL     1       6.178  33.627  63.456  1.00  0.00     0.032 A 
HETATM   12  N   UNL     1       4.744  33.959  61.629  1.00  0.00    -0.248 NA
HETATM   13  C   UNL     1       4.409  33.783  60.327  1.00  0.00     0.070 A 
HETATM   14  C   UNL     1       5.232  33.077  59.466  1.00  0.00     0.050 A 
BRANCH  13  15
HETATM   15  C   UNL     1       3.143  34.409  59.908  1.00  0.00     0.010 A 
HETATM   16  C   UNL     1       1.958  34.295  60.639  1.00  0.00     0.130 A 
HETATM   17  N   UNL     1       0.765  34.837  60.289  1.00  0.00    -0.272 NA
HETATM   18  C   UNL     1       0.737  35.552  59.146  1.00  0.00     0.116 A 
HETATM   19  C   UNL     1       1.846  35.751  58.344  1.00  0.00     0.020 A 
HETATM   20  C   UNL     1       3.053  35.174  58.733  1.00  0.00     0.017 A 
ENDBRANCH  13  15
ENDBRANCH   1   5
BRANCH   2  21
HETATM   21  N   UNL     1       7.387  30.157  57.291  1.00  0.00    -0.249 N 
HETATM   22  C   UNL     1       7.003  28.840  57.086  1.00  0.00     0.339 C 
HETATM   23  N   UNL     1       7.840  28.200  56.198  1.00  0.00    -0.308 N 
HETATM   24  O   UNL     1       6.000  28.379  57.621  1.00  0.00    -0.245 OA
HETATM   25  H   UNL     1       8.506  28.795  55.727  1.00  0.00     0.170 HD
HETATM   26  H   UNL     1       8.373  30.409  57.253  1.00  0.00     0.192 HD
BRANCH  23  27
HETATM   27  C   UNL     1       7.756  26.864  55.756  1.00  0.00     0.038 A 
HETATM   28  C   UNL     1       8.042  25.757  56.559  1.00  0.00     0.055 A 
HETATM   29  C   UNL     1       7.924  24.457  56.050  1.00  0.00     0.058 A 
HETATM   30 CL   UNL     1       8.295  23.140  57.108  1.00  0.00    -0.082 Cl
HETATM   31  C   UNL     1       7.519  24.256  54.726  1.00  0.00     0.055 A 
HETATM   32 CL   UNL     1       7.345  22.685  54.033  1.00  0.00    -0.083 Cl
HETATM   33  C   UNL     1       7.242  25.359  53.917  1.00  0.00     0.028 A 
HETATM   34  C   UNL     1       7.363  26.655  54.428  1.00  0.00     0.031 A 
ENDBRANCH  23  27
ENDBRANCH   2  21
TORSDOF 4
ENDMDL
MODEL 9
REMARK VINA RESULT:      -9.4      3.422      5.130
REMARK  4 active torsions:
REMARK  status: ('A' for Active; 'I' for Inactive)
REMARK    1  A    between atoms: C_6  and  C_7 
REMARK    2  A    between atoms: C_14  and  C_15 
REMARK       I    between atoms: C_15  and  N_16 
REMARK    3  A    between atoms: N_16  and  N_17 
REMARK       I    between atoms: N_17  and  C_18 
REMARK       I    between atoms: C_18  and  N_19 
REMARK    4  A    between atoms: N_19  and  C_20 
ROOT
HETATM    1  C   UNL     1       7.883  30.497  58.548  1.00  0.00     0.271 C 
HETATM    2  N   UNL     1       7.191  30.607  59.733  1.00  0.00    -0.262 N 
HETATM    3  O   UNL     1       8.922  31.103  58.310  1.00  0.00    -0.266 OA
HETATM    4  H   UNL     1       6.331  30.105  59.954  1.00  0.00     0.190 HD
ENDROOT
BRANCH   1   5
HETATM    5  C   UNL     1       7.273  29.580  57.558  1.00  0.00     0.048 A 
HETATM    6  C   UNL     1       6.224  30.006  56.717  1.00  0.00     0.009 A 
HETATM    7  C   UNL     1       5.645  31.302  56.726  1.00  0.00     0.015 A 
HETATM    8  C   UNL     1       5.756  29.056  55.793  1.00  0.00     0.068 A 
HETATM    9  C   UNL     1       4.625  31.638  55.838  1.00  0.00     0.001 A 
HETATM   10  C   UNL     1       4.171  30.692  54.930  1.00  0.00     0.002 A 
HETATM   11  C   UNL     1       4.739  29.417  54.919  1.00  0.00     0.032 A 
HETATM   12  N   UNL     1       6.256  27.811  55.709  1.00  0.00    -0.248 NA
HETATM   13  C   UNL     1       7.248  27.413  56.544  1.00  0.00     0.070 A 
HETATM   14  C   UNL     1       7.786  28.282  57.479  1.00  0.00     0.050 A 
BRANCH  13  15
HETATM   15  C   UNL     1       7.711  26.026  56.364  1.00  0.00     0.010 A 
HETATM   16  C   UNL     1       8.386  25.314  57.358  1.00  0.00     0.130 A 
HETATM   17  N   UNL     1       8.847  24.043  57.236  1.00  0.00    -0.272 NA
HETATM   18  C   UNL     1       8.616  23.426  56.060  1.00  0.00     0.116 A 
HETATM   19  C   UNL     1       7.946  24.019  55.006  1.00  0.00     0.020 A 
HETATM   20  C   UNL     1       7.492  25.327  55.166  1.00  0.00     0.017 A 
ENDBRANCH  13  15
ENDBRANCH   1   5
BRANCH   2  21
HETATM   21  N   UNL     1       7.700  31.442  60.737  1.00  0.00    -0.249 N 
HETATM   22  C   UNL     1       6.769  32.037  61.575  1.00  0.00     0.339 C 
HETATM   23  N   UNL     1       7.369  32.886  62.479  1.00  0.00    -0.308 N 
HETATM   24  O   UNL     1       5.576  31.759  61.501  1.00  0.00    -0.245 OA
HETATM   25  H   UNL     1       8.379  32.849  62.501  1.00  0.00     0.170 HD
HETATM   26  H   UNL     1       8.541  31.951  60.473  1.00  0.00     0.192 HD
BRANCH  23  27
HETATM   27  C   UNL     1       6.739  33.658  63.476  1.00  0.00     0.038 A 
HETATM   28  C   UNL     1       5.870  34.719  63.209  1.00  0.00     0.055 A 
HETATM   29  C   UNL     1       5.271  35.432  64.256  1.00  0.00     0.058 A 
HETATM   30 CL   UNL     1       4.206  36.730  63.842  1.00  0.00    -0.082 Cl
HETATM   31  C   UNL     1       5.543  35.088  65.584  1.00  0.00     0.055 A 
HETATM   32 CL   UNL     1       4.838  35.916  66.924  1.00  0.00    -0.083 Cl
HETATM   33  C   UNL     1       6.419  34.036  65.857  1.00  0.00     0.028 A 
HETATM   34  C   UNL     1       7.016  33.328  64.809  1.00  0.00     0.031 A 
ENDBRANCH  23  27
ENDBRANCH   2  21
TORSDOF 4
ENDMDL
MODEL 10
REMARK VINA RESULT:      -9.3      5.118      8.378
REMARK  4 active torsions:
REMARK  status: ('A' for Active; 'I' for Inactive)
REMARK    1  A    between atoms: C_6  and  C_7 
REMARK    2  A    between atoms: C_14  and  C_15 
REMARK       I    between atoms: C_15  and  N_16 
REMARK    3  A    between atoms: N_16  and  N_17 
REMARK       I    between atoms: N_17  and  C_18 
REMARK       I    between atoms: C_18  and  N_19 
REMARK    4  A    between atoms: N_19  and  C_20 
ROOT
HETATM    1  C   UNL     1       5.034  26.391  52.933  1.00  0.00     0.271 C 
HETATM    2  N   UNL     1       5.313  26.198  51.599  1.00  0.00    -0.262 N 
HETATM    3  O   UNL     1       4.051  27.001  53.339  1.00  0.00    -0.266 OA
HETATM    4  H   UNL     1       6.120  25.686  51.241  1.00  0.00     0.190 HD
ENDROOT
BRANCH   1   5
HETATM    5  C   UNL     1       6.022  25.801  53.864  1.00  0.00     0.048 A 
HETATM    6  C   UNL     1       6.539  26.543  54.946  1.00  0.00     0.009 A 
HETATM    7  C   UNL     1       6.199  27.886  55.253  1.00  0.00     0.015 A 
HETATM    8  C   UNL     1       7.441  25.861  55.782  1.00  0.00     0.068 A 
HETATM    9  C   UNL     1       6.746  28.531  56.361  1.00  0.00     0.001 A 
HETATM   10  C   UNL     1       7.635  27.848  57.178  1.00  0.00     0.002 A 
HETATM   11  C   UNL     1       7.971  26.525  56.879  1.00  0.00     0.032 A 
HETATM   12  N   UNL     1       7.809  24.584  55.571  1.00  0.00    -0.248 NA
HETATM   13  C   UNL     1       7.319  23.897  54.510  1.00  0.00     0.070 A 
HETATM   14  C   UNL     1       6.413  24.478  53.638  1.00  0.00     0.050 A 
BRANCH  13  15
HETATM   15  C   UNL     1       7.798  22.509  54.378  1.00  0.00     0.010 A 
HETATM   16  C   UNL     1       8.135  21.713  55.474  1.00  0.00     0.130 A 
HETATM   17  N   UNL     1       8.595  20.438  55.406  1.00  0.00    -0.272 NA
HETATM   18  C   UNL     1       8.720  19.906  54.173  1.00  0.00     0.116 A 
HETATM   19  C   UNL     1       8.405  20.587  53.012  1.00  0.00     0.020 A 
HETATM   20  C   UNL     1       7.940  21.897  53.122  1.00  0.00     0.017 A 
ENDBRANCH  13  15
ENDBRANCH   1   5
BRANCH   2  21
HETATM   21  N   UNL     1       4.426  26.710  50.642  1.00  0.00    -0.249 N 
HETATM   22  C   UNL     1       4.728  27.961  50.127  1.00  0.00     0.339 C 
HETATM   23  N   UNL     1       3.759  28.395  49.248  1.00  0.00    -0.308 N 
HETATM   24  O   UNL     1       5.771  28.536  50.420  1.00  0.00    -0.245 OA
HETATM   25  H   UNL     1       3.062  27.706  49.000  1.00  0.00     0.170 HD
HETATM   26  H   UNL     1       3.454  26.441  50.787  1.00  0.00     0.192 HD
BRANCH  23  27
HETATM   27  C   UNL     1       3.731  29.613  48.539  1.00  0.00     0.038 A 
HETATM   28  C   UNL     1       3.284  30.821  49.081  1.00  0.00     0.055 A 
HETATM   29  C   UNL     1       3.299  31.995  48.316  1.00  0.00     0.058 A 
HETATM   30 CL   UNL     1       2.732  33.449  49.060  1.00  0.00    -0.082 Cl
HETATM   31  C   UNL     1       3.759  31.965  46.996  1.00  0.00     0.055 A 
HETATM   32 CL   UNL     1       3.812  33.372  45.996  1.00  0.00    -0.083 Cl
HETATM   33  C   UNL     1       4.196  30.759  46.446  1.00  0.00     0.028 A 
HETATM   34  C   UNL     1       4.178  29.589  47.213  1.00  0.00     0.031 A 
ENDBRANCH  23  27
ENDBRANCH   2  21
TORSDOF 4
ENDMDL
