MODEL 1
REMARK VINA RESULT:      -9.4      0.000      0.000
REMARK  9 active torsions:
REMARK  status: ('A' for Active; 'I' for Inactive)
REMARK    1  A    between atoms: C_2  and  O_3 
REMARK    2  A    between atoms: O_3  and  C_4 
REMARK    3  A    between atoms: C_4  and  C_5 
REMARK    4  A    between atoms: C_7  and  C_8 
REMARK       I    between atoms: C_8  and  N_9 
REMARK    5  A    between atoms: N_9  and  N_10 
REMARK    6  A    between atoms: N_10  and  C_11 
REMARK    7  A    between atoms: C_11  and  N_12 
REMARK    8  A    between atoms: N_12  and  C_13 
REMARK    9  A    between atoms: C_13  and  C_14 
ROOT
HETATM    1  C   UNL     1       5.558  26.817  54.933  1.00  0.00     0.078 A 
HETATM    2  O   UNL     1       6.449  26.883  55.962  1.00  0.00    -0.307 OA
HETATM    3  C   UNL     1       6.286  28.096  56.579  1.00  0.00     0.145 A 
HETATM    4  C   UNL     1       5.273  28.792  55.940  1.00  0.00     0.045 A 
HETATM    5  C   UNL     1       4.808  27.972  54.885  1.00  0.00     0.038 A 
ENDROOT
BRANCH   3   6
HETATM    6  C   UNL     1       7.150  28.414  57.700  1.00  0.00     0.293 C 
HETATM    7  N   UNL     1       6.986  29.693  58.211  1.00  0.00    -0.262 N 
HETATM    8  H   UNL     1       6.184  30.268  57.972  1.00  0.00     0.190 HD
HETATM    9  O   UNL     1       7.975  27.643  58.195  1.00  0.00    -0.264 OA
BRANCH   7  10
HETATM   10  N   UNL     1       7.668  30.039  59.394  1.00  0.00    -0.274 N 
HETATM   11  H   UNL     1       7.077  30.009  60.224  1.00  0.00     0.189 HD
BRANCH  10  12
HETATM   12  C   UNL     1       8.696  30.944  59.352  1.00  0.00     0.186 C 
HETATM   13  S   UNL     1       9.983  30.881  58.281  1.00  0.00    -0.040 SA
BRANCH  12  14
HETATM   14  N   UNL     1       8.689  31.924  60.293  1.00  0.00    -0.364 N 
HETATM   15  H   UNL     1       8.472  32.847  59.930  1.00  0.00     0.162 HD
BRANCH  14  16
HETATM   16  C   UNL     1       9.249  31.922  61.642  1.00  0.00     0.154 C 
BRANCH  16  17
HETATM   17  C   UNL     1       8.193  31.673  62.733  1.00  0.00     0.139 C 
HETATM   18  O   UNL     1       6.906  31.464  62.114  1.00  0.00    -0.384 OA
HETATM   19  C   UNL     1       5.960  32.356  62.717  1.00  0.00     0.168 C 
HETATM   20  C   UNL     1       6.759  33.488  63.319  1.00  0.00     0.029 C 
HETATM   21  C   UNL     1       8.029  32.798  63.746  1.00  0.00     0.035 C 
ENDBRANCH  16  17
ENDBRANCH  14  16
ENDBRANCH  12  14
ENDBRANCH  10  12
ENDBRANCH   7  10
ENDBRANCH   3   6
BRANCH   1  22
HETATM   22  C   UNL     1       5.571  25.583  54.106  1.00  0.00     0.240 C 
BRANCH  22  23
HETATM   23  O   UNL     1       6.940  25.319  53.808  1.00  0.00    -0.345 OA
BRANCH  23  24
HETATM   24  C   UNL     1       7.354  24.018  53.905  1.00  0.00     0.069 A 
HETATM   25  C   UNL     1       7.561  23.142  52.827  1.00  0.00     0.037 A 
HETATM   26  C   UNL     1       8.005  21.832  53.045  1.00  0.00     0.010 A 
HETATM   27  C   UNL     1       8.244  21.423  54.343  1.00  0.00    -0.052 A 
HETATM   28  C   UNL     1       8.038  22.289  55.419  1.00  0.00    -0.049 A 
HETATM   29  C   UNL     1       8.679  20.073  54.823  1.00  0.00     0.039 C 
HETATM   30  C   UNL     1       7.596  23.585  55.213  1.00  0.00     0.044 A 
HETATM   31  C   UNL     1       8.303  21.601  56.720  1.00  0.00     0.039 C 
HETATM   32  C   UNL     1       9.135  20.397  56.254  1.00  0.00     0.009 C 
ENDBRANCH  23  24
ENDBRANCH  22  23
ENDBRANCH   1  22
TORSDOF 9
ENDMDL
MODEL 2
REMARK VINA RESULT:      -9.4      2.169      2.817
REMARK  9 active torsions:
REMARK  status: ('A' for Active; 'I' for Inactive)
REMARK    1  A    between atoms: C_2  and  O_3 
REMARK    2  A    between atoms: O_3  and  C_4 
REMARK    3  A    between atoms: C_4  and  C_5 
REMARK    4  A    between atoms: C_7  and  C_8 
REMARK       I    between atoms: C_8  and  N_9 
REMARK    5  A    between atoms: N_9  and  N_10 
REMARK    6  A    between atoms: N_10  and  C_11 
REMARK    7  A    between atoms: C_11  and  N_12 
REMARK    8  A    between atoms: N_12  and  C_13 
REMARK    9  A    between atoms: C_13  and  C_14 
ROOT
HETATM    1  C   UNL     1       7.696  27.262  56.894  1.00  0.00     0.078 A 
HETATM    2  O   UNL     1       7.688  27.853  58.122  1.00  0.00    -0.307 OA
HETATM    3  C   UNL     1       7.860  29.201  57.938  1.00  0.00     0.145 A 
HETATM    4  C   UNL     1       7.962  29.459  56.581  1.00  0.00     0.045 A 
HETATM    5  C   UNL     1       7.857  28.216  55.913  1.00  0.00     0.038 A 
ENDROOT
BRANCH   3   6
HETATM    6  C   UNL     1       7.913  30.050  59.113  1.00  0.00     0.293 C 
HETATM    7  N   UNL     1       6.824  30.895  59.264  1.00  0.00    -0.262 N 
HETATM    8  H   UNL     1       5.968  30.770  58.732  1.00  0.00     0.190 HD
HETATM    9  O   UNL     1       8.828  30.054  59.938  1.00  0.00    -0.264 OA
BRANCH   7  10
HETATM   10  N   UNL     1       6.711  31.643  60.452  1.00  0.00    -0.274 N 
HETATM   11  H   UNL     1       7.104  31.172  61.266  1.00  0.00     0.189 HD
BRANCH  10  12
HETATM   12  C   UNL     1       5.645  32.486  60.633  1.00  0.00     0.186 C 
HETATM   13  S   UNL     1       4.111  32.234  60.008  1.00  0.00    -0.040 SA
BRANCH  12  14
HETATM   14  N   UNL     1       5.880  33.635  61.318  1.00  0.00    -0.364 N 
HETATM   15  H   UNL     1       6.764  34.080  61.091  1.00  0.00     0.162 HD
BRANCH  14  16
HETATM   16  C   UNL     1       5.240  34.142  62.529  1.00  0.00     0.154 C 
BRANCH  16  17
HETATM   17  C   UNL     1       5.342  33.170  63.718  1.00  0.00     0.139 C 
HETATM   18  O   UNL     1       4.390  33.553  64.732  1.00  0.00    -0.384 OA
HETATM   19  C   UNL     1       5.081  33.678  65.982  1.00  0.00     0.168 C 
HETATM   20  C   UNL     1       6.536  33.905  65.648  1.00  0.00     0.029 C 
HETATM   21  C   UNL     1       6.710  33.102  64.384  1.00  0.00     0.035 C 
ENDBRANCH  16  17
ENDBRANCH  14  16
ENDBRANCH  12  14
ENDBRANCH  10  12
ENDBRANCH   7  10
ENDBRANCH   3   6
BRANCH   1  22
HETATM   22  C   UNL     1       7.542  25.785  56.855  1.00  0.00     0.240 C 
BRANCH  22  23
HETATM   23  O   UNL     1       6.781  25.496  55.684  1.00  0.00    -0.345 OA
BRANCH  23  24
HETATM   24  C   UNL     1       7.185  24.423  54.936  1.00  0.00     0.069 A 
HETATM   25  C   UNL     1       7.525  24.457  53.573  1.00  0.00     0.037 A 
HETATM   26  C   UNL     1       7.944  23.296  52.911  1.00  0.00     0.010 A 
HETATM   27  C   UNL     1       8.025  22.118  53.631  1.00  0.00    -0.052 A 
HETATM   28  C   UNL     1       7.687  22.079  54.985  1.00  0.00    -0.049 A 
HETATM   29  C   UNL     1       8.403  20.756  53.137  1.00  0.00     0.039 C 
HETATM   30  C   UNL     1       7.268  23.221  55.647  1.00  0.00     0.044 A 
HETATM   31  C   UNL     1       7.795  20.688  55.524  1.00  0.00     0.039 C 
HETATM   32  C   UNL     1       8.681  20.025  54.459  1.00  0.00     0.009 C 
ENDBRANCH  23  24
ENDBRANCH  22  23
ENDBRANCH   1  22
TORSDOF 9
ENDMDL
MODEL 3
REMARK VINA RESULT:      -9.2      2.227      3.350
REMARK  9 active torsions:
REMARK  status: ('A' for Active; 'I' for Inactive)
REMARK    1  A    between atoms: C_2  and  O_3 
REMARK    2  A    between atoms: O_3  and  C_4 
REMARK    3  A    between atoms: C_4  and  C_5 
REMARK    4  A    between atoms: C_7  and  C_8 
REMARK       I    between atoms: C_8  and  N_9 
REMARK    5  A    between atoms: N_9  and  N_10 
REMARK    6  A    between atoms: N_10  and  C_11 
REMARK    7  A    between atoms: C_11  and  N_12 
REMARK    8  A    between atoms: N_12  and  C_13 
REMARK    9  A    between atoms: C_13  and  C_14 
ROOT
HETATM    1  C   UNL     1       8.296  27.786  57.429  1.00  0.00     0.078 A 
HETATM    2  O   UNL     1       7.879  28.694  58.355  1.00  0.00    -0.307 OA
HETATM    3  C   UNL     1       8.566  29.860  58.137  1.00  0.00     0.145 A 
HETATM    4  C   UNL     1       9.412  29.686  57.053  1.00  0.00     0.045 A 
HETATM    5  C   UNL     1       9.238  28.356  56.602  1.00  0.00     0.038 A 
ENDROOT
BRANCH   3   6
HETATM    6  C   UNL     1       8.311  30.980  59.022  1.00  0.00     0.293 C 
HETATM    7  N   UNL     1       7.337  30.749  59.982  1.00  0.00    -0.262 N 
HETATM    8  H   UNL     1       7.000  29.814  60.190  1.00  0.00     0.190 HD
HETATM    9  O   UNL     1       8.889  32.067  58.966  1.00  0.00    -0.264 OA
BRANCH   7  10
HETATM   10  N   UNL     1       7.131  31.720  60.981  1.00  0.00    -0.274 N 
HETATM   11  H   UNL     1       7.518  31.456  61.886  1.00  0.00     0.189 HD
BRANCH  10  12
HETATM   12  C   UNL     1       6.010  32.507  60.950  1.00  0.00     0.186 C 
HETATM   13  S   UNL     1       4.909  32.555  59.687  1.00  0.00    -0.040 SA
BRANCH  12  14
HETATM   14  N   UNL     1       5.822  33.349  61.999  1.00  0.00    -0.364 N 
HETATM   15  H   UNL     1       5.039  33.985  61.887  1.00  0.00     0.162 HD
BRANCH  14  16
HETATM   16  C   UNL     1       6.735  33.701  63.084  1.00  0.00     0.154 C 
BRANCH  16  17
HETATM   17  C   UNL     1       6.331  33.087  64.436  1.00  0.00     0.139 C 
HETATM   18  O   UNL     1       4.893  33.104  64.558  1.00  0.00    -0.384 OA
HETATM   19  C   UNL     1       4.549  33.730  65.800  1.00  0.00     0.168 C 
HETATM   20  C   UNL     1       5.730  34.584  66.194  1.00  0.00     0.029 C 
HETATM   21  C   UNL     1       6.897  33.791  65.662  1.00  0.00     0.035 C 
ENDBRANCH  16  17
ENDBRANCH  14  16
ENDBRANCH  12  14
ENDBRANCH  10  12
ENDBRANCH   7  10
ENDBRANCH   3   6
BRANCH   1  22
HETATM   22  C   UNL     1       7.689  26.431  57.492  1.00  0.00     0.240 C 
BRANCH  22  23
HETATM   23  O   UNL     1       7.603  25.972  56.145  1.00  0.00    -0.345 OA
BRANCH  23  24
HETATM   24  C   UNL     1       7.851  24.643  55.929  1.00  0.00     0.069 A 
HETATM   25  C   UNL     1       8.170  23.698  56.919  1.00  0.00     0.037 A 
HETATM   26  C   UNL     1       8.385  22.356  56.584  1.00  0.00     0.010 A 
HETATM   27  C   UNL     1       8.269  21.979  55.259  1.00  0.00    -0.052 A 
HETATM   28  C   UNL     1       7.954  22.915  54.271  1.00  0.00    -0.049 A 
HETATM   29  C   UNL     1       8.491  20.625  54.658  1.00  0.00     0.039 C 
HETATM   30  C   UNL     1       7.742  24.244  54.593  1.00  0.00     0.044 A 
HETATM   31  C   UNL     1       7.946  22.281  52.916  1.00  0.00     0.039 C 
HETATM   32  C   UNL     1       7.825  20.795  53.284  1.00  0.00     0.009 C 
ENDBRANCH  23  24
ENDBRANCH  22  23
ENDBRANCH   1  22
TORSDOF 9
ENDMDL
MODEL 4
REMARK VINA RESULT:      -9.1      2.262      2.906
REMARK  9 active torsions:
REMARK  status: ('A' for Active; 'I' for Inactive)
REMARK    1  A    between atoms: C_2  and  O_3 
REMARK    2  A    between atoms: O_3  and  C_4 
REMARK    3  A    between atoms: C_4  and  C_5 
REMARK    4  A    between atoms: C_7  and  C_8 
REMARK       I    between atoms: C_8  and  N_9 
REMARK    5  A    between atoms: N_9  and  N_10 
REMARK    6  A    between atoms: N_10  and  C_11 
REMARK    7  A    between atoms: C_11  and  N_12 
REMARK    8  A    between atoms: N_12  and  C_13 
REMARK    9  A    between atoms: C_13  and  C_14 
ROOT
HETATM    1  C   UNL     1       7.202  27.148  56.860  1.00  0.00     0.078 A 
HETATM    2  O   UNL     1       6.188  28.057  56.859  1.00  0.00    -0.307 OA
HETATM    3  C   UNL     1       6.730  29.288  57.126  1.00  0.00     0.145 A 
HETATM    4  C   UNL     1       8.100  29.151  57.282  1.00  0.00     0.045 A 
HETATM    5  C   UNL     1       8.401  27.778  57.112  1.00  0.00     0.038 A 
ENDROOT
BRANCH   3   6
HETATM    6  C   UNL     1       5.835  30.427  57.205  1.00  0.00     0.293 C 
HETATM    7  N   UNL     1       5.295  30.651  58.463  1.00  0.00    -0.262 N 
HETATM    8  H   UNL     1       5.666  30.203  59.295  1.00  0.00     0.190 HD
HETATM    9  O   UNL     1       5.549  31.164  56.261  1.00  0.00    -0.264 OA
BRANCH   7  10
HETATM   10  N   UNL     1       4.539  31.821  58.673  1.00  0.00    -0.274 N 
HETATM   11  H   UNL     1       4.541  32.452  57.873  1.00  0.00     0.189 HD
BRANCH  10  12
HETATM   12  C   UNL     1       4.442  32.356  59.931  1.00  0.00     0.186 C 
HETATM   13  S   UNL     1       3.546  33.717  60.326  1.00  0.00    -0.040 SA
BRANCH  12  14
HETATM   14  N   UNL     1       5.179  31.766  60.907  1.00  0.00    -0.364 N 
HETATM   15  H   UNL     1       4.836  30.854  61.193  1.00  0.00     0.162 HD
BRANCH  14  16
HETATM   16  C   UNL     1       6.161  32.354  61.815  1.00  0.00     0.154 C 
BRANCH  16  17
HETATM   17  C   UNL     1       7.584  32.377  61.231  1.00  0.00     0.139 C 
HETATM   18  O   UNL     1       7.691  31.381  60.191  1.00  0.00    -0.384 OA
HETATM   19  C   UNL     1       8.827  30.553  60.470  1.00  0.00     0.168 C 
HETATM   20  C   UNL     1       9.103  30.683  61.949  1.00  0.00     0.029 C 
HETATM   21  C   UNL     1       8.701  32.108  62.231  1.00  0.00     0.035 C 
ENDBRANCH  16  17
ENDBRANCH  14  16
ENDBRANCH  12  14
ENDBRANCH  10  12
ENDBRANCH   7  10
ENDBRANCH   3   6
BRANCH   1  22
HETATM   22  C   UNL     1       6.837  25.729  56.607  1.00  0.00     0.240 C 
BRANCH  22  23
HETATM   23  O   UNL     1       6.647  25.614  55.199  1.00  0.00    -0.345 OA
BRANCH  23  24
HETATM   24  C   UNL     1       7.062  24.448  54.614  1.00  0.00     0.069 A 
HETATM   25  C   UNL     1       7.366  24.279  53.253  1.00  0.00     0.037 A 
HETATM   26  C   UNL     1       7.802  23.040  52.766  1.00  0.00     0.010 A 
HETATM   27  C   UNL     1       7.936  21.990  53.656  1.00  0.00    -0.052 A 
HETATM   28  C   UNL     1       7.633  22.153  55.010  1.00  0.00    -0.049 A 
HETATM   29  C   UNL     1       8.341  20.578  53.367  1.00  0.00     0.039 C 
HETATM   30  C   UNL     1       7.198  23.373  55.499  1.00  0.00     0.044 A 
HETATM   31  C   UNL     1       7.795  20.866  55.754  1.00  0.00     0.039 C 
HETATM   32  C   UNL     1       8.673  20.069  54.778  1.00  0.00     0.009 C 
ENDBRANCH  23  24
ENDBRANCH  22  23
ENDBRANCH   1  22
TORSDOF 9
ENDMDL
MODEL 5
REMARK VINA RESULT:      -8.9      5.942      9.004
REMARK  9 active torsions:
REMARK  status: ('A' for Active; 'I' for Inactive)
REMARK    1  A    between atoms: C_2  and  O_3 
REMARK    2  A    between atoms: O_3  and  C_4 
REMARK    3  A    between atoms: C_4  and  C_5 
REMARK    4  A    between atoms: C_7  and  C_8 
REMARK       I    between atoms: C_8  and  N_9 
REMARK    5  A    between atoms: N_9  and  N_10 
REMARK    6  A    between atoms: N_10  and  C_11 
REMARK    7  A    between atoms: C_11  and  N_12 
REMARK    8  A    between atoms: N_12  and  C_13 
REMARK    9  A    between atoms: C_13  and  C_14 
ROOT
HETATM    1  C   UNL     1       6.235  28.240  53.936  1.00  0.00     0.078 A 
HETATM    2  O   UNL     1       5.401  28.501  52.890  1.00  0.00    -0.307 OA
HETATM    3  C   UNL     1       4.318  29.184  53.380  1.00  0.00     0.145 A 
HETATM    4  C   UNL     1       4.481  29.365  54.744  1.00  0.00     0.045 A 
HETATM    5  C   UNL     1       5.710  28.759  55.099  1.00  0.00     0.038 A 
ENDROOT
BRANCH   3   6
HETATM    6  C   UNL     1       3.267  29.555  52.452  1.00  0.00     0.293 C 
HETATM    7  N   UNL     1       2.581  28.485  51.897  1.00  0.00    -0.262 N 
HETATM    8  H   UNL     1       2.654  27.545  52.276  1.00  0.00     0.190 HD
HETATM    9  O   UNL     1       2.970  30.712  52.151  1.00  0.00    -0.264 OA
BRANCH   7  10
HETATM   10  N   UNL     1       1.446  28.748  51.107  1.00  0.00    -0.274 N 
HETATM   11  H   UNL     1       0.576  28.431  51.531  1.00  0.00     0.189 HD
BRANCH  10  12
HETATM   12  C   UNL     1       1.548  28.749  49.740  1.00  0.00     0.186 C 
HETATM   13  S   UNL     1       1.595  30.124  48.784  1.00  0.00    -0.040 SA
BRANCH  12  14
HETATM   14  N   UNL     1       1.549  27.537  49.125  1.00  0.00    -0.364 N 
HETATM   15  H   UNL     1       1.335  26.759  49.741  1.00  0.00     0.162 HD
BRANCH  14  16
HETATM   16  C   UNL     1       2.113  27.150  47.834  1.00  0.00     0.154 C 
BRANCH  16  17
HETATM   17  C   UNL     1       3.555  26.624  47.940  1.00  0.00     0.139 C 
HETATM   18  O   UNL     1       3.735  25.973  49.215  1.00  0.00    -0.384 OA
HETATM   19  C   UNL     1       4.888  26.535  49.854  1.00  0.00     0.168 C 
HETATM   20  C   UNL     1       5.104  27.895  49.235  1.00  0.00     0.029 C 
HETATM   21  C   UNL     1       4.642  27.683  47.815  1.00  0.00     0.035 C 
ENDBRANCH  16  17
ENDBRANCH  14  16
ENDBRANCH  12  14
ENDBRANCH  10  12
ENDBRANCH   7  10
ENDBRANCH   3   6
BRANCH   1  22
HETATM   22  C   UNL     1       7.478  27.483  53.635  1.00  0.00     0.240 C 
BRANCH  22  23
HETATM   23  O   UNL     1       7.066  26.284  52.985  1.00  0.00    -0.345 OA
BRANCH  23  24
HETATM   24  C   UNL     1       7.214  25.119  53.688  1.00  0.00     0.069 A 
HETATM   25  C   UNL     1       6.932  24.945  55.053  1.00  0.00     0.037 A 
HETATM   26  C   UNL     1       7.104  23.697  55.665  1.00  0.00     0.010 A 
HETATM   27  C   UNL     1       7.548  22.638  54.895  1.00  0.00    -0.052 A 
HETATM   28  C   UNL     1       7.831  22.807  53.537  1.00  0.00    -0.049 A 
HETATM   29  C   UNL     1       7.842  21.236  55.330  1.00  0.00     0.039 C 
HETATM   30  C   UNL     1       7.667  24.037  52.924  1.00  0.00     0.044 A 
HETATM   31  C   UNL     1       8.352  21.539  52.938  1.00  0.00     0.039 C 
HETATM   32  C   UNL     1       7.891  20.508  53.978  1.00  0.00     0.009 C 
ENDBRANCH  23  24
ENDBRANCH  22  23
ENDBRANCH   1  22
TORSDOF 9
ENDMDL
MODEL 6
REMARK VINA RESULT:      -8.9      5.345      8.981
REMARK  9 active torsions:
REMARK  status: ('A' for Active; 'I' for Inactive)
REMARK    1  A    between atoms: C_2  and  O_3 
REMARK    2  A    between atoms: O_3  and  C_4 
REMARK    3  A    between atoms: C_4  and  C_5 
REMARK    4  A    between atoms: C_7  and  C_8 
REMARK       I    between atoms: C_8  and  N_9 
REMARK    5  A    between atoms: N_9  and  N_10 
REMARK    6  A    between atoms: N_10  and  C_11 
REMARK    7  A    between atoms: C_11  and  N_12 
REMARK    8  A    between atoms: N_12  and  C_13 
REMARK    9  A    between atoms: C_13  and  C_14 
ROOT
HETATM    1  C   UNL     1       5.533  26.859  55.880  1.00  0.00     0.078 A 
HETATM    2  O   UNL     1       5.254  26.791  54.548  1.00  0.00    -0.307 OA
HETATM    3  C   UNL     1       4.428  27.840  54.239  1.00  0.00     0.145 A 
HETATM    4  C   UNL     1       4.199  28.583  55.387  1.00  0.00     0.045 A 
HETATM    5  C   UNL     1       4.907  27.952  56.437  1.00  0.00     0.038 A 
ENDROOT
BRANCH   3   6
HETATM    6  C   UNL     1       3.967  27.968  52.870  1.00  0.00     0.293 C 
HETATM    7  N   UNL     1       4.671  27.207  51.950  1.00  0.00    -0.262 N 
HETATM    8  H   UNL     1       5.298  26.460  52.237  1.00  0.00     0.190 HD
HETATM    9  O   UNL     1       3.029  28.680  52.507  1.00  0.00    -0.264 OA
BRANCH   7  10
HETATM   10  N   UNL     1       4.200  27.146  50.624  1.00  0.00    -0.274 N 
HETATM   11  H   UNL     1       3.714  26.277  50.407  1.00  0.00     0.189 HD
BRANCH  10  12
HETATM   12  C   UNL     1       4.888  27.780  49.622  1.00  0.00     0.186 C 
HETATM   13  S   UNL     1       5.557  29.312  49.743  1.00  0.00    -0.040 SA
BRANCH  12  14
HETATM   14  N   UNL     1       4.973  27.133  48.431  1.00  0.00    -0.364 N 
HETATM   15  H   UNL     1       5.662  27.523  47.795  1.00  0.00     0.162 HD
BRANCH  14  16
HETATM   16  C   UNL     1       4.035  26.202  47.810  1.00  0.00     0.154 C 
BRANCH  16  17
HETATM   17  C   UNL     1       2.845  26.905  47.134  1.00  0.00     0.139 C 
HETATM   18  O   UNL     1       3.167  28.297  46.928  1.00  0.00    -0.384 OA
HETATM   19  C   UNL     1       2.115  29.095  47.487  1.00  0.00     0.168 C 
HETATM   20  C   UNL     1       1.417  28.231  48.511  1.00  0.00     0.029 C 
HETATM   21  C   UNL     1       1.535  26.854  47.909  1.00  0.00     0.035 C 
ENDBRANCH  16  17
ENDBRANCH  14  16
ENDBRANCH  12  14
ENDBRANCH  10  12
ENDBRANCH   7  10
ENDBRANCH   3   6
BRANCH   1  22
HETATM   22  C   UNL     1       6.407  25.796  56.442  1.00  0.00     0.240 C 
BRANCH  22  23
HETATM   23  O   UNL     1       7.552  25.735  55.595  1.00  0.00    -0.345 OA
BRANCH  23  24
HETATM   24  C   UNL     1       7.695  24.608  54.831  1.00  0.00     0.069 A 
HETATM   25  C   UNL     1       7.814  24.578  53.431  1.00  0.00     0.037 A 
HETATM   26  C   UNL     1       7.976  23.364  52.753  1.00  0.00     0.010 A 
HETATM   27  C   UNL     1       8.024  22.196  53.492  1.00  0.00    -0.052 A 
HETATM   28  C   UNL     1       7.904  22.221  54.884  1.00  0.00    -0.049 A 
HETATM   29  C   UNL     1       8.148  20.790  52.993  1.00  0.00     0.039 C 
HETATM   30  C   UNL     1       7.741  23.417  55.562  1.00  0.00     0.044 A 
HETATM   31  C   UNL     1       7.925  20.835  55.448  1.00  0.00     0.039 C 
HETATM   32  C   UNL     1       8.541  20.050  54.281  1.00  0.00     0.009 C 
ENDBRANCH  23  24
ENDBRANCH  22  23
ENDBRANCH   1  22
TORSDOF 9
ENDMDL
MODEL 7
REMARK VINA RESULT:      -8.9      2.208      3.636
REMARK  9 active torsions:
REMARK  status: ('A' for Active; 'I' for Inactive)
REMARK    1  A    between atoms: C_2  and  O_3 
REMARK    2  A    between atoms: O_3  and  C_4 
REMARK    3  A    between atoms: C_4  and  C_5 
REMARK    4  A    between atoms: C_7  and  C_8 
REMARK       I    between atoms: C_8  and  N_9 
REMARK    5  A    between atoms: N_9  and  N_10 
REMARK    6  A    between atoms: N_10  and  C_11 
REMARK    7  A    between atoms: C_11  and  N_12 
REMARK    8  A    between atoms: N_12  and  C_13 
REMARK    9  A    between atoms: C_13  and  C_14 
ROOT
HETATM    1  C   UNL     1       8.212  28.381  57.367  1.00  0.00     0.078 A 
HETATM    2  O   UNL     1       8.100  28.984  58.584  1.00  0.00    -0.307 OA
HETATM    3  C   UNL     1       9.005  30.012  58.627  1.00  0.00     0.145 A 
HETATM    4  C   UNL     1       9.681  30.065  57.418  1.00  0.00     0.045 A 
HETATM    5  C   UNL     1       9.172  29.019  56.613  1.00  0.00     0.038 A 
ENDROOT
BRANCH   3   6
HETATM    6  C   UNL     1       9.095  30.795  59.844  1.00  0.00     0.293 C 
HETATM    7  N   UNL     1       8.372  30.286  60.913  1.00  0.00    -0.262 N 
HETATM    8  H   UNL     1       8.003  29.340  60.910  1.00  0.00     0.190 HD
HETATM    9  O   UNL     1       9.748  31.833  59.968  1.00  0.00    -0.264 OA
BRANCH   7  10
HETATM   10  N   UNL     1       8.521  30.891  62.177  1.00  0.00    -0.274 N 
HETATM   11  H   UNL     1       9.076  30.336  62.826  1.00  0.00     0.189 HD
BRANCH  10  12
HETATM   12  C   UNL     1       7.523  31.685  62.677  1.00  0.00     0.186 C 
HETATM   13  S   UNL     1       7.734  32.861  63.852  1.00  0.00    -0.040 SA
BRANCH  12  14
HETATM   14  N   UNL     1       6.265  31.450  62.222  1.00  0.00    -0.364 N 
HETATM   15  H   UNL     1       6.202  31.331  61.215  1.00  0.00     0.162 HD
BRANCH  14  16
HETATM   16  C   UNL     1       4.981  31.660  62.886  1.00  0.00     0.154 C 
BRANCH  16  17
HETATM   17  C   UNL     1       4.164  32.809  62.270  1.00  0.00     0.139 C 
HETATM   18  O   UNL     1       4.906  33.392  61.178  1.00  0.00    -0.384 OA
HETATM   19  C   UNL     1       4.985  34.808  61.386  1.00  0.00     0.168 C 
HETATM   20  C   UNL     1       4.771  35.039  62.863  1.00  0.00     0.029 C 
HETATM   21  C   UNL     1       3.808  33.938  63.229  1.00  0.00     0.035 C 
ENDBRANCH  16  17
ENDBRANCH  14  16
ENDBRANCH  12  14
ENDBRANCH  10  12
ENDBRANCH   7  10
ENDBRANCH   3   6
BRANCH   1  22
HETATM   22  C   UNL     1       7.328  27.216  57.107  1.00  0.00     0.240 C 
BRANCH  22  23
HETATM   23  O   UNL     1       6.882  27.348  55.759  1.00  0.00    -0.345 OA
BRANCH  23  24
HETATM   24  C   UNL     1       7.196  26.328  54.903  1.00  0.00     0.069 A 
HETATM   25  C   UNL     1       7.562  26.474  53.554  1.00  0.00     0.037 A 
HETATM   26  C   UNL     1       7.881  25.356  52.775  1.00  0.00     0.010 A 
HETATM   27  C   UNL     1       7.837  24.105  53.363  1.00  0.00    -0.052 A 
HETATM   28  C   UNL     1       7.473  23.954  54.703  1.00  0.00    -0.049 A 
HETATM   29  C   UNL     1       8.094  22.774  52.728  1.00  0.00     0.039 C 
HETATM   30  C   UNL     1       7.152  25.054  55.481  1.00  0.00     0.044 A 
HETATM   31  C   UNL     1       7.440  22.510  55.090  1.00  0.00     0.039 C 
HETATM   32  C   UNL     1       8.278  21.883  53.966  1.00  0.00     0.009 C 
ENDBRANCH  23  24
ENDBRANCH  22  23
ENDBRANCH   1  22
TORSDOF 9
ENDMDL
MODEL 8
REMARK VINA RESULT:      -8.9      2.547      3.997
REMARK  9 active torsions:
REMARK  status: ('A' for Active; 'I' for Inactive)
REMARK    1  A    between atoms: C_2  and  O_3 
REMARK    2  A    between atoms: O_3  and  C_4 
REMARK    3  A    between atoms: C_4  and  C_5 
REMARK    4  A    between atoms: C_7  and  C_8 
REMARK       I    between atoms: C_8  and  N_9 
REMARK    5  A    between atoms: N_9  and  N_10 
REMARK    6  A    between atoms: N_10  and  C_11 
REMARK    7  A    between atoms: C_11  and  N_12 
REMARK    8  A    between atoms: N_12  and  C_13 
REMARK    9  A    between atoms: C_13  and  C_14 
ROOT
HETATM    1  C   UNL     1       8.438  28.152  57.285  1.00  0.00     0.078 A 
HETATM    2  O   UNL     1       8.095  28.789  58.440  1.00  0.00    -0.307 OA
HETATM    3  C   UNL     1       8.895  29.895  58.561  1.00  0.00     0.145 A 
HETATM    4  C   UNL     1       9.738  29.961  57.464  1.00  0.00     0.045 A 
HETATM    5  C   UNL     1       9.445  28.843  56.647  1.00  0.00     0.038 A 
ENDROOT
BRANCH   3   6
HETATM    6  C   UNL     1       8.735  30.729  59.736  1.00  0.00     0.293 C 
HETATM    7  N   UNL     1       7.575  30.494  60.458  1.00  0.00    -0.262 N 
HETATM    8  H   UNL     1       7.007  29.665  60.309  1.00  0.00     0.190 HD
HETATM    9  O   UNL     1       9.538  31.589  60.104  1.00  0.00    -0.264 OA
BRANCH   7  10
HETATM   10  N   UNL     1       7.407  31.145  61.696  1.00  0.00    -0.274 N 
HETATM   11  H   UNL     1       7.648  30.561  62.496  1.00  0.00     0.189 HD
BRANCH  10  12
HETATM   12  C   UNL     1       6.425  32.090  61.846  1.00  0.00     0.186 C 
HETATM   13  S   UNL     1       5.742  32.537  63.309  1.00  0.00    -0.040 SA
BRANCH  12  14
HETATM   14  N   UNL     1       5.937  32.652  60.709  1.00  0.00    -0.364 N 
HETATM   15  H   UNL     1       6.637  33.126  60.147  1.00  0.00     0.162 HD
BRANCH  14  16
HETATM   16  C   UNL     1       4.557  32.958  60.342  1.00  0.00     0.154 C 
BRANCH  16  17
HETATM   17  C   UNL     1       4.270  32.745  58.846  1.00  0.00     0.139 C 
HETATM   18  O   UNL     1       3.223  31.762  58.695  1.00  0.00    -0.384 OA
HETATM   19  C   UNL     1       3.680  30.746  57.793  1.00  0.00     0.168 C 
HETATM   20  C   UNL     1       5.189  30.802  57.809  1.00  0.00     0.029 C 
HETATM   21  C   UNL     1       5.457  32.271  58.018  1.00  0.00     0.035 C 
ENDBRANCH  16  17
ENDBRANCH  14  16
ENDBRANCH  12  14
ENDBRANCH  10  12
ENDBRANCH   7  10
ENDBRANCH   3   6
BRANCH   1  22
HETATM   22  C   UNL     1       7.702  26.903  56.959  1.00  0.00     0.240 C 
BRANCH  22  23
HETATM   23  O   UNL     1       7.324  27.011  55.589  1.00  0.00    -0.345 OA
BRANCH  23  24
HETATM   24  C   UNL     1       7.459  25.886  54.820  1.00  0.00     0.069 A 
HETATM   25  C   UNL     1       7.598  25.861  53.422  1.00  0.00     0.037 A 
HETATM   26  C   UNL     1       7.748  24.648  52.740  1.00  0.00     0.010 A 
HETATM   27  C   UNL     1       7.767  23.475  53.473  1.00  0.00    -0.052 A 
HETATM   28  C   UNL     1       7.628  23.495  54.863  1.00  0.00    -0.049 A 
HETATM   29  C   UNL     1       7.874  22.070  52.969  1.00  0.00     0.039 C 
HETATM   30  C   UNL     1       7.475  24.690  55.545  1.00  0.00     0.044 A 
HETATM   31  C   UNL     1       7.617  22.106  55.420  1.00  0.00     0.039 C 
HETATM   32  C   UNL     1       8.236  21.316  54.257  1.00  0.00     0.009 C 
ENDBRANCH  23  24
ENDBRANCH  22  23
ENDBRANCH   1  22
TORSDOF 9
ENDMDL
MODEL 9
REMARK VINA RESULT:      -8.8      2.306      3.002
REMARK  9 active torsions:
REMARK  status: ('A' for Active; 'I' for Inactive)
REMARK    1  A    between atoms: C_2  and  O_3 
REMARK    2  A    between atoms: O_3  and  C_4 
REMARK    3  A    between atoms: C_4  and  C_5 
REMARK    4  A    between atoms: C_7  and  C_8 
REMARK       I    between atoms: C_8  and  N_9 
REMARK    5  A    between atoms: N_9  and  N_10 
REMARK    6  A    between atoms: N_10  and  C_11 
REMARK    7  A    between atoms: C_11  and  N_12 
REMARK    8  A    between atoms: N_12  and  C_13 
REMARK    9  A    between atoms: C_13  and  C_14 
ROOT
HETATM    1  C   UNL     1       4.930  26.426  53.618  1.00  0.00     0.078 A 
HETATM    2  O   UNL     1       5.319  26.848  54.854  1.00  0.00    -0.307 OA
HETATM    3  C   UNL     1       4.886  28.139  55.010  1.00  0.00     0.145 A 
HETATM    4  C   UNL     1       4.206  28.526  53.867  1.00  0.00     0.045 A 
HETATM    5  C   UNL     1       4.236  27.428  52.975  1.00  0.00     0.038 A 
ENDROOT
BRANCH   3   6
HETATM    6  C   UNL     1       5.206  28.822  56.249  1.00  0.00     0.293 C 
HETATM    7  N   UNL     1       4.113  29.366  56.907  1.00  0.00    -0.262 N 
HETATM    8  H   UNL     1       3.159  29.114  56.665  1.00  0.00     0.190 HD
HETATM    9  O   UNL     1       6.339  28.935  56.720  1.00  0.00    -0.264 OA
BRANCH   7  10
HETATM   10  N   UNL     1       4.303  29.912  58.192  1.00  0.00    -0.274 N 
HETATM   11  H   UNL     1       3.671  29.526  58.892  1.00  0.00     0.189 HD
BRANCH  10  12
HETATM   12  C   UNL     1       4.721  31.210  58.329  1.00  0.00     0.186 C 
HETATM   13  S   UNL     1       3.721  32.552  58.238  1.00  0.00    -0.040 SA
BRANCH  12  14
HETATM   14  N   UNL     1       6.055  31.411  58.489  1.00  0.00    -0.364 N 
HETATM   15  H   UNL     1       6.637  30.728  58.015  1.00  0.00     0.162 HD
BRANCH  14  16
HETATM   16  C   UNL     1       6.760  32.229  59.473  1.00  0.00     0.154 C 
BRANCH  16  17
HETATM   17  C   UNL     1       8.127  31.646  59.872  1.00  0.00     0.139 C 
HETATM   18  O   UNL     1       9.178  32.474  59.330  1.00  0.00    -0.384 OA
HETATM   19  C   UNL     1      10.084  31.638  58.600  1.00  0.00     0.168 C 
HETATM   20  C   UNL     1       9.317  30.391  58.229  1.00  0.00     0.029 C 
HETATM   21  C   UNL     1       8.387  30.221  59.402  1.00  0.00     0.035 C 
ENDBRANCH  16  17
ENDBRANCH  14  16
ENDBRANCH  12  14
ENDBRANCH  10  12
ENDBRANCH   7  10
ENDBRANCH   3   6
BRANCH   1  22
HETATM   22  C   UNL     1       5.314  25.045  53.224  1.00  0.00     0.240 C 
BRANCH  22  23
HETATM   23  O   UNL     1       6.720  24.949  53.433  1.00  0.00    -0.345 OA
BRANCH  23  24
HETATM   24  C   UNL     1       7.224  23.699  53.671  1.00  0.00     0.069 A 
HETATM   25  C   UNL     1       7.597  22.765  52.689  1.00  0.00     0.037 A 
HETATM   26  C   UNL     1       8.121  21.519  53.050  1.00  0.00     0.010 A 
HETATM   27  C   UNL     1       8.273  21.229  54.394  1.00  0.00    -0.052 A 
HETATM   28  C   UNL     1       7.903  22.153  55.374  1.00  0.00    -0.049 A 
HETATM   29  C   UNL     1       8.768  19.962  55.018  1.00  0.00     0.039 C 
HETATM   30  C   UNL     1       7.381  23.388  55.026  1.00  0.00     0.044 A 
HETATM   31  C   UNL     1       8.103  21.590  56.745  1.00  0.00     0.039 C 
HETATM   32  C   UNL     1       9.066  20.430  56.450  1.00  0.00     0.009 C 
ENDBRANCH  23  24
ENDBRANCH  22  23
ENDBRANCH   1  22
TORSDOF 9
ENDMDL
MODEL 10
REMARK VINA RESULT:      -8.7      4.690      8.515
REMARK  9 active torsions:
REMARK  status: ('A' for Active; 'I' for Inactive)
REMARK    1  A    between atoms: C_2  and  O_3 
REMARK    2  A    between atoms: O_3  and  C_4 
REMARK    3  A    between atoms: C_4  and  C_5 
REMARK    4  A    between atoms: C_7  and  C_8 
REMARK       I    between atoms: C_8  and  N_9 
REMARK    5  A    between atoms: N_9  and  N_10 
REMARK    6  A    between atoms: N_10  and  C_11 
REMARK    7  A    between atoms: C_11  and  N_12 
REMARK    8  A    between atoms: N_12  and  C_13 
REMARK    9  A    between atoms: C_13  and  C_14 
ROOT
HETATM    1  C   UNL     1       7.982  26.934  56.766  1.00  0.00     0.078 A 
HETATM    2  O   UNL     1       7.248  26.847  55.622  1.00  0.00    -0.307 OA
HETATM    3  C   UNL     1       6.963  28.123  55.209  1.00  0.00     0.145 A 
HETATM    4  C   UNL     1       7.537  29.019  56.096  1.00  0.00     0.045 A 
HETATM    5  C   UNL     1       8.189  28.256  57.094  1.00  0.00     0.038 A 
ENDROOT
BRANCH   3   6
HETATM    6  C   UNL     1       6.160  28.292  54.013  1.00  0.00     0.293 C 
HETATM    7  N   UNL     1       6.566  27.525  52.932  1.00  0.00    -0.262 N 
HETATM    8  H   UNL     1       7.217  26.752  53.035  1.00  0.00     0.190 HD
HETATM    9  O   UNL     1       5.187  29.042  53.919  1.00  0.00    -0.264 OA
BRANCH   7  10
HETATM   10  N   UNL     1       5.757  27.505  51.778  1.00  0.00    -0.274 N 
HETATM   11  H   UNL     1       5.365  28.415  51.544  1.00  0.00     0.189 HD
BRANCH  10  12
HETATM   12  C   UNL     1       5.039  26.380  51.465  1.00  0.00     0.186 C 
HETATM   13  S   UNL     1       4.970  24.996  52.406  1.00  0.00    -0.040 SA
BRANCH  12  14
HETATM   14  N   UNL     1       4.391  26.379  50.271  1.00  0.00    -0.364 N 
HETATM   15  H   UNL     1       3.625  25.714  50.215  1.00  0.00     0.162 HD
BRANCH  14  16
HETATM   16  C   UNL     1       4.812  26.928  48.984  1.00  0.00     0.154 C 
BRANCH  16  17
HETATM   17  C   UNL     1       3.791  27.911  48.385  1.00  0.00     0.139 C 
HETATM   18  O   UNL     1       2.916  28.388  49.429  1.00  0.00    -0.384 OA
HETATM   19  C   UNL     1       1.559  28.185  49.014  1.00  0.00     0.168 C 
HETATM   20  C   UNL     1       1.587  27.098  47.966  1.00  0.00     0.029 C 
HETATM   21  C   UNL     1       2.909  27.339  47.283  1.00  0.00     0.035 C 
ENDBRANCH  16  17
ENDBRANCH  14  16
ENDBRANCH  12  14
ENDBRANCH  10  12
ENDBRANCH   7  10
ENDBRANCH   3   6
BRANCH   1  22
HETATM   22  C   UNL     1       8.390  25.656  57.405  1.00  0.00     0.240 C 
BRANCH  22  23
HETATM   23  O   UNL     1       7.359  24.717  57.111  1.00  0.00    -0.345 OA
BRANCH  23  24
HETATM   24  C   UNL     1       7.743  23.542  56.524  1.00  0.00     0.069 A 
HETATM   25  C   UNL     1       8.250  22.418  57.199  1.00  0.00     0.037 A 
HETATM   26  C   UNL     1       8.595  21.257  56.496  1.00  0.00     0.010 A 
HETATM   27  C   UNL     1       8.416  21.238  55.125  1.00  0.00    -0.052 A 
HETATM   28  C   UNL     1       7.914  22.353  54.449  1.00  0.00    -0.049 A 
HETATM   29  C   UNL     1       8.747  20.138  54.164  1.00  0.00     0.039 C 
HETATM   30  C   UNL     1       7.574  23.506  55.136  1.00  0.00     0.044 A 
HETATM   31  C   UNL     1       7.871  22.111  52.974  1.00  0.00     0.039 C 
HETATM   32  C   UNL     1       7.957  20.579  52.922  1.00  0.00     0.009 C 
ENDBRANCH  23  24
ENDBRANCH  22  23
ENDBRANCH   1  22
TORSDOF 9
ENDMDL
