MODEL 1
REMARK VINA RESULT:      -9.5      0.000      0.000
REMARK  4 active torsions:
REMARK  status: ('A' for Active; 'I' for Inactive)
REMARK    1  A    between atoms: O_2  and  C_3 
REMARK    2  A    between atoms: C_7  and  N_8 
REMARK       I    between atoms: N_8  and  C_9 
REMARK    3  A    between atoms: C_9  and  C_10 
REMARK    4  A    between atoms: C_12  and  C_13 
ROOT
HETATM    1  N   UNL     1       8.067  27.841  56.271  1.00  0.00    -0.323 N 
HETATM    2  C   UNL     1       7.868  26.536  56.692  1.00  0.00     0.256 C 
HETATM    3  O   UNL     1       7.983  26.118  57.837  1.00  0.00    -0.267 OA
HETATM    4  H   UNL     1       8.054  28.009  55.274  1.00  0.00     0.169 HD
ENDROOT
BRANCH   2   5
HETATM    5  C   UNL     1       7.510  25.564  55.617  1.00  0.00     0.033 A 
HETATM    6  C   UNL     1       7.902  24.226  55.778  1.00  0.00     0.029 A 
HETATM    7  C   UNL     1       7.579  23.263  54.812  1.00  0.00    -0.023 A 
HETATM    8  C   UNL     1       6.860  23.662  53.678  1.00  0.00     0.012 A 
HETATM    9  C   UNL     1       6.452  24.990  53.520  1.00  0.00     0.002 A 
HETATM   10  C   UNL     1       6.767  25.940  54.491  1.00  0.00     0.017 A 
BRANCH   7  11
HETATM   11  C   UNL     1       7.974  21.872  54.972  1.00  0.00    -0.002 A 
HETATM   12  C   UNL     1       8.266  21.015  53.928  1.00  0.00     0.153 A 
HETATM   13  O   UNL     1       8.620  19.788  54.393  1.00  0.00    -0.334 OA
HETATM   14  C   UNL     1       8.562  19.848  55.746  1.00  0.00     0.142 A 
HETATM   15  C   UNL     1       8.177  21.104  56.154  1.00  0.00     0.038 A 
ENDBRANCH   7  11
ENDBRANCH   2   5
BRANCH   1  16
HETATM   16  C   UNL     1       8.349  28.963  57.081  1.00  0.00     0.041 A 
HETATM   17  C   UNL     1       7.409  29.611  57.879  1.00  0.00     0.074 A 
HETATM   18  C   UNL     1       7.780  30.725  58.635  1.00  0.00     0.155 A 
HETATM   19  C   UNL     1       9.082  31.232  58.618  1.00  0.00     0.145 A 
HETATM   20  F   UNL     1       6.844  31.319  59.392  1.00  0.00    -0.203 F 
HETATM   21  C   UNL     1      10.013  30.574  57.819  1.00  0.00     0.155 A 
HETATM   22  C   UNL     1       9.658  29.454  57.060  1.00  0.00     0.074 A 
HETATM   23  F   UNL     1      11.287  30.984  57.741  1.00  0.00    -0.203 F 
BRANCH  19  24
HETATM   24  O   UNL     1       9.297  32.332  59.401  1.00  0.00    -0.350 OA
HETATM   25  C   UNL     1       9.626  32.111  60.766  1.00  0.00     0.210 C 
ENDBRANCH  19  24
ENDBRANCH   1  16
TORSDOF 4
ENDMDL
MODEL 2
REMARK VINA RESULT:      -9.2      1.664      2.474
REMARK  4 active torsions:
REMARK  status: ('A' for Active; 'I' for Inactive)
REMARK    1  A    between atoms: O_2  and  C_3 
REMARK    2  A    between atoms: C_7  and  N_8 
REMARK       I    between atoms: N_8  and  C_9 
REMARK    3  A    between atoms: C_9  and  C_10 
REMARK    4  A    between atoms: C_12  and  C_13 
ROOT
HETATM    1  N   UNL     1       7.760  27.316  55.876  1.00  0.00    -0.323 N 
HETATM    2  C   UNL     1       7.469  27.228  54.525  1.00  0.00     0.256 C 
HETATM    3  O   UNL     1       7.107  28.146  53.799  1.00  0.00    -0.267 OA
HETATM    4  H   UNL     1       7.928  26.448  56.367  1.00  0.00     0.169 HD
ENDROOT
BRANCH   2   5
HETATM    5  C   UNL     1       7.587  25.863  53.931  1.00  0.00     0.033 A 
HETATM    6  C   UNL     1       7.740  24.774  54.801  1.00  0.00     0.029 A 
HETATM    7  C   UNL     1       7.837  23.466  54.304  1.00  0.00    -0.023 A 
HETATM    8  C   UNL     1       7.783  23.268  52.918  1.00  0.00     0.012 A 
HETATM    9  C   UNL     1       7.614  24.348  52.047  1.00  0.00     0.002 A 
HETATM   10  C   UNL     1       7.507  25.644  52.550  1.00  0.00     0.017 A 
BRANCH   7  11
HETATM   11  C   UNL     1       7.988  22.329  55.197  1.00  0.00    -0.002 A 
HETATM   12  C   UNL     1       8.333  22.420  56.532  1.00  0.00     0.153 A 
HETATM   13  O   UNL     1       8.378  21.190  57.106  1.00  0.00    -0.334 OA
HETATM   14  C   UNL     1       8.056  20.293  56.142  1.00  0.00     0.142 A 
HETATM   15  C   UNL     1       7.802  20.937  54.954  1.00  0.00     0.038 A 
ENDBRANCH   7  11
ENDBRANCH   2   5
BRANCH   1  16
HETATM   16  C   UNL     1       7.789  28.485  56.666  1.00  0.00     0.041 A 
HETATM   17  C   UNL     1       8.953  29.075  57.153  1.00  0.00     0.074 A 
HETATM   18  C   UNL     1       8.880  30.225  57.941  1.00  0.00     0.155 A 
HETATM   19  C   UNL     1       7.660  30.818  58.276  1.00  0.00     0.145 A 
HETATM   20  F   UNL     1      10.027  30.762  58.389  1.00  0.00    -0.203 F 
HETATM   21  C   UNL     1       6.503  30.221  57.781  1.00  0.00     0.155 A 
HETATM   22  C   UNL     1       6.561  29.072  56.987  1.00  0.00     0.074 A 
HETATM   23  F   UNL     1       5.287  30.720  58.046  1.00  0.00    -0.203 F 
BRANCH  19  24
HETATM   24  O   UNL     1       7.743  31.934  59.061  1.00  0.00    -0.350 OA
HETATM   25  C   UNL     1       7.657  31.753  60.468  1.00  0.00     0.210 C 
ENDBRANCH  19  24
ENDBRANCH   1  16
TORSDOF 4
ENDMDL
MODEL 3
REMARK VINA RESULT:      -8.9      5.520      7.774
REMARK  4 active torsions:
REMARK  status: ('A' for Active; 'I' for Inactive)
REMARK    1  A    between atoms: O_2  and  C_3 
REMARK    2  A    between atoms: C_7  and  N_8 
REMARK       I    between atoms: N_8  and  C_9 
REMARK    3  A    between atoms: C_9  and  C_10 
REMARK    4  A    between atoms: C_12  and  C_13 
ROOT
HETATM    1  N   UNL     1       5.793  26.122  51.830  1.00  0.00    -0.323 N 
HETATM    2  C   UNL     1       5.283  26.223  53.114  1.00  0.00     0.256 C 
HETATM    3  O   UNL     1       4.380  26.965  53.480  1.00  0.00    -0.267 OA
HETATM    4  H   UNL     1       6.620  25.554  51.708  1.00  0.00     0.169 HD
ENDROOT
BRANCH   2   5
HETATM    5  C   UNL     1       5.940  25.355  54.135  1.00  0.00     0.033 A 
HETATM    6  C   UNL     1       6.493  24.137  53.712  1.00  0.00     0.029 A 
HETATM    7  C   UNL     1       7.140  23.288  54.621  1.00  0.00    -0.023 A 
HETATM    8  C   UNL     1       7.220  23.677  55.965  1.00  0.00     0.012 A 
HETATM    9  C   UNL     1       6.686  24.897  56.390  1.00  0.00     0.002 A 
HETATM   10  C   UNL     1       6.054  25.741  55.477  1.00  0.00     0.017 A 
BRANCH   7  11
HETATM   11  C   UNL     1       7.722  22.027  54.192  1.00  0.00    -0.002 A 
HETATM   12  C   UNL     1       7.981  20.958  55.028  1.00  0.00     0.153 A 
HETATM   13  O   UNL     1       8.509  19.916  54.334  1.00  0.00    -0.334 OA
HETATM   14  C   UNL     1       8.589  20.306  53.038  1.00  0.00     0.142 A 
HETATM   15  C   UNL     1       8.115  21.589  52.894  1.00  0.00     0.038 A 
ENDBRANCH   7  11
ENDBRANCH   2   5
BRANCH   1  16
HETATM   16  C   UNL     1       5.320  26.777  50.672  1.00  0.00     0.041 A 
HETATM   17  C   UNL     1       5.447  28.144  50.437  1.00  0.00     0.074 A 
HETATM   18  C   UNL     1       4.933  28.704  49.266  1.00  0.00     0.155 A 
HETATM   19  C   UNL     1       4.275  27.935  48.303  1.00  0.00     0.145 A 
HETATM   20  F   UNL     1       5.077  30.026  49.078  1.00  0.00    -0.203 F 
HETATM   21  C   UNL     1       4.157  26.570  48.548  1.00  0.00     0.155 A 
HETATM   22  C   UNL     1       4.671  25.993  49.714  1.00  0.00     0.074 A 
HETATM   23  F   UNL     1       3.545  25.751  47.681  1.00  0.00    -0.203 F 
BRANCH  19  24
HETATM   24  O   UNL     1       3.817  28.622  47.213  1.00  0.00    -0.350 OA
HETATM   25  C   UNL     1       2.424  28.898  47.150  1.00  0.00     0.210 C 
ENDBRANCH  19  24
ENDBRANCH   1  16
TORSDOF 4
ENDMDL
MODEL 4
REMARK VINA RESULT:      -8.5      5.561      8.782
REMARK  4 active torsions:
REMARK  status: ('A' for Active; 'I' for Inactive)
REMARK    1  A    between atoms: O_2  and  C_3 
REMARK    2  A    between atoms: C_7  and  N_8 
REMARK       I    between atoms: N_8  and  C_9 
REMARK    3  A    between atoms: C_9  and  C_10 
REMARK    4  A    between atoms: C_12  and  C_13 
ROOT
HETATM    1  N   UNL     1       7.069  24.725  52.390  1.00  0.00    -0.323 N 
HETATM    2  C   UNL     1       5.764  25.175  52.507  1.00  0.00     0.256 C 
HETATM    3  O   UNL     1       4.908  24.729  53.261  1.00  0.00    -0.267 OA
HETATM    4  H   UNL     1       7.621  25.112  51.637  1.00  0.00     0.169 HD
ENDROOT
BRANCH   2   5
HETATM    5  C   UNL     1       5.385  26.290  51.591  1.00  0.00     0.033 A 
HETATM    6  C   UNL     1       4.599  25.987  50.469  1.00  0.00     0.029 A 
HETATM    7  C   UNL     1       4.196  26.995  49.581  1.00  0.00    -0.023 A 
HETATM    8  C   UNL     1       4.597  28.314  49.834  1.00  0.00     0.012 A 
HETATM    9  C   UNL     1       5.366  28.625  50.959  1.00  0.00     0.002 A 
HETATM   10  C   UNL     1       5.753  27.618  51.843  1.00  0.00     0.017 A 
BRANCH   7  11
HETATM   11  C   UNL     1       3.376  26.693  48.419  1.00  0.00    -0.002 A 
HETATM   12  C   UNL     1       3.614  25.655  47.539  1.00  0.00     0.153 A 
HETATM   13  O   UNL     1       2.667  25.617  46.566  1.00  0.00    -0.334 OA
HETATM   14  C   UNL     1       1.805  26.633  46.816  1.00  0.00     0.142 A 
HETATM   15  C   UNL     1       2.189  27.321  47.943  1.00  0.00     0.038 A 
ENDBRANCH   7  11
ENDBRANCH   2   5
BRANCH   1  16
HETATM   16  C   UNL     1       7.701  23.734  53.172  1.00  0.00     0.041 A 
HETATM   17  C   UNL     1       7.904  22.420  52.758  1.00  0.00     0.074 A 
HETATM   18  C   UNL     1       8.527  21.505  53.609  1.00  0.00     0.155 A 
HETATM   19  C   UNL     1       8.957  21.859  54.890  1.00  0.00     0.145 A 
HETATM   20  F   UNL     1       8.704  20.248  53.170  1.00  0.00    -0.203 F 
HETATM   21  C   UNL     1       8.751  23.176  55.292  1.00  0.00     0.155 A 
HETATM   22  C   UNL     1       8.133  24.105  54.448  1.00  0.00     0.074 A 
HETATM   23  F   UNL     1       9.134  23.610  56.501  1.00  0.00    -0.203 F 
BRANCH  19  24
HETATM   24  O   UNL     1       9.542  20.856  55.614  1.00  0.00    -0.350 OA
HETATM   25  C   UNL     1       8.762  20.241  56.630  1.00  0.00     0.210 C 
ENDBRANCH  19  24
ENDBRANCH   1  16
TORSDOF 4
ENDMDL
MODEL 5
REMARK VINA RESULT:      -8.4      2.070      4.195
REMARK  4 active torsions:
REMARK  status: ('A' for Active; 'I' for Inactive)
REMARK    1  A    between atoms: O_2  and  C_3 
REMARK    2  A    between atoms: C_7  and  N_8 
REMARK       I    between atoms: N_8  and  C_9 
REMARK    3  A    between atoms: C_9  and  C_10 
REMARK    4  A    between atoms: C_12  and  C_13 
ROOT
HETATM    1  N   UNL     1       7.993  28.109  56.316  1.00  0.00    -0.323 N 
HETATM    2  C   UNL     1       7.872  26.778  56.680  1.00  0.00     0.256 C 
HETATM    3  O   UNL     1       8.196  26.287  57.755  1.00  0.00    -0.267 OA
HETATM    4  H   UNL     1       7.797  28.341  55.352  1.00  0.00     0.169 HD
ENDROOT
BRANCH   2   5
HETATM    5  C   UNL     1       7.321  25.873  55.629  1.00  0.00     0.033 A 
HETATM    6  C   UNL     1       6.704  26.456  54.511  1.00  0.00     0.029 A 
HETATM    7  C   UNL     1       6.184  25.659  53.482  1.00  0.00    -0.023 A 
HETATM    8  C   UNL     1       6.287  24.266  53.593  1.00  0.00     0.012 A 
HETATM    9  C   UNL     1       6.914  23.680  54.695  1.00  0.00     0.002 A 
HETATM   10  C   UNL     1       7.440  24.480  55.710  1.00  0.00     0.017 A 
BRANCH   7  11
HETATM   11  C   UNL     1       5.549  26.252  52.316  1.00  0.00    -0.002 A 
HETATM   12  C   UNL     1       4.910  27.477  52.309  1.00  0.00     0.153 A 
HETATM   13  O   UNL     1       4.434  27.769  51.070  1.00  0.00    -0.334 OA
HETATM   14  C   UNL     1       4.769  26.730  50.265  1.00  0.00     0.142 A 
HETATM   15  C   UNL     1       5.459  25.776  50.976  1.00  0.00     0.038 A 
ENDBRANCH   7  11
ENDBRANCH   2   5
BRANCH   1  16
HETATM   16  C   UNL     1       8.423  29.179  57.132  1.00  0.00     0.041 A 
HETATM   17  C   UNL     1       9.724  29.676  57.153  1.00  0.00     0.074 A 
HETATM   18  C   UNL     1      10.058  30.729  58.006  1.00  0.00     0.155 A 
HETATM   19  C   UNL     1       9.122  31.314  58.864  1.00  0.00     0.145 A 
HETATM   20  F   UNL     1      11.323  31.179  57.995  1.00  0.00    -0.203 F 
HETATM   21  C   UNL     1       7.824  30.811  58.832  1.00  0.00     0.155 A 
HETATM   22  C   UNL     1       7.474  29.759  57.979  1.00  0.00     0.074 A 
HETATM   23  F   UNL     1       6.858  31.309  59.615  1.00  0.00    -0.203 F 
BRANCH  19  24
HETATM   24  O   UNL     1       9.595  32.330  59.648  1.00  0.00    -0.350 OA
HETATM   25  C   UNL     1       9.689  32.090  61.045  1.00  0.00     0.210 C 
ENDBRANCH  19  24
ENDBRANCH   1  16
TORSDOF 4
ENDMDL
MODEL 6
REMARK VINA RESULT:      -8.3      5.522      7.611
REMARK  4 active torsions:
REMARK  status: ('A' for Active; 'I' for Inactive)
REMARK    1  A    between atoms: O_2  and  C_3 
REMARK    2  A    between atoms: C_7  and  N_8 
REMARK       I    between atoms: N_8  and  C_9 
REMARK    3  A    between atoms: C_9  and  C_10 
REMARK    4  A    between atoms: C_12  and  C_13 
ROOT
HETATM    1  N   UNL     1       5.421  26.213  51.880  1.00  0.00    -0.323 N 
HETATM    2  C   UNL     1       6.538  25.436  52.145  1.00  0.00     0.256 C 
HETATM    3  O   UNL     1       7.420  25.140  51.349  1.00  0.00    -0.267 OA
HETATM    4  H   UNL     1       4.719  26.268  52.605  1.00  0.00     0.169 HD
ENDROOT
BRANCH   2   5
HETATM    5  C   UNL     1       6.629  24.897  53.533  1.00  0.00     0.033 A 
HETATM    6  C   UNL     1       7.209  23.633  53.716  1.00  0.00     0.029 A 
HETATM    7  C   UNL     1       7.340  23.082  54.998  1.00  0.00    -0.023 A 
HETATM    8  C   UNL     1       6.876  23.817  56.097  1.00  0.00     0.012 A 
HETATM    9  C   UNL     1       6.312  25.084  55.924  1.00  0.00     0.002 A 
HETATM   10  C   UNL     1       6.196  25.630  54.645  1.00  0.00     0.017 A 
BRANCH   7  11
HETATM   11  C   UNL     1       7.946  21.775  55.200  1.00  0.00    -0.002 A 
HETATM   12  C   UNL     1       8.020  20.788  54.237  1.00  0.00     0.153 A 
HETATM   13  O   UNL     1       8.658  19.688  54.716  1.00  0.00    -0.334 OA
HETATM   14  C   UNL     1       9.006  19.963  55.998  1.00  0.00     0.142 A 
HETATM   15  C   UNL     1       8.599  21.231  56.343  1.00  0.00     0.038 A 
ENDBRANCH   7  11
ENDBRANCH   2   5
BRANCH   1  16
HETATM   16  C   UNL     1       5.122  26.891  50.679  1.00  0.00     0.041 A 
HETATM   17  C   UNL     1       4.581  26.283  49.548  1.00  0.00     0.074 A 
HETATM   18  C   UNL     1       4.333  27.036  48.398  1.00  0.00     0.155 A 
HETATM   19  C   UNL     1       4.617  28.403  48.331  1.00  0.00     0.145 A 
HETATM   20  F   UNL     1       3.811  26.411  47.330  1.00  0.00    -0.203 F 
HETATM   21  C   UNL     1       5.155  29.000  49.469  1.00  0.00     0.155 A 
HETATM   22  C   UNL     1       5.404  28.259  50.629  1.00  0.00     0.074 A 
HETATM   23  F   UNL     1       5.457  30.305  49.501  1.00  0.00    -0.203 F 
BRANCH  19  24
HETATM   24  O   UNL     1       4.330  29.007  47.139  1.00  0.00    -0.350 OA
HETATM   25  C   UNL     1       3.065  29.642  47.014  1.00  0.00     0.210 C 
ENDBRANCH  19  24
ENDBRANCH   1  16
TORSDOF 4
ENDMDL
MODEL 7
REMARK VINA RESULT:      -8.3      3.217      8.590
REMARK  4 active torsions:
REMARK  status: ('A' for Active; 'I' for Inactive)
REMARK    1  A    between atoms: O_2  and  C_3 
REMARK    2  A    between atoms: C_7  and  N_8 
REMARK       I    between atoms: N_8  and  C_9 
REMARK    3  A    between atoms: C_9  and  C_10 
REMARK    4  A    between atoms: C_12  and  C_13 
ROOT
HETATM    1  N   UNL     1       7.121  26.406  55.738  1.00  0.00    -0.323 N 
HETATM    2  C   UNL     1       6.005  26.632  56.527  1.00  0.00     0.256 C 
HETATM    3  O   UNL     1       5.180  25.796  56.874  1.00  0.00    -0.267 OA
HETATM    4  H   UNL     1       7.640  27.218  55.435  1.00  0.00     0.169 HD
ENDROOT
BRANCH   2   5
HETATM    5  C   UNL     1       5.797  28.047  56.954  1.00  0.00     0.033 A 
HETATM    6  C   UNL     1       6.900  28.756  57.454  1.00  0.00     0.029 A 
HETATM    7  C   UNL     1       6.772  30.094  57.853  1.00  0.00    -0.023 A 
HETATM    8  C   UNL     1       5.518  30.711  57.746  1.00  0.00     0.012 A 
HETATM    9  C   UNL     1       4.420  30.015  57.233  1.00  0.00     0.002 A 
HETATM   10  C   UNL     1       4.558  28.688  56.827  1.00  0.00     0.017 A 
BRANCH   7  11
HETATM   11  C   UNL     1       7.909  30.841  58.367  1.00  0.00    -0.002 A 
HETATM   12  C   UNL     1       7.814  31.952  59.183  1.00  0.00     0.153 A 
HETATM   13  O   UNL     1       9.046  32.418  59.512  1.00  0.00    -0.334 OA
HETATM   14  C   UNL     1       9.949  31.603  58.912  1.00  0.00     0.142 A 
HETATM   15  C   UNL     1       9.306  30.617  58.202  1.00  0.00     0.038 A 
ENDBRANCH   7  11
ENDBRANCH   2   5
BRANCH   1  16
HETATM   16  C   UNL     1       7.583  25.163  55.254  1.00  0.00     0.041 A 
HETATM   17  C   UNL     1       8.095  24.149  56.060  1.00  0.00     0.074 A 
HETATM   18  C   UNL     1       8.543  22.956  55.487  1.00  0.00     0.155 A 
HETATM   19  C   UNL     1       8.505  22.737  54.107  1.00  0.00     0.145 A 
HETATM   20  F   UNL     1       9.028  22.004  56.300  1.00  0.00    -0.203 F 
HETATM   21  C   UNL     1       7.989  23.757  53.312  1.00  0.00     0.155 A 
HETATM   22  C   UNL     1       7.532  24.955  53.873  1.00  0.00     0.074 A 
HETATM   23  F   UNL     1       7.909  23.638  51.980  1.00  0.00    -0.203 F 
BRANCH  19  24
HETATM   24  O   UNL     1       8.986  21.527  53.689  1.00  0.00    -0.350 OA
HETATM   25  C   UNL     1       8.041  20.569  53.234  1.00  0.00     0.210 C 
ENDBRANCH  19  24
ENDBRANCH   1  16
TORSDOF 4
ENDMDL
MODEL 8
REMARK VINA RESULT:      -7.8      5.905      8.862
REMARK  4 active torsions:
REMARK  status: ('A' for Active; 'I' for Inactive)
REMARK    1  A    between atoms: O_2  and  C_3 
REMARK    2  A    between atoms: C_7  and  N_8 
REMARK       I    between atoms: N_8  and  C_9 
REMARK    3  A    between atoms: C_9  and  C_10 
REMARK    4  A    between atoms: C_12  and  C_13 
ROOT
HETATM    1  N   UNL     1       5.509  26.441  51.345  1.00  0.00    -0.323 N 
HETATM    2  C   UNL     1       5.310  25.232  51.991  1.00  0.00     0.256 C 
HETATM    3  O   UNL     1       4.399  24.440  51.783  1.00  0.00    -0.267 OA
HETATM    4  H   UNL     1       6.234  27.043  51.710  1.00  0.00     0.169 HD
ENDROOT
BRANCH   2   5
HETATM    5  C   UNL     1       6.299  24.906  53.060  1.00  0.00     0.033 A 
HETATM    6  C   UNL     1       6.485  25.834  54.095  1.00  0.00     0.029 A 
HETATM    7  C   UNL     1       7.386  25.576  55.138  1.00  0.00    -0.023 A 
HETATM    8  C   UNL     1       8.103  24.371  55.124  1.00  0.00     0.012 A 
HETATM    9  C   UNL     1       7.910  23.435  54.105  1.00  0.00     0.002 A 
HETATM   10  C   UNL     1       7.002  23.695  53.077  1.00  0.00     0.017 A 
BRANCH   7  11
HETATM   11  C   UNL     1       7.582  26.528  56.220  1.00  0.00    -0.002 A 
HETATM   12  C   UNL     1       7.683  26.187  57.555  1.00  0.00     0.153 A 
HETATM   13  O   UNL     1       7.880  27.290  58.323  1.00  0.00    -0.334 OA
HETATM   14  C   UNL     1       7.913  28.355  57.483  1.00  0.00     0.142 A 
HETATM   15  C   UNL     1       7.740  27.943  56.182  1.00  0.00     0.038 A 
ENDBRANCH   7  11
ENDBRANCH   2   5
BRANCH   1  16
HETATM   16  C   UNL     1       4.765  26.961  50.263  1.00  0.00     0.041 A 
HETATM   17  C   UNL     1       4.232  28.247  50.223  1.00  0.00     0.074 A 
HETATM   18  C   UNL     1       3.496  28.667  49.113  1.00  0.00     0.155 A 
HETATM   19  C   UNL     1       3.261  27.829  48.019  1.00  0.00     0.145 A 
HETATM   20  F   UNL     1       3.000  29.915  49.114  1.00  0.00    -0.203 F 
HETATM   21  C   UNL     1       3.802  26.546  48.070  1.00  0.00     0.155 A 
HETATM   22  C   UNL     1       4.545  26.114  49.173  1.00  0.00     0.074 A 
HETATM   23  F   UNL     1       3.632  25.673  47.067  1.00  0.00    -0.203 F 
BRANCH  19  24
HETATM   24  O   UNL     1       2.517  28.373  47.009  1.00  0.00    -0.350 OA
HETATM   25  C   UNL     1       1.155  27.980  46.915  1.00  0.00     0.210 C 
ENDBRANCH  19  24
ENDBRANCH   1  16
TORSDOF 4
ENDMDL
MODEL 9
REMARK VINA RESULT:      -7.7      5.018      8.871
REMARK  4 active torsions:
REMARK  status: ('A' for Active; 'I' for Inactive)
REMARK    1  A    between atoms: O_2  and  C_3 
REMARK    2  A    between atoms: C_7  and  N_8 
REMARK       I    between atoms: N_8  and  C_9 
REMARK    3  A    between atoms: C_9  and  C_10 
REMARK    4  A    between atoms: C_12  and  C_13 
ROOT
HETATM    1  N   UNL     1       6.833  25.073  52.560  1.00  0.00    -0.323 N 
HETATM    2  C   UNL     1       5.486  25.377  52.667  1.00  0.00     0.256 C 
HETATM    3  O   UNL     1       4.655  24.767  53.328  1.00  0.00    -0.267 OA
HETATM    4  H   UNL     1       7.369  25.596  51.881  1.00  0.00     0.169 HD
ENDROOT
BRANCH   2   5
HETATM    5  C   UNL     1       5.027  26.548  51.864  1.00  0.00     0.033 A 
HETATM    6  C   UNL     1       4.550  27.675  52.549  1.00  0.00     0.029 A 
HETATM    7  C   UNL     1       4.122  28.813  51.850  1.00  0.00    -0.023 A 
HETATM    8  C   UNL     1       4.177  28.802  50.449  1.00  0.00     0.012 A 
HETATM    9  C   UNL     1       4.667  27.688  49.762  1.00  0.00     0.002 A 
HETATM   10  C   UNL     1       5.101  26.565  50.465  1.00  0.00     0.017 A 
BRANCH   7  11
HETATM   11  C   UNL     1       3.632  29.989  52.550  1.00  0.00    -0.002 A 
HETATM   12  C   UNL     1       3.616  30.134  53.924  1.00  0.00     0.153 A 
HETATM   13  O   UNL     1       3.118  31.347  54.278  1.00  0.00    -0.334 OA
HETATM   14  C   UNL     1       2.812  31.998  53.128  1.00  0.00     0.142 A 
HETATM   15  C   UNL     1       3.112  31.214  52.040  1.00  0.00     0.038 A 
ENDBRANCH   7  11
ENDBRANCH   2   5
BRANCH   1  16
HETATM   16  C   UNL     1       7.536  24.065  53.255  1.00  0.00     0.041 A 
HETATM   17  C   UNL     1       7.775  22.788  52.754  1.00  0.00     0.074 A 
HETATM   18  C   UNL     1       8.468  21.851  53.524  1.00  0.00     0.155 A 
HETATM   19  C   UNL     1       8.936  22.146  54.807  1.00  0.00     0.145 A 
HETATM   20  F   UNL     1       8.677  20.631  53.003  1.00  0.00    -0.203 F 
HETATM   21  C   UNL     1       8.694  23.428  55.296  1.00  0.00     0.155 A 
HETATM   22  C   UNL     1       8.005  24.378  54.534  1.00  0.00     0.074 A 
HETATM   23  F   UNL     1       9.108  23.805  56.514  1.00  0.00    -0.203 F 
BRANCH  19  24
HETATM   24  O   UNL     1       9.590  21.129  55.445  1.00  0.00    -0.350 OA
HETATM   25  C   UNL     1       8.855  20.376  56.401  1.00  0.00     0.210 C 
ENDBRANCH  19  24
ENDBRANCH   1  16
TORSDOF 4
ENDMDL
MODEL 10
REMARK VINA RESULT:      -7.6      5.348      8.755
REMARK  4 active torsions:
REMARK  status: ('A' for Active; 'I' for Inactive)
REMARK    1  A    between atoms: O_2  and  C_3 
REMARK    2  A    between atoms: C_7  and  N_8 
REMARK       I    between atoms: N_8  and  C_9 
REMARK    3  A    between atoms: C_9  and  C_10 
REMARK    4  A    between atoms: C_12  and  C_13 
ROOT
HETATM    1  N   UNL     1       6.613  25.485  52.219  1.00  0.00    -0.323 N 
HETATM    2  C   UNL     1       5.348  25.429  51.657  1.00  0.00     0.256 C 
HETATM    3  O   UNL     1       4.471  24.617  51.923  1.00  0.00    -0.267 OA
HETATM    4  H   UNL     1       7.269  26.136  51.809  1.00  0.00     0.169 HD
ENDROOT
BRANCH   2   5
HETATM    5  C   UNL     1       5.068  26.450  50.605  1.00  0.00     0.033 A 
HETATM    6  C   UNL     1       5.234  27.804  50.935  1.00  0.00     0.029 A 
HETATM    7  C   UNL     1       5.004  28.808  49.985  1.00  0.00    -0.023 A 
HETATM    8  C   UNL     1       4.600  28.435  48.696  1.00  0.00     0.012 A 
HETATM    9  C   UNL     1       4.450  27.088  48.355  1.00  0.00     0.002 A 
HETATM   10  C   UNL     1       4.691  26.094  49.304  1.00  0.00     0.017 A 
BRANCH   7  11
HETATM   11  C   UNL     1       5.180  30.214  50.314  1.00  0.00    -0.002 A 
HETATM   12  C   UNL     1       6.043  31.071  49.660  1.00  0.00     0.153 A 
HETATM   13  O   UNL     1       5.972  32.323  50.181  1.00  0.00    -0.334 OA
HETATM   14  C   UNL     1       5.054  32.282  51.179  1.00  0.00     0.142 A 
HETATM   15  C   UNL     1       4.533  31.015  51.299  1.00  0.00     0.038 A 
ENDBRANCH   7  11
ENDBRANCH   2   5
BRANCH   1  16
HETATM   16  C   UNL     1       7.114  24.686  53.269  1.00  0.00     0.041 A 
HETATM   17  C   UNL     1       6.801  24.871  54.614  1.00  0.00     0.074 A 
HETATM   18  C   UNL     1       7.360  24.036  55.585  1.00  0.00     0.155 A 
HETATM   19  C   UNL     1       8.244  23.006  55.256  1.00  0.00     0.145 A 
HETATM   20  F   UNL     1       7.031  24.249  56.869  1.00  0.00    -0.203 F 
HETATM   21  C   UNL     1       8.547  22.829  53.909  1.00  0.00     0.155 A 
HETATM   22  C   UNL     1       7.992  23.654  52.925  1.00  0.00     0.074 A 
HETATM   23  F   UNL     1       9.382  21.865  53.497  1.00  0.00    -0.203 F 
BRANCH  19  24
HETATM   24  O   UNL     1       8.718  22.277  56.312  1.00  0.00    -0.350 OA
HETATM   25  C   UNL     1       8.232  20.950  56.462  1.00  0.00     0.210 C 
ENDBRANCH  19  24
ENDBRANCH   1  16
TORSDOF 4
ENDMDL
