MODEL 1
REMARK VINA RESULT:      -9.0      0.000      0.000
REMARK  4 active torsions:
REMARK  status: ('A' for Active; 'I' for Inactive)
REMARK    1  A    between atoms: N_4  and  C_5 
REMARK    2  A    between atoms: C_16  and  C_17 
REMARK    3  A    between atoms: C_24  and  C_25 
REMARK    4  A    between atoms: C_25  and  O_26 
ROOT
HETATM    1  C   UNL     1      11.163  29.535  57.011  1.00  0.00     0.073 C 
HETATM    2  C   UNL     1       9.758  29.694  57.462  1.00  0.00     0.065 A 
HETATM    3  N   UNL     1       9.421  30.708  58.263  1.00  0.00    -0.170 NA
HETATM    4  N   UNL     1       8.082  30.556  58.497  1.00  0.00    -0.215 N 
HETATM    5  C   UNL     1       7.574  29.456  57.803  1.00  0.00     0.165 A 
HETATM    6  C   UNL     1       8.653  28.870  57.155  1.00  0.00     0.039 A 
HETATM    7  N   UNL     1       6.301  29.002  57.769  1.00  0.00    -0.216 NA
HETATM    8  C   UNL     1       6.131  27.870  57.053  1.00  0.00     0.137 A 
HETATM    9 CL   UNL     1       4.483  27.360  57.095  1.00  0.00    -0.062 Cl
HETATM   10  C   UNL     1       7.124  27.164  56.374  1.00  0.00     0.011 A 
HETATM   11  C   UNL     1       8.428  27.695  56.419  1.00  0.00     0.030 A 
ENDROOT
BRANCH  10  12
HETATM   12  C   UNL     1       6.861  25.857  55.651  1.00  0.00     0.164 C 
HETATM   13  N   UNL     1       7.774  24.856  56.182  1.00  0.00    -0.330 N 
HETATM   14  C   UNL     1       8.380  23.891  55.449  1.00  0.00     0.321 C 
HETATM   15  H   UNL     1       7.803  24.693  57.180  1.00  0.00     0.165 HD
HETATM   16  O   UNL     1       8.991  22.972  55.981  1.00  0.00    -0.247 OA
HETATM   17  N   UNL     1       8.296  24.018  54.097  1.00  0.00    -0.312 N 
HETATM   18  C   UNL     1       7.640  25.024  53.427  1.00  0.00     0.024 C 
HETATM   19  H   UNL     1       8.792  23.300  53.580  1.00  0.00     0.170 HD
HETATM   20  C   UNL     1       7.722  24.953  51.926  1.00  0.00     0.069 C 
HETATM   21  C   UNL     1       6.956  25.932  54.149  1.00  0.00     0.067 C 
BRANCH  21  22
HETATM   22  C   UNL     1       6.236  27.035  53.476  1.00  0.00     0.293 C 
HETATM   23  O   UNL     1       6.768  28.051  53.060  1.00  0.00    -0.259 OA
BRANCH  22  24
HETATM   24  O   UNL     1       4.918  26.732  53.406  1.00  0.00    -0.323 OA
HETATM   25  C   UNL     1       4.067  27.874  53.286  1.00  0.00     0.213 C 
ENDBRANCH  22  24
ENDBRANCH  21  22
ENDBRANCH  10  12
BRANCH   4  26
HETATM   26  C   UNL     1       7.414  31.456  59.385  1.00  0.00     0.060 A 
HETATM   27  C   UNL     1       7.964  31.695  60.658  1.00  0.00     0.031 A 
HETATM   28  C   UNL     1       7.322  32.545  61.562  1.00  0.00     0.002 A 
HETATM   29  C   UNL     1       6.130  33.170  61.206  1.00  0.00     0.000 A 
HETATM   30  C   UNL     1       5.581  32.947  59.946  1.00  0.00     0.002 A 
HETATM   31  C   UNL     1       6.217  32.094  59.037  1.00  0.00     0.031 A 
ENDBRANCH   4  26
TORSDOF 4
ENDMDL
MODEL 2
REMARK VINA RESULT:      -8.6      2.223      3.326
REMARK  4 active torsions:
REMARK  status: ('A' for Active; 'I' for Inactive)
REMARK    1  A    between atoms: N_4  and  C_5 
REMARK    2  A    between atoms: C_16  and  C_17 
REMARK    3  A    between atoms: C_24  and  C_25 
REMARK    4  A    between atoms: C_25  and  O_26 
ROOT
HETATM    1  C   UNL     1       3.921  28.969  56.347  1.00  0.00     0.073 C 
HETATM    2  C   UNL     1       5.312  28.765  56.824  1.00  0.00     0.065 A 
HETATM    3  N   UNL     1       6.000  29.787  57.341  1.00  0.00    -0.170 NA
HETATM    4  N   UNL     1       7.227  29.272  57.660  1.00  0.00    -0.215 N 
HETATM    5  C   UNL     1       7.288  27.907  57.374  1.00  0.00     0.165 A 
HETATM    6  C   UNL     1       6.067  27.572  56.803  1.00  0.00     0.039 A 
HETATM    7  N   UNL     1       8.319  27.055  57.568  1.00  0.00    -0.216 NA
HETATM    8  C   UNL     1       8.097  25.798  57.130  1.00  0.00     0.137 A 
HETATM    9 CL   UNL     1       9.479  24.800  57.399  1.00  0.00    -0.062 Cl
HETATM   10  C   UNL     1       6.934  25.330  56.518  1.00  0.00     0.011 A 
HETATM   11  C   UNL     1       5.879  26.251  56.363  1.00  0.00     0.030 A 
ENDROOT
BRANCH  10  12
HETATM   12  C   UNL     1       6.791  23.916  55.986  1.00  0.00     0.164 C 
HETATM   13  N   UNL     1       7.369  23.006  56.965  1.00  0.00    -0.330 N 
HETATM   14  C   UNL     1       8.079  21.894  56.664  1.00  0.00     0.321 C 
HETATM   15  H   UNL     1       7.049  23.044  57.923  1.00  0.00     0.165 HD
HETATM   16  O   UNL     1       8.382  21.075  57.524  1.00  0.00    -0.247 OA
HETATM   17  N   UNL     1       8.461  21.752  55.366  1.00  0.00    -0.312 N 
HETATM   18  C   UNL     1       8.171  22.631  54.347  1.00  0.00     0.024 C 
HETATM   19  H   UNL     1       9.023  20.928  55.183  1.00  0.00     0.170 HD
HETATM   20  C   UNL     1       8.736  22.261  53.003  1.00  0.00     0.069 C 
HETATM   21  C   UNL     1       7.384  23.688  54.620  1.00  0.00     0.067 C 
BRANCH  21  22
HETATM   22  C   UNL     1       7.046  24.663  53.561  1.00  0.00     0.293 C 
HETATM   23  O   UNL     1       7.809  25.518  53.142  1.00  0.00    -0.259 OA
BRANCH  22  24
HETATM   24  O   UNL     1       5.773  24.451  53.147  1.00  0.00    -0.323 OA
HETATM   25  C   UNL     1       5.363  25.302  52.075  1.00  0.00     0.213 C 
ENDBRANCH  22  24
ENDBRANCH  21  22
ENDBRANCH  10  12
BRANCH   4  26
HETATM   26  C   UNL     1       8.240  30.136  58.182  1.00  0.00     0.060 A 
HETATM   27  C   UNL     1       7.947  30.938  59.299  1.00  0.00     0.031 A 
HETATM   28  C   UNL     1       8.904  31.816  59.816  1.00  0.00     0.002 A 
HETATM   29  C   UNL     1      10.164  31.898  59.229  1.00  0.00     0.000 A 
HETATM   30  C   UNL     1      10.468  31.102  58.128  1.00  0.00     0.002 A 
HETATM   31  C   UNL     1       9.513  30.224  57.603  1.00  0.00     0.031 A 
ENDBRANCH   4  26
TORSDOF 4
ENDMDL
MODEL 3
REMARK VINA RESULT:      -8.2      4.811      8.181
REMARK  4 active torsions:
REMARK  status: ('A' for Active; 'I' for Inactive)
REMARK    1  A    between atoms: N_4  and  C_5 
REMARK    2  A    between atoms: C_16  and  C_17 
REMARK    3  A    between atoms: C_24  and  C_25 
REMARK    4  A    between atoms: C_25  and  O_26 
ROOT
HETATM    1  C   UNL     1       4.601  28.312  56.116  1.00  0.00     0.073 C 
HETATM    2  C   UNL     1       5.050  27.400  55.034  1.00  0.00     0.065 A 
HETATM    3  N   UNL     1       5.849  26.368  55.317  1.00  0.00    -0.170 NA
HETATM    4  N   UNL     1       6.081  25.751  54.118  1.00  0.00    -0.215 N 
HETATM    5  C   UNL     1       5.388  26.386  53.086  1.00  0.00     0.165 A 
HETATM    6  C   UNL     1       4.742  27.472  53.658  1.00  0.00     0.039 A 
HETATM    7  N   UNL     1       5.353  26.057  51.775  1.00  0.00    -0.216 NA
HETATM    8  C   UNL     1       4.638  26.905  51.005  1.00  0.00     0.137 A 
HETATM    9 CL   UNL     1       4.678  26.415  49.351  1.00  0.00    -0.062 Cl
HETATM   10  C   UNL     1       3.961  28.044  51.440  1.00  0.00     0.011 A 
HETATM   11  C   UNL     1       4.007  28.327  52.819  1.00  0.00     0.030 A 
ENDROOT
BRANCH  10  12
HETATM   12  C   UNL     1       3.238  28.987  50.496  1.00  0.00     0.164 C 
HETATM   13  N   UNL     1       2.214  28.226  49.795  1.00  0.00    -0.330 N 
HETATM   14  C   UNL     1       1.875  28.396  48.496  1.00  0.00     0.321 C 
HETATM   15  H   UNL     1       1.539  27.697  50.331  1.00  0.00     0.165 HD
HETATM   16  O   UNL     1       0.886  27.855  48.016  1.00  0.00    -0.247 OA
HETATM   17  N   UNL     1       2.707  29.173  47.750  1.00  0.00    -0.312 N 
HETATM   18  C   UNL     1       3.839  29.804  48.212  1.00  0.00     0.024 C 
HETATM   19  H   UNL     1       2.444  29.248  46.773  1.00  0.00     0.170 HD
HETATM   20  C   UNL     1       4.605  30.582  47.177  1.00  0.00     0.069 C 
HETATM   21  C   UNL     1       4.128  29.718  49.524  1.00  0.00     0.067 C 
BRANCH  21  22
HETATM   22  C   UNL     1       5.335  30.376  50.069  1.00  0.00     0.293 C 
HETATM   23  O   UNL     1       6.473  29.962  49.918  1.00  0.00    -0.259 OA
BRANCH  22  24
HETATM   24  O   UNL     1       4.970  31.487  50.752  1.00  0.00    -0.323 OA
HETATM   25  C   UNL     1       5.649  32.673  50.335  1.00  0.00     0.213 C 
ENDBRANCH  22  24
ENDBRANCH  21  22
ENDBRANCH  10  12
BRANCH   4  26
HETATM   26  C   UNL     1       6.969  24.631  54.061  1.00  0.00     0.060 A 
HETATM   27  C   UNL     1       7.710  24.286  55.205  1.00  0.00     0.031 A 
HETATM   28  C   UNL     1       8.608  23.216  55.176  1.00  0.00     0.002 A 
HETATM   29  C   UNL     1       8.772  22.474  54.009  1.00  0.00     0.000 A 
HETATM   30  C   UNL     1       8.037  22.802  52.872  1.00  0.00     0.002 A 
HETATM   31  C   UNL     1       7.138  23.875  52.894  1.00  0.00     0.031 A 
ENDBRANCH   4  26
TORSDOF 4
ENDMDL
MODEL 4
REMARK VINA RESULT:      -7.8      2.828      8.134
REMARK  4 active torsions:
REMARK  status: ('A' for Active; 'I' for Inactive)
REMARK    1  A    between atoms: N_4  and  C_5 
REMARK    2  A    between atoms: C_16  and  C_17 
REMARK    3  A    between atoms: C_24  and  C_25 
REMARK    4  A    between atoms: C_25  and  O_26 
ROOT
HETATM    1  C   UNL     1       5.099  26.127  51.723  1.00  0.00     0.073 C 
HETATM    2  C   UNL     1       5.789  25.401  52.819  1.00  0.00     0.065 A 
HETATM    3  N   UNL     1       6.351  24.213  52.585  1.00  0.00    -0.170 NA
HETATM    4  N   UNL     1       6.876  23.819  53.786  1.00  0.00    -0.215 N 
HETATM    5  C   UNL     1       6.671  24.791  54.766  1.00  0.00     0.165 A 
HETATM    6  C   UNL     1       5.941  25.806  54.163  1.00  0.00     0.039 A 
HETATM    7  N   UNL     1       7.060  24.772  56.060  1.00  0.00    -0.216 NA
HETATM    8  C   UNL     1       6.656  25.839  56.782  1.00  0.00     0.137 A 
HETATM    9 CL   UNL     1       7.179  25.705  58.421  1.00  0.00    -0.062 Cl
HETATM   10  C   UNL     1       5.901  26.914  56.314  1.00  0.00     0.011 A 
HETATM   11  C   UNL     1       5.544  26.899  54.952  1.00  0.00     0.030 A 
ENDROOT
BRANCH  10  12
HETATM   12  C   UNL     1       5.425  28.042  57.211  1.00  0.00     0.164 C 
HETATM   13  N   UNL     1       4.119  28.475  56.737  1.00  0.00    -0.330 N 
HETATM   14  C   UNL     1       3.688  29.758  56.714  1.00  0.00     0.321 C 
HETATM   15  H   UNL     1       3.382  27.791  56.629  1.00  0.00     0.165 HD
HETATM   16  O   UNL     1       2.519  30.038  56.475  1.00  0.00    -0.247 OA
HETATM   17  N   UNL     1       4.629  30.716  56.940  1.00  0.00    -0.312 N 
HETATM   18  C   UNL     1       5.959  30.483  57.203  1.00  0.00     0.024 C 
HETATM   19  H   UNL     1       4.280  31.666  56.878  1.00  0.00     0.170 HD
HETATM   20  C   UNL     1       6.800  31.717  57.387  1.00  0.00     0.069 C 
HETATM   21  C   UNL     1       6.373  29.208  57.322  1.00  0.00     0.067 C 
BRANCH  21  22
HETATM   22  C   UNL     1       7.794  28.905  57.601  1.00  0.00     0.293 C 
HETATM   23  O   UNL     1       8.265  28.786  58.720  1.00  0.00    -0.259 OA
BRANCH  22  24
HETATM   24  O   UNL     1       8.466  28.790  56.430  1.00  0.00    -0.323 OA
HETATM   25  C   UNL     1       9.702  29.506  56.399  1.00  0.00     0.213 C 
ENDBRANCH  22  24
ENDBRANCH  21  22
ENDBRANCH  10  12
BRANCH   4  26
HETATM   26  C   UNL     1       7.500  22.537  53.896  1.00  0.00     0.060 A 
HETATM   27  C   UNL     1       7.657  21.959  55.168  1.00  0.00     0.031 A 
HETATM   28  C   UNL     1       8.289  20.721  55.315  1.00  0.00     0.002 A 
HETATM   29  C   UNL     1       8.765  20.044  54.195  1.00  0.00     0.000 A 
HETATM   30  C   UNL     1       8.607  20.602  52.929  1.00  0.00     0.002 A 
HETATM   31  C   UNL     1       7.979  21.844  52.777  1.00  0.00     0.031 A 
ENDBRANCH   4  26
TORSDOF 4
ENDMDL
MODEL 5
REMARK VINA RESULT:      -7.7      5.664     10.311
REMARK  4 active torsions:
REMARK  status: ('A' for Active; 'I' for Inactive)
REMARK    1  A    between atoms: N_4  and  C_5 
REMARK    2  A    between atoms: C_16  and  C_17 
REMARK    3  A    between atoms: C_24  and  C_25 
REMARK    4  A    between atoms: C_25  and  O_26 
ROOT
HETATM    1  C   UNL     1       9.403  31.945  61.950  1.00  0.00     0.073 C 
HETATM    2  C   UNL     1       8.250  31.920  61.014  1.00  0.00     0.065 A 
HETATM    3  N   UNL     1       8.254  31.093  59.967  1.00  0.00    -0.170 NA
HETATM    4  N   UNL     1       7.076  31.329  59.314  1.00  0.00    -0.215 N 
HETATM    5  C   UNL     1       6.315  32.287  59.985  1.00  0.00     0.165 A 
HETATM    6  C   UNL     1       7.075  32.702  61.069  1.00  0.00     0.039 A 
HETATM    7  N   UNL     1       5.092  32.765  59.660  1.00  0.00    -0.216 NA
HETATM    8  C   UNL     1       4.638  33.740  60.475  1.00  0.00     0.137 A 
HETATM    9 CL   UNL     1       3.089  34.299  59.960  1.00  0.00    -0.062 Cl
HETATM   10  C   UNL     1       5.303  34.269  61.581  1.00  0.00     0.011 A 
HETATM   11  C   UNL     1       6.561  33.718  61.893  1.00  0.00     0.030 A 
ENDROOT
BRANCH  10  12
HETATM   12  C   UNL     1       4.753  35.418  62.405  1.00  0.00     0.164 C 
HETATM   13  N   UNL     1       5.604  36.579  62.186  1.00  0.00    -0.330 N 
HETATM   14  C   UNL     1       5.945  37.480  63.137  1.00  0.00     0.321 C 
HETATM   15  H   UNL     1       5.779  36.891  61.241  1.00  0.00     0.165 HD
HETATM   16  O   UNL     1       6.511  38.529  62.851  1.00  0.00    -0.247 OA
HETATM   17  N   UNL     1       5.651  37.145  64.422  1.00  0.00    -0.312 N 
HETATM   18  C   UNL     1       5.029  35.985  64.823  1.00  0.00     0.024 C 
HETATM   19  H   UNL     1       5.954  37.825  65.111  1.00  0.00     0.170 HD
HETATM   20  C   UNL     1       4.846  35.838  66.309  1.00  0.00     0.069 C 
HETATM   21  C   UNL     1       4.602  35.129  63.876  1.00  0.00     0.067 C 
BRANCH  21  22
HETATM   22  C   UNL     1       3.930  33.867  64.256  1.00  0.00     0.293 C 
HETATM   23  O   UNL     1       4.499  32.796  64.384  1.00  0.00    -0.259 OA
BRANCH  22  24
HETATM   24  O   UNL     1       2.607  34.099  64.429  1.00  0.00    -0.323 OA
HETATM   25  C   UNL     1       1.840  34.008  63.226  1.00  0.00     0.213 C 
ENDBRANCH  22  24
ENDBRANCH  21  22
ENDBRANCH  10  12
BRANCH   4  26
HETATM   26  C   UNL     1       6.796  30.641  58.092  1.00  0.00     0.060 A 
HETATM   27  C   UNL     1       7.630  29.579  57.698  1.00  0.00     0.031 A 
HETATM   28  C   UNL     1       7.403  28.904  56.495  1.00  0.00     0.002 A 
HETATM   29  C   UNL     1       6.340  29.276  55.676  1.00  0.00     0.000 A 
HETATM   30  C   UNL     1       5.503  30.321  56.060  1.00  0.00     0.002 A 
HETATM   31  C   UNL     1       5.727  31.003  57.262  1.00  0.00     0.031 A 
ENDBRANCH   4  26
TORSDOF 4
ENDMDL
MODEL 6
REMARK VINA RESULT:      -7.7      3.986      8.577
REMARK  4 active torsions:
REMARK  status: ('A' for Active; 'I' for Inactive)
REMARK    1  A    between atoms: N_4  and  C_5 
REMARK    2  A    between atoms: C_16  and  C_17 
REMARK    3  A    between atoms: C_24  and  C_25 
REMARK    4  A    between atoms: C_25  and  O_26 
ROOT
HETATM    1  C   UNL     1       3.511  32.218  51.714  1.00  0.00     0.073 C 
HETATM    2  C   UNL     1       3.699  30.756  51.538  1.00  0.00     0.065 A 
HETATM    3  N   UNL     1       3.543  30.200  50.335  1.00  0.00    -0.170 NA
HETATM    4  N   UNL     1       3.769  28.864  50.522  1.00  0.00    -0.215 N 
HETATM    5  C   UNL     1       4.107  28.594  51.849  1.00  0.00     0.165 A 
HETATM    6  C   UNL     1       4.035  29.804  52.525  1.00  0.00     0.039 A 
HETATM    7  N   UNL     1       4.418  27.403  52.409  1.00  0.00    -0.216 NA
HETATM    8  C   UNL     1       4.640  27.452  53.739  1.00  0.00     0.137 A 
HETATM    9 CL   UNL     1       5.000  25.882  54.360  1.00  0.00    -0.062 Cl
HETATM   10  C   UNL     1       4.578  28.588  54.546  1.00  0.00     0.011 A 
HETATM   11  C   UNL     1       4.277  29.808  53.909  1.00  0.00     0.030 A 
ENDROOT
BRANCH  10  12
HETATM   12  C   UNL     1       4.771  28.545  56.051  1.00  0.00     0.164 C 
HETATM   13  N   UNL     1       3.794  29.438  56.656  1.00  0.00    -0.330 N 
HETATM   14  C   UNL     1       4.026  30.225  57.734  1.00  0.00     0.321 C 
HETATM   15  H   UNL     1       2.814  29.322  56.435  1.00  0.00     0.165 HD
HETATM   16  O   UNL     1       3.115  30.814  58.304  1.00  0.00    -0.247 OA
HETATM   17  N   UNL     1       5.323  30.346  58.126  1.00  0.00    -0.312 N 
HETATM   18  C   UNL     1       6.399  29.727  57.532  1.00  0.00     0.024 C 
HETATM   19  H   UNL     1       5.465  30.972  58.912  1.00  0.00     0.170 HD
HETATM   20  C   UNL     1       7.738  30.050  58.139  1.00  0.00     0.069 C 
HETATM   21  C   UNL     1       6.165  28.869  56.522  1.00  0.00     0.067 C 
BRANCH  21  22
HETATM   22  C   UNL     1       7.287  28.181  55.848  1.00  0.00     0.293 C 
HETATM   23  O   UNL     1       8.049  28.716  55.059  1.00  0.00    -0.259 OA
BRANCH  22  24
HETATM   24  O   UNL     1       7.322  26.887  56.245  1.00  0.00    -0.323 OA
HETATM   25  C   UNL     1       8.386  26.586  57.150  1.00  0.00     0.213 C 
ENDBRANCH  22  24
ENDBRANCH  21  22
ENDBRANCH  10  12
BRANCH   4  26
HETATM   26  C   UNL     1       3.613  27.961  49.423  1.00  0.00     0.060 A 
HETATM   27  C   UNL     1       2.333  27.768  48.873  1.00  0.00     0.031 A 
HETATM   28  C   UNL     1       2.139  26.871  47.819  1.00  0.00     0.002 A 
HETATM   29  C   UNL     1       3.219  26.164  47.298  1.00  0.00     0.000 A 
HETATM   30  C   UNL     1       4.492  26.353  47.829  1.00  0.00     0.002 A 
HETATM   31  C   UNL     1       4.692  27.247  48.888  1.00  0.00     0.031 A 
ENDBRANCH   4  26
TORSDOF 4
ENDMDL
MODEL 7
REMARK VINA RESULT:      -7.6      5.224      8.708
REMARK  4 active torsions:
REMARK  status: ('A' for Active; 'I' for Inactive)
REMARK    1  A    between atoms: N_4  and  C_5 
REMARK    2  A    between atoms: C_16  and  C_17 
REMARK    3  A    between atoms: C_24  and  C_25 
REMARK    4  A    between atoms: C_25  and  O_26 
ROOT
HETATM    1  C   UNL     1       5.024  29.562  54.738  1.00  0.00     0.073 C 
HETATM    2  C   UNL     1       5.313  28.401  53.858  1.00  0.00     0.065 A 
HETATM    3  N   UNL     1       5.852  27.291  54.369  1.00  0.00    -0.170 NA
HETATM    4  N   UNL     1       6.000  26.440  53.308  1.00  0.00    -0.215 N 
HETATM    5  C   UNL     1       5.511  27.014  52.133  1.00  0.00     0.165 A 
HETATM    6  C   UNL     1       5.093  28.294  52.468  1.00  0.00     0.039 A 
HETATM    7  N   UNL     1       5.466  26.476  50.893  1.00  0.00    -0.216 NA
HETATM    8  C   UNL     1       4.992  27.306  49.941  1.00  0.00     0.137 A 
HETATM    9 CL   UNL     1       5.001  26.537  48.396  1.00  0.00    -0.062 Cl
HETATM   10  C   UNL     1       4.561  28.619  50.129  1.00  0.00     0.011 A 
HETATM   11  C   UNL     1       4.603  29.123  51.444  1.00  0.00     0.030 A 
ENDROOT
BRANCH  10  12
HETATM   12  C   UNL     1       4.108  29.512  48.989  1.00  0.00     0.164 C 
HETATM   13  N   UNL     1       5.064  30.602  48.862  1.00  0.00    -0.330 N 
HETATM   14  C   UNL     1       4.745  31.883  48.560  1.00  0.00     0.321 C 
HETATM   15  H   UNL     1       6.046  30.387  48.756  1.00  0.00     0.165 HD
HETATM   16  O   UNL     1       5.607  32.711  48.289  1.00  0.00    -0.247 OA
HETATM   17  N   UNL     1       3.423  32.203  48.604  1.00  0.00    -0.312 N 
HETATM   18  C   UNL     1       2.400  31.335  48.909  1.00  0.00     0.024 C 
HETATM   19  H   UNL     1       3.223  33.178  48.410  1.00  0.00     0.170 HD
HETATM   20  C   UNL     1       1.025  31.945  48.919  1.00  0.00     0.069 C 
HETATM   21  C   UNL     1       2.702  30.040  49.116  1.00  0.00     0.067 C 
BRANCH  21  22
HETATM   22  C   UNL     1       1.638  29.067  49.450  1.00  0.00     0.293 C 
HETATM   23  O   UNL     1       1.256  28.828  50.583  1.00  0.00    -0.259 OA
BRANCH  22  24
HETATM   24  O   UNL     1       1.176  28.500  48.310  1.00  0.00    -0.323 OA
HETATM   25  C   UNL     1       1.469  27.106  48.196  1.00  0.00     0.213 C 
ENDBRANCH  22  24
ENDBRANCH  21  22
ENDBRANCH  10  12
BRANCH   4  26
HETATM   26  C   UNL     1       6.621  25.167  53.506  1.00  0.00     0.060 A 
HETATM   27  C   UNL     1       6.495  24.531  54.754  1.00  0.00     0.031 A 
HETATM   28  C   UNL     1       7.115  23.301  54.991  1.00  0.00     0.002 A 
HETATM   29  C   UNL     1       7.861  22.690  53.987  1.00  0.00     0.000 A 
HETATM   30  C   UNL     1       7.985  23.307  52.744  1.00  0.00     0.002 A 
HETATM   31  C   UNL     1       7.370  24.541  52.502  1.00  0.00     0.031 A 
ENDBRANCH   4  26
TORSDOF 4
ENDMDL
MODEL 8
REMARK VINA RESULT:      -7.3      4.874      8.224
REMARK  4 active torsions:
REMARK  status: ('A' for Active; 'I' for Inactive)
REMARK    1  A    between atoms: N_4  and  C_5 
REMARK    2  A    between atoms: C_16  and  C_17 
REMARK    3  A    between atoms: C_24  and  C_25 
REMARK    4  A    between atoms: C_25  and  O_26 
ROOT
HETATM    1  C   UNL     1       4.582  28.458  56.409  1.00  0.00     0.073 C 
HETATM    2  C   UNL     1       5.074  27.636  55.274  1.00  0.00     0.065 A 
HETATM    3  N   UNL     1       5.638  26.447  55.502  1.00  0.00    -0.170 NA
HETATM    4  N   UNL     1       5.987  25.970  54.268  1.00  0.00    -0.215 N 
HETATM    5  C   UNL     1       5.603  26.857  53.261  1.00  0.00     0.165 A 
HETATM    6  C   UNL     1       5.040  27.953  53.899  1.00  0.00     0.039 A 
HETATM    7  N   UNL     1       5.758  26.725  51.925  1.00  0.00    -0.216 NA
HETATM    8  C   UNL     1       5.338  27.786  51.205  1.00  0.00     0.137 A 
HETATM    9 CL   UNL     1       5.604  27.530  49.520  1.00  0.00    -0.062 Cl
HETATM   10  C   UNL     1       4.778  28.959  51.713  1.00  0.00     0.011 A 
HETATM   11  C   UNL     1       4.613  29.035  53.109  1.00  0.00     0.030 A 
ENDROOT
BRANCH  10  12
HETATM   12  C   UNL     1       4.397  30.139  50.838  1.00  0.00     0.164 C 
HETATM   13  N   UNL     1       5.027  31.330  51.388  1.00  0.00    -0.330 N 
HETATM   14  C   UNL     1       4.461  32.559  51.428  1.00  0.00     0.321 C 
HETATM   15  H   UNL     1       6.026  31.332  51.546  1.00  0.00     0.165 HD
HETATM   16  O   UNL     1       5.108  33.553  51.735  1.00  0.00    -0.247 OA
HETATM   17  N   UNL     1       3.133  32.623  51.137  1.00  0.00    -0.312 N 
HETATM   18  C   UNL     1       2.337  31.554  50.795  1.00  0.00     0.024 C 
HETATM   19  H   UNL     1       2.733  33.552  51.213  1.00  0.00     0.170 HD
HETATM   20  C   UNL     1       0.890  31.885  50.551  1.00  0.00     0.069 C 
HETATM   21  C   UNL     1       2.914  30.345  50.661  1.00  0.00     0.067 C 
BRANCH  21  22
HETATM   22  C   UNL     1       2.102  29.164  50.298  1.00  0.00     0.293 C 
HETATM   23  O   UNL     1       1.273  28.647  51.028  1.00  0.00    -0.259 OA
BRANCH  22  24
HETATM   24  O   UNL     1       2.431  28.762  49.047  1.00  0.00    -0.323 OA
HETATM   25  C   UNL     1       1.363  28.123  48.344  1.00  0.00     0.213 C 
ENDBRANCH  22  24
ENDBRANCH  21  22
ENDBRANCH  10  12
BRANCH   4  26
HETATM   26  C   UNL     1       6.685  24.726  54.165  1.00  0.00     0.060 A 
HETATM   27  C   UNL     1       6.842  23.932  55.316  1.00  0.00     0.031 A 
HETATM   28  C   UNL     1       7.544  22.725  55.257  1.00  0.00     0.002 A 
HETATM   29  C   UNL     1       8.090  22.293  54.051  1.00  0.00     0.000 A 
HETATM   30  C   UNL     1       7.932  23.067  52.903  1.00  0.00     0.002 A 
HETATM   31  C   UNL     1       7.234  24.279  52.957  1.00  0.00     0.031 A 
ENDBRANCH   4  26
TORSDOF 4
ENDMDL
MODEL 9
REMARK VINA RESULT:      -7.3      4.437      7.119
REMARK  4 active torsions:
REMARK  status: ('A' for Active; 'I' for Inactive)
REMARK    1  A    between atoms: N_4  and  C_5 
REMARK    2  A    between atoms: C_16  and  C_17 
REMARK    3  A    between atoms: C_24  and  C_25 
REMARK    4  A    between atoms: C_25  and  O_26 
ROOT
HETATM    1  C   UNL     1       3.109  31.013  55.554  1.00  0.00     0.073 C 
HETATM    2  C   UNL     1       3.830  29.789  55.121  1.00  0.00     0.065 A 
HETATM    3  N   UNL     1       4.557  29.094  55.999  1.00  0.00    -0.170 NA
HETATM    4  N   UNL     1       5.091  28.056  55.285  1.00  0.00    -0.215 N 
HETATM    5  C   UNL     1       4.660  28.087  53.958  1.00  0.00     0.165 A 
HETATM    6  C   UNL     1       3.870  29.221  53.829  1.00  0.00     0.039 A 
HETATM    7  N   UNL     1       4.956  27.224  52.960  1.00  0.00    -0.216 NA
HETATM    8  C   UNL     1       4.435  27.556  51.760  1.00  0.00     0.137 A 
HETATM    9 CL   UNL     1       4.893  26.410  50.554  1.00  0.00    -0.062 Cl
HETATM   10  C   UNL     1       3.648  28.673  51.482  1.00  0.00     0.011 A 
HETATM   11  C   UNL     1       3.346  29.526  52.562  1.00  0.00     0.030 A 
ENDROOT
BRANCH  10  12
HETATM   12  C   UNL     1       3.161  29.014  50.086  1.00  0.00     0.164 C 
HETATM   13  N   UNL     1       2.344  27.907  49.611  1.00  0.00    -0.330 N 
HETATM   14  C   UNL     1       2.324  27.449  48.337  1.00  0.00     0.321 C 
HETATM   15  H   UNL     1       1.567  27.589  50.175  1.00  0.00     0.165 HD
HETATM   16  O   UNL     1       1.485  26.638  47.961  1.00  0.00    -0.247 OA
HETATM   17  N   UNL     1       3.300  27.914  47.512  1.00  0.00    -0.312 N 
HETATM   18  C   UNL     1       4.281  28.814  47.861  1.00  0.00     0.024 C 
HETATM   19  H   UNL     1       3.279  27.523  46.577  1.00  0.00     0.170 HD
HETATM   20  C   UNL     1       5.263  29.146  46.771  1.00  0.00     0.069 C 
HETATM   21  C   UNL     1       4.248  29.346  49.097  1.00  0.00     0.067 C 
BRANCH  21  22
HETATM   22  C   UNL     1       5.281  30.315  49.523  1.00  0.00     0.293 C 
HETATM   23  O   UNL     1       6.401  30.008  49.897  1.00  0.00    -0.259 OA
BRANCH  22  24
HETATM   24  O   UNL     1       4.782  31.571  49.432  1.00  0.00    -0.323 OA
HETATM   25  C   UNL     1       5.513  32.423  48.549  1.00  0.00     0.213 C 
ENDBRANCH  22  24
ENDBRANCH  21  22
ENDBRANCH  10  12
BRANCH   4  26
HETATM   26  C   UNL     1       5.988  27.146  55.927  1.00  0.00     0.060 A 
HETATM   27  C   UNL     1       7.226  27.622  56.396  1.00  0.00     0.031 A 
HETATM   28  C   UNL     1       8.139  26.754  57.002  1.00  0.00     0.002 A 
HETATM   29  C   UNL     1       7.825  25.405  57.152  1.00  0.00     0.000 A 
HETATM   30  C   UNL     1       6.599  24.925  56.699  1.00  0.00     0.002 A 
HETATM   31  C   UNL     1       5.682  25.789  56.089  1.00  0.00     0.031 A 
ENDBRANCH   4  26
TORSDOF 4
ENDMDL
MODEL 10
REMARK VINA RESULT:      -7.1      4.360      6.760
REMARK  4 active torsions:
REMARK  status: ('A' for Active; 'I' for Inactive)
REMARK    1  A    between atoms: N_4  and  C_5 
REMARK    2  A    between atoms: C_16  and  C_17 
REMARK    3  A    between atoms: C_24  and  C_25 
REMARK    4  A    between atoms: C_25  and  O_26 
ROOT
HETATM    1  C   UNL     1       7.526  24.774  51.802  1.00  0.00     0.073 C 
HETATM    2  C   UNL     1       7.159  25.976  52.594  1.00  0.00     0.065 A 
HETATM    3  N   UNL     1       7.695  26.172  53.801  1.00  0.00    -0.170 NA
HETATM    4  N   UNL     1       7.144  27.339  54.256  1.00  0.00    -0.215 N 
HETATM    5  C   UNL     1       6.286  27.892  53.304  1.00  0.00     0.165 A 
HETATM    6  C   UNL     1       6.261  27.005  52.237  1.00  0.00     0.039 A 
HETATM    7  N   UNL     1       5.578  29.042  53.381  1.00  0.00    -0.216 NA
HETATM    8  C   UNL     1       4.782  29.281  52.318  1.00  0.00     0.137 A 
HETATM    9 CL   UNL     1       3.905  30.752  52.525  1.00  0.00    -0.062 Cl
HETATM   10  C   UNL     1       4.640  28.468  51.193  1.00  0.00     0.011 A 
HETATM   11  C   UNL     1       5.419  27.295  51.150  1.00  0.00     0.030 A 
ENDROOT
BRANCH  10  12
HETATM   12  C   UNL     1       3.666  28.773  50.070  1.00  0.00     0.164 C 
HETATM   13  N   UNL     1       3.122  27.511  49.589  1.00  0.00    -0.330 N 
HETATM   14  C   UNL     1       2.852  27.228  48.293  1.00  0.00     0.321 C 
HETATM   15  H   UNL     1       2.694  26.875  50.248  1.00  0.00     0.165 HD
HETATM   16  O   UNL     1       2.229  26.221  47.974  1.00  0.00    -0.247 OA
HETATM   17  N   UNL     1       3.334  28.102  47.369  1.00  0.00    -0.312 N 
HETATM   18  C   UNL     1       4.049  29.245  47.646  1.00  0.00     0.024 C 
HETATM   19  H   UNL     1       3.146  27.840  46.407  1.00  0.00     0.170 HD
HETATM   20  C   UNL     1       4.495  30.029  46.442  1.00  0.00     0.069 C 
HETATM   21  C   UNL     1       4.238  29.583  48.935  1.00  0.00     0.067 C 
BRANCH  21  22
HETATM   22  C   UNL     1       5.003  30.799  49.286  1.00  0.00     0.293 C 
HETATM   23  O   UNL     1       6.204  30.821  49.494  1.00  0.00    -0.259 OA
BRANCH  22  24
HETATM   24  O   UNL     1       4.160  31.858  49.338  1.00  0.00    -0.323 OA
HETATM   25  C   UNL     1       4.670  33.037  48.711  1.00  0.00     0.213 C 
ENDBRANCH  22  24
ENDBRANCH  21  22
ENDBRANCH  10  12
BRANCH   4  26
HETATM   26  C   UNL     1       7.463  27.805  55.570  1.00  0.00     0.060 A 
HETATM   27  C   UNL     1       8.257  28.957  55.713  1.00  0.00     0.031 A 
HETATM   28  C   UNL     1       8.612  29.422  56.983  1.00  0.00     0.002 A 
HETATM   29  C   UNL     1       8.176  28.749  58.120  1.00  0.00     0.000 A 
HETATM   30  C   UNL     1       7.383  27.611  57.990  1.00  0.00     0.002 A 
HETATM   31  C   UNL     1       7.027  27.138  56.721  1.00  0.00     0.031 A 
ENDBRANCH   4  26
TORSDOF 4
ENDMDL
