MODEL 1
REMARK VINA RESULT:      -9.2      0.000      0.000
REMARK  4 active torsions:
REMARK  status: ('A' for Active; 'I' for Inactive)
REMARK    1  A    between atoms: N_1  and  C_2 
REMARK    2  A    between atoms: C_2  and  C_3 
REMARK    3  A    between atoms: C_3  and  C_4 
REMARK    4  A    between atoms: N_13  and  C_16 
ROOT
HETATM    1  C   UNL     1       6.886  25.503  52.384  1.00  0.00     0.162 C 
HETATM    2  C   UNL     1       7.756  26.656  52.951  1.00  0.00     0.061 C 
HETATM    3  C   UNL     1       6.948  27.815  53.540  1.00  0.00     0.125 C 
HETATM    4  N   UNL     1       6.002  27.283  54.526  1.00  0.00    -0.380 N 
HETATM    5  C   UNL     1       5.030  26.335  53.952  1.00  0.00     0.125 C 
HETATM    6  C   UNL     1       5.788  25.128  53.405  1.00  0.00     0.061 C 
ENDROOT
BRANCH   1   7
HETATM    7  N   UNL     1       6.260  25.937  51.119  1.00  0.00     0.088 N 
HETATM    8  H   UNL     1       5.415  26.476  51.308  1.00  0.00     0.313 HD
HETATM    9  H   UNL     1       5.985  25.152  50.537  1.00  0.00     0.313 HD
ENDBRANCH   1   7
BRANCH   1  10
HETATM   10  C   UNL     1       7.830  24.285  52.111  1.00  0.00     0.079 C 
BRANCH  10  11
HETATM   11  C   UNL     1       7.986  23.274  53.228  1.00  0.00    -0.056 A 
HETATM   12  C   UNL     1       7.762  21.909  52.997  1.00  0.00     0.009 A 
HETATM   13  C   UNL     1       7.917  20.981  54.028  1.00  0.00     0.024 A 
HETATM   14  C   UNL     1       8.295  21.410  55.297  1.00  0.00     0.034 A 
HETATM   15 CL   UNL     1       8.484  20.267  56.569  1.00  0.00    -0.084 Cl
HETATM   16  C   UNL     1       8.521  22.762  55.544  1.00  0.00     0.024 A 
HETATM   17  C   UNL     1       8.369  23.691  54.512  1.00  0.00     0.009 A 
ENDBRANCH  10  11
ENDBRANCH   1  10
BRANCH   4  18
HETATM   18  C   UNL     1       5.539  28.078  55.565  1.00  0.00     0.045 A 
HETATM   19  C   UNL     1       4.203  28.518  55.653  1.00  0.00     0.047 A 
HETATM   20  C   UNL     1       3.767  29.347  56.683  1.00  0.00     0.092 A 
HETATM   21  N   UNL     1       4.606  29.765  57.633  1.00  0.00    -0.351 N 
HETATM   22  H   UNL     1       4.280  30.376  58.380  1.00  0.00     0.166 HD
HETATM   23  C   UNL     1       5.903  29.372  57.578  1.00  0.00     0.117 A 
HETATM   24  N   UNL     1       6.910  29.708  58.444  1.00  0.00    -0.352 N 
HETATM   25  C   UNL     1       6.411  28.549  56.583  1.00  0.00     0.036 A 
HETATM   26  H   UNL     1       6.838  30.294  59.267  1.00  0.00     0.166 HD
HETATM   27  C   UNL     1       8.078  29.131  58.013  1.00  0.00     0.090 A 
HETATM   28  C   UNL     1       7.803  28.422  56.864  1.00  0.00     0.034 A 
ENDBRANCH   4  18
TORSDOF 4
ENDMDL
MODEL 2
REMARK VINA RESULT:      -8.9      4.528      7.326
REMARK  4 active torsions:
REMARK  status: ('A' for Active; 'I' for Inactive)
REMARK    1  A    between atoms: N_1  and  C_2 
REMARK    2  A    between atoms: C_2  and  C_3 
REMARK    3  A    between atoms: C_3  and  C_4 
REMARK    4  A    between atoms: N_13  and  C_16 
ROOT
HETATM    1  C   UNL     1       5.256  26.772  52.269  1.00  0.00     0.162 C 
HETATM    2  C   UNL     1       6.475  27.162  53.147  1.00  0.00     0.061 C 
HETATM    3  C   UNL     1       6.630  26.313  54.412  1.00  0.00     0.125 C 
HETATM    4  N   UNL     1       6.634  24.895  54.036  1.00  0.00    -0.380 N 
HETATM    5  C   UNL     1       5.387  24.460  53.380  1.00  0.00     0.125 C 
HETATM    6  C   UNL     1       5.222  25.238  52.077  1.00  0.00     0.061 C 
ENDROOT
BRANCH   1   7
HETATM    7  N   UNL     1       4.013  27.217  52.929  1.00  0.00     0.088 N 
HETATM    8  H   UNL     1       3.417  27.712  52.267  1.00  0.00     0.313 HD
HETATM    9  H   UNL     1       4.193  27.856  53.698  1.00  0.00     0.313 HD
ENDBRANCH   1   7
BRANCH   1  10
HETATM   10  C   UNL     1       5.409  27.500  50.892  1.00  0.00     0.079 C 
BRANCH  10  11
HETATM   11  C   UNL     1       4.243  27.402  49.930  1.00  0.00    -0.056 A 
HETATM   12  C   UNL     1       3.266  28.407  49.884  1.00  0.00     0.009 A 
HETATM   13  C   UNL     1       2.199  28.317  48.988  1.00  0.00     0.024 A 
HETATM   14  C   UNL     1       2.100  27.221  48.135  1.00  0.00     0.034 A 
HETATM   15 CL   UNL     1       0.784  27.108  47.032  1.00  0.00    -0.084 Cl
HETATM   16  C   UNL     1       3.062  26.214  48.169  1.00  0.00     0.024 A 
HETATM   17  C   UNL     1       4.131  26.305  49.062  1.00  0.00     0.009 A 
ENDBRANCH  10  11
ENDBRANCH   1  10
BRANCH   4  18
HETATM   18  C   UNL     1       7.266  23.952  54.834  1.00  0.00     0.045 A 
HETATM   19  C   UNL     1       7.538  24.168  56.200  1.00  0.00     0.047 A 
HETATM   20  C   UNL     1       8.208  23.226  56.974  1.00  0.00     0.092 A 
HETATM   21  N   UNL     1       8.628  22.072  56.448  1.00  0.00    -0.351 N 
HETATM   22  H   UNL     1       9.122  21.391  57.021  1.00  0.00     0.166 HD
HETATM   23  C   UNL     1       8.394  21.833  55.134  1.00  0.00     0.117 A 
HETATM   24  N   UNL     1       8.759  20.725  54.415  1.00  0.00    -0.352 N 
HETATM   25  C   UNL     1       7.735  22.723  54.299  1.00  0.00     0.036 A 
HETATM   26  H   UNL     1       9.251  19.909  54.757  1.00  0.00     0.166 HD
HETATM   27  C   UNL     1       8.365  20.891  53.111  1.00  0.00     0.090 A 
HETATM   28  C   UNL     1       7.743  22.117  53.009  1.00  0.00     0.034 A 
ENDBRANCH   4  18
TORSDOF 4
ENDMDL
MODEL 3
REMARK VINA RESULT:      -8.8      2.054      3.571
REMARK  4 active torsions:
REMARK  status: ('A' for Active; 'I' for Inactive)
REMARK    1  A    between atoms: N_1  and  C_2 
REMARK    2  A    between atoms: C_2  and  C_3 
REMARK    3  A    between atoms: C_3  and  C_4 
REMARK    4  A    between atoms: N_13  and  C_16 
ROOT
HETATM    1  C   UNL     1       6.474  26.325  55.041  1.00  0.00     0.162 C 
HETATM    2  C   UNL     1       6.624  27.757  54.461  1.00  0.00     0.061 C 
HETATM    3  C   UNL     1       6.935  28.826  55.511  1.00  0.00     0.125 C 
HETATM    4  N   UNL     1       8.105  28.405  56.288  1.00  0.00    -0.380 N 
HETATM    5  C   UNL     1       7.900  27.139  57.015  1.00  0.00     0.125 C 
HETATM    6  C   UNL     1       7.648  26.026  56.001  1.00  0.00     0.061 C 
ENDROOT
BRANCH   1   7
HETATM    7  N   UNL     1       5.196  26.224  55.773  1.00  0.00     0.088 N 
HETATM    8  H   UNL     1       4.697  25.378  55.501  1.00  0.00     0.313 HD
HETATM    9  H   UNL     1       4.578  27.006  55.578  1.00  0.00     0.313 HD
ENDBRANCH   1   7
BRANCH   1  10
HETATM   10  C   UNL     1       6.472  25.323  53.839  1.00  0.00     0.079 C 
BRANCH  10  11
HETATM   11  C   UNL     1       7.091  23.962  54.079  1.00  0.00    -0.056 A 
HETATM   12  C   UNL     1       7.011  23.349  55.337  1.00  0.00     0.009 A 
HETATM   13  C   UNL     1       7.575  22.090  55.550  1.00  0.00     0.024 A 
HETATM   14  C   UNL     1       8.225  21.435  54.507  1.00  0.00     0.034 A 
HETATM   15 CL   UNL     1       8.922  19.885  54.769  1.00  0.00    -0.084 Cl
HETATM   16  C   UNL     1       8.313  22.030  53.251  1.00  0.00     0.024 A 
HETATM   17  C   UNL     1       7.746  23.288  53.036  1.00  0.00     0.009 A 
ENDBRANCH  10  11
ENDBRANCH   1  10
BRANCH   4  18
HETATM   18  C   UNL     1       8.919  29.342  56.909  1.00  0.00     0.045 A 
HETATM   19  C   UNL     1      10.303  29.435  56.661  1.00  0.00     0.047 A 
HETATM   20  C   UNL     1      11.109  30.356  57.323  1.00  0.00     0.092 A 
HETATM   21  N   UNL     1      10.599  31.192  58.230  1.00  0.00    -0.351 N 
HETATM   22  H   UNL     1      11.197  31.860  58.714  1.00  0.00     0.166 HD
HETATM   23  C   UNL     1       9.272  31.126  58.505  1.00  0.00     0.117 A 
HETATM   24  N   UNL     1       8.573  31.882  59.409  1.00  0.00    -0.352 N 
HETATM   25  C   UNL     1       8.406  30.235  57.888  1.00  0.00     0.036 A 
HETATM   26  H   UNL     1       8.939  32.615  60.005  1.00  0.00     0.166 HD
HETATM   27  C   UNL     1       7.262  31.478  59.406  1.00  0.00     0.090 A 
HETATM   28  C   UNL     1       7.133  30.458  58.488  1.00  0.00     0.034 A 
ENDBRANCH   4  18
TORSDOF 4
ENDMDL
MODEL 4
REMARK VINA RESULT:      -8.7      1.912      2.997
REMARK  4 active torsions:
REMARK  status: ('A' for Active; 'I' for Inactive)
REMARK    1  A    between atoms: N_1  and  C_2 
REMARK    2  A    between atoms: C_2  and  C_3 
REMARK    3  A    between atoms: C_3  and  C_4 
REMARK    4  A    between atoms: N_13  and  C_16 
ROOT
HETATM    1  C   UNL     1       6.387  26.293  54.661  1.00  0.00     0.162 C 
HETATM    2  C   UNL     1       6.473  27.769  54.186  1.00  0.00     0.061 C 
HETATM    3  C   UNL     1       6.286  28.795  55.306  1.00  0.00     0.125 C 
HETATM    4  N   UNL     1       7.225  28.494  56.391  1.00  0.00    -0.380 N 
HETATM    5  C   UNL     1       7.018  27.164  56.992  1.00  0.00     0.125 C 
HETATM    6  C   UNL     1       7.257  26.100  55.924  1.00  0.00     0.061 C 
ENDROOT
BRANCH   1   7
HETATM    7  N   UNL     1       4.983  25.958  54.969  1.00  0.00     0.088 N 
HETATM    8  H   UNL     1       4.559  25.452  54.191  1.00  0.00     0.313 HD
HETATM    9  H   UNL     1       4.416  26.786  55.126  1.00  0.00     0.313 HD
ENDBRANCH   1   7
BRANCH   1  10
HETATM   10  C   UNL     1       6.899  25.387  53.491  1.00  0.00     0.079 C 
BRANCH  10  11
HETATM   11  C   UNL     1       7.353  23.989  53.855  1.00  0.00    -0.056 A 
HETATM   12  C   UNL     1       7.181  23.495  55.155  1.00  0.00     0.009 A 
HETATM   13  C   UNL     1       7.592  22.201  55.482  1.00  0.00     0.024 A 
HETATM   14  C   UNL     1       8.179  21.393  54.511  1.00  0.00     0.034 A 
HETATM   15 CL   UNL     1       8.688  19.800  54.914  1.00  0.00    -0.084 Cl
HETATM   16  C   UNL     1       8.357  21.869  53.215  1.00  0.00     0.024 A 
HETATM   17  C   UNL     1       7.943  23.162  52.886  1.00  0.00     0.009 A 
ENDBRANCH  10  11
ENDBRANCH   1  10
BRANCH   4  18
HETATM   18  C   UNL     1       7.659  29.493  57.251  1.00  0.00     0.045 A 
HETATM   19  C   UNL     1       6.774  30.282  58.013  1.00  0.00     0.047 A 
HETATM   20  C   UNL     1       7.226  31.305  58.840  1.00  0.00     0.092 A 
HETATM   21  N   UNL     1       8.528  31.585  58.942  1.00  0.00    -0.351 N 
HETATM   22  H   UNL     1       8.850  32.339  59.547  1.00  0.00     0.166 HD
HETATM   23  C   UNL     1       9.411  30.856  58.216  1.00  0.00     0.117 A 
HETATM   24  N   UNL     1      10.773  31.002  58.175  1.00  0.00    -0.352 N 
HETATM   25  C   UNL     1       9.036  29.822  57.370  1.00  0.00     0.036 A 
HETATM   26  H   UNL     1      11.331  31.673  58.688  1.00  0.00     0.166 HD
HETATM   27  C   UNL     1      11.291  30.090  57.291  1.00  0.00     0.090 A 
HETATM   28  C   UNL     1      10.244  29.358  56.772  1.00  0.00     0.034 A 
ENDBRANCH   4  18
TORSDOF 4
ENDMDL
MODEL 5
REMARK VINA RESULT:      -8.6      2.200      4.422
REMARK  4 active torsions:
REMARK  status: ('A' for Active; 'I' for Inactive)
REMARK    1  A    between atoms: N_1  and  C_2 
REMARK    2  A    between atoms: C_2  and  C_3 
REMARK    3  A    between atoms: C_3  and  C_4 
REMARK    4  A    between atoms: N_13  and  C_16 
ROOT
HETATM    1  C   UNL     1       7.495  25.381  57.011  1.00  0.00     0.162 C 
HETATM    2  C   UNL     1       6.116  24.887  56.500  1.00  0.00     0.061 C 
HETATM    3  C   UNL     1       5.159  26.013  56.100  1.00  0.00     0.125 C 
HETATM    4  N   UNL     1       5.834  26.895  55.143  1.00  0.00    -0.380 N 
HETATM    5  C   UNL     1       7.043  27.536  55.690  1.00  0.00     0.125 C 
HETATM    6  C   UNL     1       8.056  26.451  56.046  1.00  0.00     0.061 C 
ENDROOT
BRANCH   1   7
HETATM    7  N   UNL     1       7.340  25.961  58.359  1.00  0.00     0.088 N 
HETATM    8  H   UNL     1       6.437  25.703  58.755  1.00  0.00     0.313 HD
HETATM    9  H   UNL     1       7.377  26.976  58.347  1.00  0.00     0.313 HD
ENDBRANCH   1   7
BRANCH   1  10
HETATM   10  C   UNL     1       8.449  24.142  57.079  1.00  0.00     0.079 C 
BRANCH  10  11
HETATM   11  C   UNL     1       8.381  23.159  55.929  1.00  0.00    -0.056 A 
HETATM   12  C   UNL     1       8.488  23.599  54.602  1.00  0.00     0.009 A 
HETATM   13  C   UNL     1       8.434  22.687  53.546  1.00  0.00     0.024 A 
HETATM   14  C   UNL     1       8.272  21.330  53.809  1.00  0.00     0.034 A 
HETATM   15 CL   UNL     1       8.203  20.206  52.508  1.00  0.00    -0.084 Cl
HETATM   16  C   UNL     1       8.163  20.876  55.121  1.00  0.00     0.024 A 
HETATM   17  C   UNL     1       8.220  21.787  56.178  1.00  0.00     0.009 A 
ENDBRANCH  10  11
ENDBRANCH   1  10
BRANCH   4  18
HETATM   18  C   UNL     1       5.103  27.644  54.232  1.00  0.00     0.045 A 
HETATM   19  C   UNL     1       4.388  28.803  54.597  1.00  0.00     0.047 A 
HETATM   20  C   UNL     1       3.629  29.519  53.677  1.00  0.00     0.092 A 
HETATM   21  N   UNL     1       3.544  29.131  52.402  1.00  0.00    -0.351 N 
HETATM   22  H   UNL     1       2.982  29.659  51.736  1.00  0.00     0.166 HD
HETATM   23  C   UNL     1       4.209  28.015  52.014  1.00  0.00     0.117 A 
HETATM   24  N   UNL     1       4.230  27.454  50.764  1.00  0.00    -0.352 N 
HETATM   25  C   UNL     1       4.984  27.249  52.873  1.00  0.00     0.036 A 
HETATM   26  H   UNL     1       3.760  27.792  49.934  1.00  0.00     0.166 HD
HETATM   27  C   UNL     1       4.993  26.314  50.802  1.00  0.00     0.090 A 
HETATM   28  C   UNL     1       5.459  26.157  52.090  1.00  0.00     0.034 A 
ENDBRANCH   4  18
TORSDOF 4
ENDMDL
MODEL 6
REMARK VINA RESULT:      -8.5      4.525      6.811
REMARK  4 active torsions:
REMARK  status: ('A' for Active; 'I' for Inactive)
REMARK    1  A    between atoms: N_1  and  C_2 
REMARK    2  A    between atoms: C_2  and  C_3 
REMARK    3  A    between atoms: C_3  and  C_4 
REMARK    4  A    between atoms: N_13  and  C_16 
ROOT
HETATM    1  C   UNL     1       5.414  26.554  52.363  1.00  0.00     0.162 C 
HETATM    2  C   UNL     1       5.748  26.033  50.940  1.00  0.00     0.061 C 
HETATM    3  C   UNL     1       4.718  26.420  49.876  1.00  0.00     0.125 C 
HETATM    4  N   UNL     1       4.517  27.873  49.914  1.00  0.00    -0.380 N 
HETATM    5  C   UNL     1       3.999  28.358  51.206  1.00  0.00     0.125 C 
HETATM    6  C   UNL     1       5.026  28.049  52.293  1.00  0.00     0.061 C 
ENDROOT
BRANCH   1   7
HETATM    7  N   UNL     1       4.290  25.776  52.920  1.00  0.00     0.088 N 
HETATM    8  H   UNL     1       3.402  26.226  52.700  1.00  0.00     0.313 HD
HETATM    9  H   UNL     1       4.339  25.700  53.932  1.00  0.00     0.313 HD
ENDBRANCH   1   7
BRANCH   1  10
HETATM   10  C   UNL     1       6.685  26.353  53.255  1.00  0.00     0.079 C 
BRANCH  10  11
HETATM   11  C   UNL     1       7.036  24.931  53.638  1.00  0.00    -0.056 A 
HETATM   12  C   UNL     1       6.865  24.479  54.954  1.00  0.00     0.009 A 
HETATM   13  C   UNL     1       7.181  23.164  55.299  1.00  0.00     0.024 A 
HETATM   14  C   UNL     1       7.672  22.291  54.332  1.00  0.00     0.034 A 
HETATM   15 CL   UNL     1       8.063  20.671  54.757  1.00  0.00    -0.084 Cl
HETATM   16  C   UNL     1       7.849  22.724  53.020  1.00  0.00     0.024 A 
HETATM   17  C   UNL     1       7.529  24.039  52.673  1.00  0.00     0.009 A 
ENDBRANCH  10  11
ENDBRANCH   1  10
BRANCH   4  18
HETATM   18  C   UNL     1       4.088  28.558  48.786  1.00  0.00     0.045 A 
HETATM   19  C   UNL     1       4.781  29.665  48.256  1.00  0.00     0.047 A 
HETATM   20  C   UNL     1       4.314  30.364  47.148  1.00  0.00     0.092 A 
HETATM   21  N   UNL     1       3.178  30.014  46.540  1.00  0.00    -0.351 N 
HETATM   22  H   UNL     1       2.841  30.534  45.732  1.00  0.00     0.166 HD
HETATM   23  C   UNL     1       2.476  28.960  47.027  1.00  0.00     0.117 A 
HETATM   24  N   UNL     1       1.290  28.464  46.554  1.00  0.00    -0.352 N 
HETATM   25  C   UNL     1       2.877  28.217  48.128  1.00  0.00     0.036 A 
HETATM   26  H   UNL     1       0.759  28.801  45.760  1.00  0.00     0.166 HD
HETATM   27  C   UNL     1       0.898  27.417  47.349  1.00  0.00     0.090 A 
HETATM   28  C   UNL     1       1.850  27.250  48.332  1.00  0.00     0.034 A 
ENDBRANCH   4  18
TORSDOF 4
ENDMDL
MODEL 7
REMARK VINA RESULT:      -8.5      6.560     11.202
REMARK  4 active torsions:
REMARK  status: ('A' for Active; 'I' for Inactive)
REMARK    1  A    between atoms: N_1  and  C_2 
REMARK    2  A    between atoms: C_2  and  C_3 
REMARK    3  A    between atoms: C_3  and  C_4 
REMARK    4  A    between atoms: N_13  and  C_16 
ROOT
HETATM    1  C   UNL     1       6.826  32.564  61.727  1.00  0.00     0.162 C 
HETATM    2  C   UNL     1       8.290  32.092  61.939  1.00  0.00     0.061 C 
HETATM    3  C   UNL     1       8.685  30.883  61.088  1.00  0.00     0.125 C 
HETATM    4  N   UNL     1       8.382  31.171  59.682  1.00  0.00    -0.380 N 
HETATM    5  C   UNL     1       6.951  31.419  59.431  1.00  0.00     0.125 C 
HETATM    6  C   UNL     1       6.524  32.659  60.214  1.00  0.00     0.061 C 
ENDROOT
BRANCH   1   7
HETATM    7  N   UNL     1       5.904  31.599  62.357  1.00  0.00     0.088 N 
HETATM    8  H   UNL     1       5.757  30.796  61.747  1.00  0.00     0.313 HD
HETATM    9  H   UNL     1       4.990  32.004  62.538  1.00  0.00     0.313 HD
ENDBRANCH   1   7
BRANCH   1  10
HETATM   10  C   UNL     1       6.673  33.963  62.412  1.00  0.00     0.079 C 
BRANCH  10  11
HETATM   11  C   UNL     1       6.226  33.973  63.859  1.00  0.00    -0.056 A 
HETATM   12  C   UNL     1       7.159  33.850  64.898  1.00  0.00     0.009 A 
HETATM   13  C   UNL     1       6.743  33.871  66.231  1.00  0.00     0.024 A 
HETATM   14  C   UNL     1       5.391  34.013  66.533  1.00  0.00     0.034 A 
HETATM   15 CL   UNL     1       4.877  34.036  68.174  1.00  0.00    -0.084 Cl
HETATM   16  C   UNL     1       4.451  34.135  65.512  1.00  0.00     0.024 A 
HETATM   17  C   UNL     1       4.868  34.118  64.179  1.00  0.00     0.009 A 
ENDBRANCH  10  11
ENDBRANCH   1  10
BRANCH   4  18
HETATM   18  C   UNL     1       9.081  30.540  58.662  1.00  0.00     0.045 A 
HETATM   19  C   UNL     1      10.304  31.027  58.160  1.00  0.00     0.047 A 
HETATM   20  C   UNL     1      10.970  30.402  57.111  1.00  0.00     0.092 A 
HETATM   21  N   UNL     1      10.470  29.308  56.530  1.00  0.00    -0.351 N 
HETATM   22  H   UNL     1      10.962  28.860  55.760  1.00  0.00     0.166 HD
HETATM   23  C   UNL     1       9.289  28.815  56.978  1.00  0.00     0.117 A 
HETATM   24  N   UNL     1       8.614  27.721  56.504  1.00  0.00    -0.352 N 
HETATM   25  C   UNL     1       8.567  29.383  58.018  1.00  0.00     0.036 A 
HETATM   26  H   UNL     1       8.898  27.107  55.750  1.00  0.00     0.166 HD
HETATM   27  C   UNL     1       7.444  27.582  57.207  1.00  0.00     0.090 A 
HETATM   28  C   UNL     1       7.384  28.598  58.137  1.00  0.00     0.034 A 
ENDBRANCH   4  18
TORSDOF 4
ENDMDL
MODEL 8
REMARK VINA RESULT:      -8.4      2.054      3.721
REMARK  4 active torsions:
REMARK  status: ('A' for Active; 'I' for Inactive)
REMARK    1  A    between atoms: N_1  and  C_2 
REMARK    2  A    between atoms: C_2  and  C_3 
REMARK    3  A    between atoms: C_3  and  C_4 
REMARK    4  A    between atoms: N_13  and  C_16 
ROOT
HETATM    1  C   UNL     1       6.973  26.819  55.318  1.00  0.00     0.162 C 
HETATM    2  C   UNL     1       7.841  26.650  56.593  1.00  0.00     0.061 C 
HETATM    3  C   UNL     1       8.560  27.928  57.033  1.00  0.00     0.125 C 
HETATM    4  N   UNL     1       7.576  29.009  57.157  1.00  0.00    -0.380 N 
HETATM    5  C   UNL     1       6.887  29.320  55.892  1.00  0.00     0.125 C 
HETATM    6  C   UNL     1       6.102  28.089  55.445  1.00  0.00     0.061 C 
ENDROOT
BRANCH   1   7
HETATM    7  N   UNL     1       7.853  26.936  54.138  1.00  0.00     0.088 N 
HETATM    8  H   UNL     1       8.582  26.224  54.166  1.00  0.00     0.313 HD
HETATM    9  H   UNL     1       8.321  27.836  54.096  1.00  0.00     0.313 HD
ENDBRANCH   1   7
BRANCH   1  10
HETATM   10  C   UNL     1       6.076  25.543  55.180  1.00  0.00     0.079 C 
BRANCH  10  11
HETATM   11  C   UNL     1       6.747  24.285  54.670  1.00  0.00    -0.056 A 
HETATM   12  C   UNL     1       7.220  23.312  55.562  1.00  0.00     0.009 A 
HETATM   13  C   UNL     1       7.828  22.149  55.086  1.00  0.00     0.024 A 
HETATM   14  C   UNL     1       7.969  21.951  53.715  1.00  0.00     0.034 A 
HETATM   15 CL   UNL     1       8.721  20.520  53.128  1.00  0.00    -0.084 Cl
HETATM   16  C   UNL     1       7.506  22.908  52.815  1.00  0.00     0.024 A 
HETATM   17  C   UNL     1       6.894  24.070  53.291  1.00  0.00     0.009 A 
ENDBRANCH  10  11
ENDBRANCH   1  10
BRANCH   4  18
HETATM   18  C   UNL     1       7.804  30.080  58.009  1.00  0.00     0.045 A 
HETATM   19  C   UNL     1       9.070  30.358  58.565  1.00  0.00     0.047 A 
HETATM   20  C   UNL     1       9.270  31.414  59.448  1.00  0.00     0.092 A 
HETATM   21  N   UNL     1       8.261  32.210  59.811  1.00  0.00    -0.351 N 
HETATM   22  H   UNL     1       8.416  32.978  60.462  1.00  0.00     0.166 HD
HETATM   23  C   UNL     1       7.026  31.968  59.306  1.00  0.00     0.117 A 
HETATM   24  N   UNL     1       5.872  32.659  59.571  1.00  0.00    -0.352 N 
HETATM   25  C   UNL     1       6.749  30.935  58.423  1.00  0.00     0.036 A 
HETATM   26  H   UNL     1       5.766  33.463  60.177  1.00  0.00     0.166 HD
HETATM   27  C   UNL     1       4.837  32.073  58.887  1.00  0.00     0.090 A 
HETATM   28  C   UNL     1       5.346  31.003  58.181  1.00  0.00     0.034 A 
ENDBRANCH   4  18
TORSDOF 4
ENDMDL
MODEL 9
REMARK VINA RESULT:      -8.4      1.402      2.052
REMARK  4 active torsions:
REMARK  status: ('A' for Active; 'I' for Inactive)
REMARK    1  A    between atoms: N_1  and  C_2 
REMARK    2  A    between atoms: C_2  and  C_3 
REMARK    3  A    between atoms: C_3  and  C_4 
REMARK    4  A    between atoms: N_13  and  C_16 
ROOT
HETATM    1  C   UNL     1       6.229  26.143  54.147  1.00  0.00     0.162 C 
HETATM    2  C   UNL     1       6.070  27.590  53.610  1.00  0.00     0.061 C 
HETATM    3  C   UNL     1       5.073  28.442  54.399  1.00  0.00     0.125 C 
HETATM    4  N   UNL     1       5.433  28.403  55.821  1.00  0.00    -0.380 N 
HETATM    5  C   UNL     1       5.387  27.047  56.398  1.00  0.00     0.125 C 
HETATM    6  C   UNL     1       6.414  26.174  55.682  1.00  0.00     0.061 C 
ENDROOT
BRANCH   1   7
HETATM    7  N   UNL     1       5.026  25.358  53.808  1.00  0.00     0.088 N 
HETATM    8  H   UNL     1       5.234  24.360  53.831  1.00  0.00     0.313 HD
HETATM    9  H   UNL     1       4.682  25.566  52.876  1.00  0.00     0.313 HD
ENDBRANCH   1   7
BRANCH   1  10
HETATM   10  C   UNL     1       7.481  25.512  53.451  1.00  0.00     0.079 C 
BRANCH  10  11
HETATM   11  C   UNL     1       7.826  24.084  53.820  1.00  0.00    -0.056 A 
HETATM   12  C   UNL     1       8.352  23.777  55.083  1.00  0.00     0.009 A 
HETATM   13  C   UNL     1       8.658  22.458  55.422  1.00  0.00     0.024 A 
HETATM   14  C   UNL     1       8.442  21.437  54.500  1.00  0.00     0.034 A 
HETATM   15 CL   UNL     1       8.821  19.811  54.916  1.00  0.00    -0.084 Cl
HETATM   16  C   UNL     1       7.919  21.724  53.242  1.00  0.00     0.024 A 
HETATM   17  C   UNL     1       7.610  23.044  52.904  1.00  0.00     0.009 A 
ENDBRANCH  10  11
ENDBRANCH   1  10
BRANCH   4  18
HETATM   18  C   UNL     1       5.081  29.442  56.670  1.00  0.00     0.045 A 
HETATM   19  C   UNL     1       3.811  30.051  56.645  1.00  0.00     0.047 A 
HETATM   20  C   UNL     1       3.489  31.118  57.478  1.00  0.00     0.092 A 
HETATM   21  N   UNL     1       4.381  31.614  58.339  1.00  0.00    -0.351 N 
HETATM   22  H   UNL     1       4.139  32.398  58.942  1.00  0.00     0.166 HD
HETATM   23  C   UNL     1       5.619  31.061  58.386  1.00  0.00     0.117 A 
HETATM   24  N   UNL     1       6.666  31.439  59.185  1.00  0.00    -0.352 N 
HETATM   25  C   UNL     1       6.013  29.998  57.587  1.00  0.00     0.036 A 
HETATM   26  H   UNL     1       6.674  32.183  59.871  1.00  0.00     0.166 HD
HETATM   27  C   UNL     1       7.750  30.648  58.899  1.00  0.00     0.090 A 
HETATM   28  C   UNL     1       7.380  29.760  57.911  1.00  0.00     0.034 A 
ENDBRANCH   4  18
TORSDOF 4
ENDMDL
MODEL 10
REMARK VINA RESULT:      -8.4      3.807      5.601
REMARK  4 active torsions:
REMARK  status: ('A' for Active; 'I' for Inactive)
REMARK    1  A    between atoms: N_1  and  C_2 
REMARK    2  A    between atoms: C_2  and  C_3 
REMARK    3  A    between atoms: C_3  and  C_4 
REMARK    4  A    between atoms: N_13  and  C_16 
ROOT
HETATM    1  C   UNL     1       5.792  26.033  52.902  1.00  0.00     0.162 C 
HETATM    2  C   UNL     1       6.061  25.661  51.420  1.00  0.00     0.061 C 
HETATM    3  C   UNL     1       4.987  26.155  50.448  1.00  0.00     0.125 C 
HETATM    4  N   UNL     1       4.793  27.595  50.644  1.00  0.00    -0.380 N 
HETATM    5  C   UNL     1       4.335  27.945  52.000  1.00  0.00     0.125 C 
HETATM    6  C   UNL     1       5.407  27.526  53.004  1.00  0.00     0.061 C 
ENDROOT
BRANCH   1   7
HETATM    7  N   UNL     1       4.691  25.200  53.425  1.00  0.00     0.088 N 
HETATM    8  H   UNL     1       4.948  24.793  54.323  1.00  0.00     0.313 HD
HETATM    9  H   UNL     1       4.466  24.427  52.805  1.00  0.00     0.313 HD
ENDBRANCH   1   7
BRANCH   1  10
HETATM   10  C   UNL     1       7.100  25.742  53.711  1.00  0.00     0.079 C 
BRANCH  10  11
HETATM   11  C   UNL     1       7.421  24.290  53.998  1.00  0.00    -0.056 A 
HETATM   12  C   UNL     1       7.905  23.448  52.986  1.00  0.00     0.009 A 
HETATM   13  C   UNL     1       8.209  22.113  53.259  1.00  0.00     0.024 A 
HETATM   14  C   UNL     1       8.028  21.609  54.545  1.00  0.00     0.034 A 
HETATM   15 CL   UNL     1       8.400  19.964  54.881  1.00  0.00    -0.084 Cl
HETATM   16  C   UNL     1       7.548  22.431  55.561  1.00  0.00     0.024 A 
HETATM   17  C   UNL     1       7.247  23.768  55.289  1.00  0.00     0.009 A 
ENDBRANCH  10  11
ENDBRANCH   1  10
BRANCH   4  18
HETATM   18  C   UNL     1       4.318  28.394  49.613  1.00  0.00     0.045 A 
HETATM   19  C   UNL     1       3.339  27.956  48.698  1.00  0.00     0.047 A 
HETATM   20  C   UNL     1       2.903  28.757  47.647  1.00  0.00     0.092 A 
HETATM   21  N   UNL     1       3.402  29.981  47.460  1.00  0.00    -0.351 N 
HETATM   22  H   UNL     1       3.081  30.558  46.685  1.00  0.00     0.166 HD
HETATM   23  C   UNL     1       4.354  30.434  48.313  1.00  0.00     0.117 A 
HETATM   24  N   UNL     1       4.993  31.646  48.275  1.00  0.00    -0.352 N 
HETATM   25  C   UNL     1       4.839  29.694  49.382  1.00  0.00     0.036 A 
HETATM   26  H   UNL     1       4.846  32.394  47.608  1.00  0.00     0.166 HD
HETATM   27  C   UNL     1       5.910  31.696  49.294  1.00  0.00     0.090 A 
HETATM   28  C   UNL     1       5.845  30.505  49.984  1.00  0.00     0.034 A 
ENDBRANCH   4  18
TORSDOF 4
ENDMDL
