MODEL 1
REMARK VINA RESULT:      -8.2      0.000      0.000
REMARK  7 active torsions:
REMARK  status: ('A' for Active; 'I' for Inactive)
REMARK    1  A    between atoms: C_2  and  N_3 
REMARK    2  A    between atoms: C_6  and  C_7 
REMARK    3  A    between atoms: C_7  and  O_8 
REMARK    4  A    between atoms: O_8  and  C_9 
REMARK    5  A    between atoms: C_9  and  C_10 
REMARK    6  A    between atoms: C_12  and  N_13 
REMARK    7  A    between atoms: C_22  and  N_23 
ROOT
HETATM    1  O   UNL     1       8.372  27.057  57.113  1.00  0.00    -0.310 OA
ENDROOT
BRANCH   1   2
HETATM    2  C   UNL     1       7.747  28.177  57.583  1.00  0.00     0.299 C 
HETATM    3  O   UNL     1       8.075  28.771  58.603  1.00  0.00    -0.259 OA
BRANCH   2   4
HETATM    4  C   UNL     1       6.623  28.590  56.768  1.00  0.00     0.103 A 
HETATM    5  C   UNL     1       5.333  28.922  57.241  1.00  0.00     0.160 A 
HETATM    6  N   UNL     1       4.488  29.256  56.266  1.00  0.00    -0.182 NA
HETATM    7  N   UNL     1       5.218  29.091  55.141  1.00  0.00    -0.250 N 
HETATM    8  C   UNL     1       6.532  28.749  55.395  1.00  0.00     0.136 A 
BRANCH   7   9
HETATM    9  C   UNL     1       4.577  29.272  53.840  1.00  0.00     0.104 C 
HETATM   10  C   UNL     1       3.654  30.488  53.855  1.00  0.00     0.034 C 
HETATM   11  C   UNL     1       3.833  28.018  53.372  1.00  0.00     0.034 C 
ENDBRANCH   7   9
BRANCH   8  12
HETATM   12  N   UNL     1       7.462  28.599  54.423  1.00  0.00    -0.383 N 
HETATM   13  H   UNL     1       7.207  28.852  53.466  1.00  0.00     0.157 HD
HETATM   14  H   UNL     1       8.152  27.854  54.448  1.00  0.00     0.157 HD
ENDBRANCH   8  12
ENDBRANCH   2   4
ENDBRANCH   1   2
BRANCH   1  15
HETATM   15  C   UNL     1       7.596  25.854  57.226  1.00  0.00     0.259 C 
BRANCH  15  16
HETATM   16  C   UNL     1       7.714  24.913  56.044  1.00  0.00     0.152 A 
HETATM   17  N   UNL     1       7.736  25.438  54.805  1.00  0.00    -0.219 NA
HETATM   18  C   UNL     1       7.830  24.571  53.789  1.00  0.00     0.115 A 
HETATM   19  C   UNL     1       7.861  23.182  53.959  1.00  0.00     0.033 A 
HETATM   20  C   UNL     1       7.812  22.748  55.288  1.00  0.00     0.072 A 
HETATM   21  C   UNL     1       7.928  22.232  52.909  1.00  0.00     0.017 A 
HETATM   22  N   UNL     1       7.732  23.594  56.319  1.00  0.00    -0.231 NA
HETATM   23  C   UNL     1       7.845  21.382  55.539  1.00  0.00     0.032 A 
HETATM   24  C   UNL     1       7.921  20.440  54.507  1.00  0.00     0.002 A 
HETATM   25  C   UNL     1       7.960  20.867  53.187  1.00  0.00     0.001 A 
BRANCH  18  26
HETATM   26  N   UNL     1       7.878  25.159  52.518  1.00  0.00    -0.286 NA
HETATM   27  H   UNL     1       8.773  25.639  52.453  1.00  0.00     0.125 HD
HETATM   28  H   UNL     1       7.787  24.455  51.794  1.00  0.00     0.125 HD
ENDBRANCH  18  26
ENDBRANCH  15  16
ENDBRANCH   1  15
TORSDOF 7
ENDMDL
MODEL 2
REMARK VINA RESULT:      -8.2      2.928      4.313
REMARK  7 active torsions:
REMARK  status: ('A' for Active; 'I' for Inactive)
REMARK    1  A    between atoms: C_2  and  N_3 
REMARK    2  A    between atoms: C_6  and  C_7 
REMARK    3  A    between atoms: C_7  and  O_8 
REMARK    4  A    between atoms: O_8  and  C_9 
REMARK    5  A    between atoms: C_9  and  C_10 
REMARK    6  A    between atoms: C_12  and  N_13 
REMARK    7  A    between atoms: C_22  and  N_23 
ROOT
HETATM    1  O   UNL     1       8.482  27.667  56.823  1.00  0.00    -0.310 OA
ENDROOT
BRANCH   1   2
HETATM    2  C   UNL     1       8.904  28.848  56.286  1.00  0.00     0.299 C 
HETATM    3  O   UNL     1       8.966  29.075  55.083  1.00  0.00    -0.259 OA
BRANCH   2   4
HETATM    4  C   UNL     1       9.309  29.819  57.283  1.00  0.00     0.103 A 
HETATM    5  C   UNL     1      10.444  30.658  57.210  1.00  0.00     0.160 A 
HETATM    6  N   UNL     1      10.581  31.448  58.276  1.00  0.00    -0.182 NA
HETATM    7  N   UNL     1       9.554  31.083  59.076  1.00  0.00    -0.250 N 
HETATM    8  C   UNL     1       8.722  30.146  58.493  1.00  0.00     0.136 A 
BRANCH   7   9
HETATM    9  C   UNL     1       9.439  31.676  60.407  1.00  0.00     0.104 C 
HETATM   10  C   UNL     1       9.442  30.594  61.484  1.00  0.00     0.034 C 
HETATM   11  C   UNL     1       8.214  32.586  60.540  1.00  0.00     0.034 C 
ENDBRANCH   7   9
BRANCH   8  12
HETATM   12  N   UNL     1       7.594  29.686  59.084  1.00  0.00    -0.383 N 
HETATM   13  H   UNL     1       6.748  30.256  59.023  1.00  0.00     0.157 HD
HETATM   14  H   UNL     1       7.619  29.132  59.936  1.00  0.00     0.157 HD
ENDBRANCH   8  12
ENDBRANCH   2   4
ENDBRANCH   1   2
BRANCH   1  15
HETATM   15  C   UNL     1       7.276  27.148  56.242  1.00  0.00     0.259 C 
BRANCH  15  16
HETATM   16  C   UNL     1       7.477  25.954  55.330  1.00  0.00     0.152 A 
HETATM   17  N   UNL     1       7.558  26.167  54.003  1.00  0.00    -0.219 NA
HETATM   18  C   UNL     1       7.723  25.084  53.233  1.00  0.00     0.115 A 
HETATM   19  C   UNL     1       7.769  23.778  53.735  1.00  0.00     0.033 A 
HETATM   20  C   UNL     1       7.654  23.675  55.125  1.00  0.00     0.072 A 
HETATM   21  C   UNL     1       7.911  22.606  52.951  1.00  0.00     0.017 A 
HETATM   22  N   UNL     1       7.502  24.742  55.915  1.00  0.00    -0.231 NA
HETATM   23  C   UNL     1       7.697  22.411  55.700  1.00  0.00     0.032 A 
HETATM   24  C   UNL     1       7.847  21.252  54.931  1.00  0.00     0.002 A 
HETATM   25  C   UNL     1       7.952  21.350  53.551  1.00  0.00     0.001 A 
BRANCH  18  26
HETATM   26  N   UNL     1       7.832  25.350  51.862  1.00  0.00    -0.286 NA
HETATM   27  H   UNL     1       7.635  26.341  51.740  1.00  0.00     0.125 HD
HETATM   28  H   UNL     1       8.759  25.117  51.524  1.00  0.00     0.125 HD
ENDBRANCH  18  26
ENDBRANCH  15  16
ENDBRANCH   1  15
TORSDOF 7
ENDMDL
MODEL 3
REMARK VINA RESULT:      -8.2      3.160      4.808
REMARK  7 active torsions:
REMARK  status: ('A' for Active; 'I' for Inactive)
REMARK    1  A    between atoms: C_2  and  N_3 
REMARK    2  A    between atoms: C_6  and  C_7 
REMARK    3  A    between atoms: C_7  and  O_8 
REMARK    4  A    between atoms: O_8  and  C_9 
REMARK    5  A    between atoms: C_9  and  C_10 
REMARK    6  A    between atoms: C_12  and  N_13 
REMARK    7  A    between atoms: C_22  and  N_23 
ROOT
HETATM    1  O   UNL     1       8.132  28.361  56.796  1.00  0.00    -0.310 OA
ENDROOT
BRANCH   1   2
HETATM    2  C   UNL     1       8.996  29.351  56.426  1.00  0.00     0.299 C 
HETATM    3  O   UNL     1       9.461  29.473  55.298  1.00  0.00    -0.259 OA
BRANCH   2   4
HETATM    4  C   UNL     1       9.343  30.245  57.511  1.00  0.00     0.103 A 
HETATM    5  C   UNL     1      10.463  31.106  57.550  1.00  0.00     0.160 A 
HETATM    6  N   UNL     1      10.545  31.809  58.680  1.00  0.00    -0.182 NA
HETATM    7  N   UNL     1       9.497  31.363  59.408  1.00  0.00    -0.250 N 
HETATM    8  C   UNL     1       8.706  30.463  58.721  1.00  0.00     0.136 A 
BRANCH   7   9
HETATM    9  C   UNL     1       9.320  31.845  60.777  1.00  0.00     0.104 C 
HETATM   10  C   UNL     1       9.412  30.691  61.773  1.00  0.00     0.034 C 
HETATM   11  C   UNL     1       8.019  32.631  60.959  1.00  0.00     0.034 C 
ENDBRANCH   7   9
BRANCH   8  12
HETATM   12  N   UNL     1       7.566  29.937  59.229  1.00  0.00    -0.383 N 
HETATM   13  H   UNL     1       7.462  29.897  60.244  1.00  0.00     0.157 HD
HETATM   14  H   UNL     1       7.067  29.183  58.765  1.00  0.00     0.157 HD
ENDBRANCH   8  12
ENDBRANCH   2   4
ENDBRANCH   1   2
BRANCH   1  15
HETATM   15  C   UNL     1       7.448  27.730  55.702  1.00  0.00     0.259 C 
BRANCH  15  16
HETATM   16  C   UNL     1       7.629  26.227  55.626  1.00  0.00     0.152 A 
HETATM   17  N   UNL     1       7.923  25.558  56.757  1.00  0.00    -0.219 NA
HETATM   18  C   UNL     1       8.087  24.234  56.643  1.00  0.00     0.115 A 
HETATM   19  C   UNL     1       8.009  23.547  55.426  1.00  0.00     0.033 A 
HETATM   20  C   UNL     1       7.719  24.345  54.314  1.00  0.00     0.072 A 
HETATM   21  C   UNL     1       8.206  22.154  55.260  1.00  0.00     0.017 A 
HETATM   22  N   UNL     1       7.539  25.667  54.405  1.00  0.00    -0.231 NA
HETATM   23  C   UNL     1       7.619  23.736  53.070  1.00  0.00     0.032 A 
HETATM   24  C   UNL     1       7.803  22.359  52.902  1.00  0.00     0.002 A 
HETATM   25  C   UNL     1       8.101  21.565  54.001  1.00  0.00     0.001 A 
BRANCH  18  26
HETATM   26  N   UNL     1       8.364  23.571  57.846  1.00  0.00    -0.286 NA
HETATM   27  H   UNL     1       8.394  22.576  57.631  1.00  0.00     0.125 HD
HETATM   28  H   UNL     1       9.244  23.888  58.235  1.00  0.00     0.125 HD
ENDBRANCH  18  26
ENDBRANCH  15  16
ENDBRANCH   1  15
TORSDOF 7
ENDMDL
MODEL 4
REMARK VINA RESULT:      -8.1      3.015      4.308
REMARK  7 active torsions:
REMARK  status: ('A' for Active; 'I' for Inactive)
REMARK    1  A    between atoms: C_2  and  N_3 
REMARK    2  A    between atoms: C_6  and  C_7 
REMARK    3  A    between atoms: C_7  and  O_8 
REMARK    4  A    between atoms: O_8  and  C_9 
REMARK    5  A    between atoms: C_9  and  C_10 
REMARK    6  A    between atoms: C_12  and  N_13 
REMARK    7  A    between atoms: C_22  and  N_23 
ROOT
HETATM    1  O   UNL     1       6.681  27.597  53.616  1.00  0.00    -0.310 OA
ENDROOT
BRANCH   1   2
HETATM    2  C   UNL     1       5.341  27.770  53.424  1.00  0.00     0.299 C 
HETATM    3  O   UNL     1       4.535  27.960  54.327  1.00  0.00    -0.259 OA
BRANCH   2   4
HETATM    4  C   UNL     1       4.945  27.680  52.033  1.00  0.00     0.103 A 
HETATM    5  C   UNL     1       3.977  28.487  51.393  1.00  0.00     0.160 A 
HETATM    6  N   UNL     1       3.804  28.176  50.107  1.00  0.00    -0.182 NA
HETATM    7  N   UNL     1       4.629  27.123  49.921  1.00  0.00    -0.250 N 
HETATM    8  C   UNL     1       5.386  26.824  51.038  1.00  0.00     0.136 A 
BRANCH   7   9
HETATM    9  C   UNL     1       4.632  26.436  48.630  1.00  0.00     0.104 C 
HETATM   10  C   UNL     1       5.005  27.399  47.505  1.00  0.00     0.034 C 
HETATM   11  C   UNL     1       3.305  25.731  48.337  1.00  0.00     0.034 C 
ENDBRANCH   7   9
BRANCH   8  12
HETATM   12  N   UNL     1       6.327  25.851  51.059  1.00  0.00    -0.383 N 
HETATM   13  H   UNL     1       7.268  26.081  50.734  1.00  0.00     0.157 HD
HETATM   14  H   UNL     1       6.096  24.875  50.898  1.00  0.00     0.157 HD
ENDBRANCH   8  12
ENDBRANCH   2   4
ENDBRANCH   1   2
BRANCH   1  15
HETATM   15  C   UNL     1       7.043  27.200  54.948  1.00  0.00     0.259 C 
BRANCH  15  16
HETATM   16  C   UNL     1       7.357  25.726  55.105  1.00  0.00     0.152 A 
HETATM   17  N   UNL     1       7.688  25.267  56.326  1.00  0.00    -0.219 NA
HETATM   18  C   UNL     1       7.971  23.960  56.418  1.00  0.00     0.115 A 
HETATM   19  C   UNL     1       7.977  23.092  55.320  1.00  0.00     0.033 A 
HETATM   20  C   UNL     1       7.637  23.681  54.098  1.00  0.00     0.072 A 
HETATM   21  C   UNL     1       8.299  21.713  55.372  1.00  0.00     0.017 A 
HETATM   22  N   UNL     1       7.339  24.979  53.984  1.00  0.00    -0.231 NA
HETATM   23  C   UNL     1       7.615  22.882  52.962  1.00  0.00     0.032 A 
HETATM   24  C   UNL     1       7.922  21.519  53.009  1.00  0.00     0.002 A 
HETATM   25  C   UNL     1       8.269  20.932  54.218  1.00  0.00     0.001 A 
BRANCH  18  26
HETATM   26  N   UNL     1       8.283  23.517  57.710  1.00  0.00    -0.286 NA
HETATM   27  H   UNL     1       8.699  22.594  57.609  1.00  0.00     0.125 HD
HETATM   28  H   UNL     1       8.922  24.159  58.164  1.00  0.00     0.125 HD
ENDBRANCH  18  26
ENDBRANCH  15  16
ENDBRANCH   1  15
TORSDOF 7
ENDMDL
MODEL 5
REMARK VINA RESULT:      -8.0      2.677      4.124
REMARK  7 active torsions:
REMARK  status: ('A' for Active; 'I' for Inactive)
REMARK    1  A    between atoms: C_2  and  N_3 
REMARK    2  A    between atoms: C_6  and  C_7 
REMARK    3  A    between atoms: C_7  and  O_8 
REMARK    4  A    between atoms: O_8  and  C_9 
REMARK    5  A    between atoms: C_9  and  C_10 
REMARK    6  A    between atoms: C_12  and  N_13 
REMARK    7  A    between atoms: C_22  and  N_23 
ROOT
HETATM    1  O   UNL     1       5.258  27.828  57.142  1.00  0.00    -0.310 OA
ENDROOT
BRANCH   1   2
HETATM    2  C   UNL     1       5.164  29.174  56.937  1.00  0.00     0.299 C 
HETATM    3  O   UNL     1       4.314  29.706  56.232  1.00  0.00    -0.259 OA
BRANCH   2   4
HETATM    4  C   UNL     1       6.196  29.931  57.616  1.00  0.00     0.103 A 
HETATM    5  C   UNL     1       6.099  31.278  58.032  1.00  0.00     0.160 A 
HETATM    6  N   UNL     1       7.207  31.725  58.623  1.00  0.00    -0.182 NA
HETATM    7  N   UNL     1       8.054  30.675  58.546  1.00  0.00    -0.250 N 
HETATM    8  C   UNL     1       7.470  29.548  58.002  1.00  0.00     0.136 A 
BRANCH   7   9
HETATM    9  C   UNL     1       9.431  30.831  59.013  1.00  0.00     0.104 C 
HETATM   10  C   UNL     1       9.526  31.936  60.062  1.00  0.00     0.034 C 
HETATM   11  C   UNL     1      10.416  31.073  57.865  1.00  0.00     0.034 C 
ENDBRANCH   7   9
BRANCH   8  12
HETATM   12  N   UNL     1       8.110  28.360  57.889  1.00  0.00    -0.383 N 
HETATM   13  H   UNL     1       7.597  27.509  58.125  1.00  0.00     0.157 HD
HETATM   14  H   UNL     1       9.106  28.266  58.067  1.00  0.00     0.157 HD
ENDBRANCH   8  12
ENDBRANCH   2   4
ENDBRANCH   1   2
BRANCH   1  15
HETATM   15  C   UNL     1       5.119  27.036  55.952  1.00  0.00     0.259 C 
BRANCH  15  16
HETATM   16  C   UNL     1       6.118  25.903  55.826  1.00  0.00     0.152 A 
HETATM   17  N   UNL     1       6.941  25.657  56.862  1.00  0.00    -0.219 NA
HETATM   18  C   UNL     1       7.817  24.655  56.705  1.00  0.00     0.115 A 
HETATM   19  C   UNL     1       7.933  23.908  55.527  1.00  0.00     0.033 A 
HETATM   20  C   UNL     1       7.041  24.264  54.510  1.00  0.00     0.072 A 
HETATM   21  C   UNL     1       8.866  22.863  55.312  1.00  0.00     0.017 A 
HETATM   22  N   UNL     1       6.150  25.251  54.649  1.00  0.00    -0.231 NA
HETATM   23  C   UNL     1       7.090  23.564  53.312  1.00  0.00     0.032 A 
HETATM   24  C   UNL     1       8.002  22.525  53.098  1.00  0.00     0.002 A 
HETATM   25  C   UNL     1       8.895  22.175  54.101  1.00  0.00     0.001 A 
BRANCH  18  26
HETATM   26  N   UNL     1       8.636  24.412  57.815  1.00  0.00    -0.286 NA
HETATM   27  H   UNL     1       8.052  23.959  58.515  1.00  0.00     0.125 HD
HETATM   28  H   UNL     1       9.422  23.826  57.559  1.00  0.00     0.125 HD
ENDBRANCH  18  26
ENDBRANCH  15  16
ENDBRANCH   1  15
TORSDOF 7
ENDMDL
MODEL 6
REMARK VINA RESULT:      -7.7      4.052      5.666
REMARK  7 active torsions:
REMARK  status: ('A' for Active; 'I' for Inactive)
REMARK    1  A    between atoms: C_2  and  N_3 
REMARK    2  A    between atoms: C_6  and  C_7 
REMARK    3  A    between atoms: C_7  and  O_8 
REMARK    4  A    between atoms: O_8  and  C_9 
REMARK    5  A    between atoms: C_9  and  C_10 
REMARK    6  A    between atoms: C_12  and  N_13 
REMARK    7  A    between atoms: C_22  and  N_23 
ROOT
HETATM    1  O   UNL     1       8.316  29.125  58.671  1.00  0.00    -0.310 OA
ENDROOT
BRANCH   1   2
HETATM    2  C   UNL     1       8.724  30.402  58.929  1.00  0.00     0.299 C 
HETATM    3  O   UNL     1       9.665  30.951  58.368  1.00  0.00    -0.259 OA
BRANCH   2   4
HETATM    4  C   UNL     1       7.950  31.052  59.967  1.00  0.00     0.103 A 
HETATM    5  C   UNL     1       6.946  32.026  59.766  1.00  0.00     0.160 A 
HETATM    6  N   UNL     1       6.405  32.463  60.904  1.00  0.00    -0.182 NA
HETATM    7  N   UNL     1       7.099  31.807  61.859  1.00  0.00    -0.250 N 
HETATM    8  C   UNL     1       8.002  30.897  61.343  1.00  0.00     0.136 A 
BRANCH   7   9
HETATM    9  C   UNL     1       6.847  32.115  63.266  1.00  0.00     0.104 C 
HETATM   10  C   UNL     1       5.439  32.676  63.453  1.00  0.00     0.034 C 
HETATM   11  C   UNL     1       7.900  33.055  63.859  1.00  0.00     0.034 C 
ENDBRANCH   7   9
BRANCH   8  12
HETATM   12  N   UNL     1       8.758  30.081  62.114  1.00  0.00    -0.383 N 
HETATM   13  H   UNL     1       9.233  30.483  62.924  1.00  0.00     0.157 HD
HETATM   14  H   UNL     1       9.268  29.293  61.725  1.00  0.00     0.157 HD
ENDBRANCH   8  12
ENDBRANCH   2   4
ENDBRANCH   1   2
BRANCH   1  15
HETATM   15  C   UNL     1       7.804  28.924  57.344  1.00  0.00     0.259 C 
BRANCH  15  16
HETATM   16  C   UNL     1       7.786  27.480  56.886  1.00  0.00     0.152 A 
HETATM   17  N   UNL     1       8.239  26.534  57.729  1.00  0.00    -0.219 NA
HETATM   18  C   UNL     1       8.217  25.272  57.280  1.00  0.00     0.115 A 
HETATM   19  C   UNL     1       7.796  24.916  55.994  1.00  0.00     0.033 A 
HETATM   20  C   UNL     1       7.366  25.982  55.197  1.00  0.00     0.072 A 
HETATM   21  C   UNL     1       7.787  23.598  55.473  1.00  0.00     0.017 A 
HETATM   22  N   UNL     1       7.366  27.248  55.628  1.00  0.00    -0.231 NA
HETATM   23  C   UNL     1       6.926  25.709  53.908  1.00  0.00     0.032 A 
HETATM   24  C   UNL     1       6.906  24.409  53.392  1.00  0.00     0.002 A 
HETATM   25  C   UNL     1       7.341  23.350  54.176  1.00  0.00     0.001 A 
BRANCH  18  26
HETATM   26  N   UNL     1       8.670  24.314  58.198  1.00  0.00    -0.286 NA
HETATM   27  H   UNL     1       7.852  23.787  58.496  1.00  0.00     0.125 HD
HETATM   28  H   UNL     1       9.361  23.708  57.771  1.00  0.00     0.125 HD
ENDBRANCH  18  26
ENDBRANCH  15  16
ENDBRANCH   1  15
TORSDOF 7
ENDMDL
MODEL 7
REMARK VINA RESULT:      -7.7      4.271      8.370
REMARK  7 active torsions:
REMARK  status: ('A' for Active; 'I' for Inactive)
REMARK    1  A    between atoms: C_2  and  N_3 
REMARK    2  A    between atoms: C_6  and  C_7 
REMARK    3  A    between atoms: C_7  and  O_8 
REMARK    4  A    between atoms: O_8  and  C_9 
REMARK    5  A    between atoms: C_9  and  C_10 
REMARK    6  A    between atoms: C_12  and  N_13 
REMARK    7  A    between atoms: C_22  and  N_23 
ROOT
HETATM    1  O   UNL     1       6.824  29.257  57.608  1.00  0.00    -0.310 OA
ENDROOT
BRANCH   1   2
HETATM    2  C   UNL     1       7.239  27.970  57.421  1.00  0.00     0.299 C 
HETATM    3  O   UNL     1       7.811  27.300  58.273  1.00  0.00    -0.259 OA
BRANCH   2   4
HETATM    4  C   UNL     1       6.963  27.466  56.091  1.00  0.00     0.103 A 
HETATM    5  C   UNL     1       6.335  28.183  55.047  1.00  0.00     0.160 A 
HETATM    6  N   UNL     1       6.197  27.467  53.930  1.00  0.00    -0.182 NA
HETATM    7  N   UNL     1       6.692  26.256  54.265  1.00  0.00    -0.250 N 
HETATM    8  C   UNL     1       7.223  26.223  55.540  1.00  0.00     0.136 A 
BRANCH   7   9
HETATM    9  C   UNL     1       6.613  25.159  53.302  1.00  0.00     0.104 C 
HETATM   10  C   UNL     1       7.826  25.164  52.374  1.00  0.00     0.034 C 
HETATM   11  C   UNL     1       5.306  25.172  52.503  1.00  0.00     0.034 C 
ENDBRANCH   7   9
BRANCH   8  12
HETATM   12  N   UNL     1       7.833  25.133  56.063  1.00  0.00    -0.383 N 
HETATM   13  H   UNL     1       8.820  25.205  56.316  1.00  0.00     0.157 HD
HETATM   14  H   UNL     1       7.579  24.189  55.786  1.00  0.00     0.157 HD
ENDBRANCH   8  12
ENDBRANCH   2   4
ENDBRANCH   1   2
BRANCH   1  15
HETATM   15  C   UNL     1       7.886  30.192  57.855  1.00  0.00     0.259 C 
BRANCH  15  16
HETATM   16  C   UNL     1       7.974  30.686  59.284  1.00  0.00     0.152 A 
HETATM   17  N   UNL     1       8.760  30.017  60.147  1.00  0.00    -0.219 NA
HETATM   18  C   UNL     1       8.799  30.480  61.404  1.00  0.00     0.115 A 
HETATM   19  C   UNL     1       8.045  31.572  61.849  1.00  0.00     0.033 A 
HETATM   20  C   UNL     1       7.248  32.178  60.872  1.00  0.00     0.072 A 
HETATM   21  C   UNL     1       8.035  32.072  63.175  1.00  0.00     0.017 A 
HETATM   22  N   UNL     1       7.203  31.742  59.609  1.00  0.00    -0.231 NA
HETATM   23  C   UNL     1       6.474  33.273  61.235  1.00  0.00     0.032 A 
HETATM   24  C   UNL     1       6.469  33.776  62.540  1.00  0.00     0.002 A 
HETATM   25  C   UNL     1       7.251  33.172  63.514  1.00  0.00     0.001 A 
BRANCH  18  26
HETATM   26  N   UNL     1       9.650  29.773  62.264  1.00  0.00    -0.286 NA
HETATM   27  H   UNL     1       9.071  29.424  63.025  1.00  0.00     0.125 HD
HETATM   28  H   UNL     1      10.105  29.013  61.772  1.00  0.00     0.125 HD
ENDBRANCH  18  26
ENDBRANCH  15  16
ENDBRANCH   1  15
TORSDOF 7
ENDMDL
MODEL 8
REMARK VINA RESULT:      -7.7      2.016      2.548
REMARK  7 active torsions:
REMARK  status: ('A' for Active; 'I' for Inactive)
REMARK    1  A    between atoms: C_2  and  N_3 
REMARK    2  A    between atoms: C_6  and  C_7 
REMARK    3  A    between atoms: C_7  and  O_8 
REMARK    4  A    between atoms: O_8  and  C_9 
REMARK    5  A    between atoms: C_9  and  C_10 
REMARK    6  A    between atoms: C_12  and  N_13 
REMARK    7  A    between atoms: C_22  and  N_23 
ROOT
HETATM    1  O   UNL     1       4.977  26.790  55.960  1.00  0.00    -0.310 OA
ENDROOT
BRANCH   1   2
HETATM    2  C   UNL     1       4.758  28.137  55.922  1.00  0.00     0.299 C 
HETATM    3  O   UNL     1       4.805  28.870  56.903  1.00  0.00    -0.259 OA
BRANCH   2   4
HETATM    4  C   UNL     1       4.430  28.627  54.599  1.00  0.00     0.103 A 
HETATM    5  C   UNL     1       4.340  29.985  54.217  1.00  0.00     0.160 A 
HETATM    6  N   UNL     1       4.009  30.148  52.936  1.00  0.00    -0.182 NA
HETATM    7  N   UNL     1       3.829  28.885  52.491  1.00  0.00    -0.250 N 
HETATM    8  C   UNL     1       4.132  27.929  53.441  1.00  0.00     0.136 A 
BRANCH   7   9
HETATM    9  C   UNL     1       3.350  28.668  51.127  1.00  0.00     0.104 C 
HETATM   10  C   UNL     1       4.506  28.734  50.130  1.00  0.00     0.034 C 
HETATM   11  C   UNL     1       2.228  29.635  50.737  1.00  0.00     0.034 C 
ENDBRANCH   7   9
BRANCH   8  12
HETATM   12  N   UNL     1       4.089  26.598  53.196  1.00  0.00    -0.383 N 
HETATM   13  H   UNL     1       3.478  26.018  53.774  1.00  0.00     0.157 HD
HETATM   14  H   UNL     1       4.902  26.084  52.868  1.00  0.00     0.157 HD
ENDBRANCH   8  12
ENDBRANCH   2   4
ENDBRANCH   1   2
BRANCH   1  15
HETATM   15  C   UNL     1       6.353  26.417  56.135  1.00  0.00     0.259 C 
BRANCH  15  16
HETATM   16  C   UNL     1       6.830  25.312  55.216  1.00  0.00     0.152 A 
HETATM   17  N   UNL     1       7.015  25.595  53.913  1.00  0.00    -0.219 NA
HETATM   18  C   UNL     1       7.425  24.586  53.134  1.00  0.00     0.115 A 
HETATM   19  C   UNL     1       7.622  23.280  53.598  1.00  0.00     0.033 A 
HETATM   20  C   UNL     1       7.381  23.097  54.964  1.00  0.00     0.072 A 
HETATM   21  C   UNL     1       8.025  22.181  52.800  1.00  0.00     0.017 A 
HETATM   22  N   UNL     1       6.983  24.091  55.764  1.00  0.00    -0.231 NA
HETATM   23  C   UNL     1       7.560  21.829  55.502  1.00  0.00     0.032 A 
HETATM   24  C   UNL     1       7.967  20.743  54.721  1.00  0.00     0.002 A 
HETATM   25  C   UNL     1       8.198  20.919  53.364  1.00  0.00     0.001 A 
BRANCH  18  26
HETATM   26  N   UNL     1       7.633  24.929  51.791  1.00  0.00    -0.286 NA
HETATM   27  H   UNL     1       6.961  24.392  51.246  1.00  0.00     0.125 HD
HETATM   28  H   UNL     1       7.504  25.925  51.651  1.00  0.00     0.125 HD
ENDBRANCH  18  26
ENDBRANCH  15  16
ENDBRANCH   1  15
TORSDOF 7
ENDMDL
MODEL 9
REMARK VINA RESULT:      -7.6      2.684      7.563
REMARK  7 active torsions:
REMARK  status: ('A' for Active; 'I' for Inactive)
REMARK    1  A    between atoms: C_2  and  N_3 
REMARK    2  A    between atoms: C_6  and  C_7 
REMARK    3  A    between atoms: C_7  and  O_8 
REMARK    4  A    between atoms: O_8  and  C_9 
REMARK    5  A    between atoms: C_9  and  C_10 
REMARK    6  A    between atoms: C_12  and  N_13 
REMARK    7  A    between atoms: C_22  and  N_23 
ROOT
HETATM    1  O   UNL     1       6.324  27.239  56.446  1.00  0.00    -0.310 OA
ENDROOT
BRANCH   1   2
HETATM    2  C   UNL     1       7.115  26.237  56.927  1.00  0.00     0.299 C 
HETATM    3  O   UNL     1       7.714  26.285  57.996  1.00  0.00    -0.259 OA
BRANCH   2   4
HETATM    4  C   UNL     1       7.210  25.101  56.032  1.00  0.00     0.103 A 
HETATM    5  C   UNL     1       6.417  24.883  54.884  1.00  0.00     0.160 A 
HETATM    6  N   UNL     1       6.712  23.746  54.252  1.00  0.00    -0.182 NA
HETATM    7  N   UNL     1       7.672  23.192  55.025  1.00  0.00    -0.250 N 
HETATM    8  C   UNL     1       8.051  24.002  56.079  1.00  0.00     0.136 A 
BRANCH   7   9
HETATM    9  C   UNL     1       8.179  21.862  54.693  1.00  0.00     0.104 C 
HETATM   10  C   UNL     1       7.939  21.543  53.219  1.00  0.00     0.034 C 
HETATM   11  C   UNL     1       7.599  20.770  55.597  1.00  0.00     0.034 C 
ENDBRANCH   7   9
BRANCH   8  12
HETATM   12  N   UNL     1       9.042  23.680  56.944  1.00  0.00    -0.383 N 
HETATM   13  H   UNL     1       9.464  22.753  56.873  1.00  0.00     0.157 HD
HETATM   14  H   UNL     1       9.063  24.037  57.895  1.00  0.00     0.157 HD
ENDBRANCH   8  12
ENDBRANCH   2   4
ENDBRANCH   1   2
BRANCH   1  15
HETATM   15  C   UNL     1       7.035  28.275  55.751  1.00  0.00     0.259 C 
BRANCH  15  16
HETATM   16  C   UNL     1       7.860  29.182  56.642  1.00  0.00     0.152 A 
HETATM   17  N   UNL     1       9.198  29.185  56.491  1.00  0.00    -0.219 NA
HETATM   18  C   UNL     1       9.890  29.991  57.307  1.00  0.00     0.115 A 
HETATM   19  C   UNL     1       9.298  30.773  58.306  1.00  0.00     0.033 A 
HETATM   20  C   UNL     1       7.905  30.676  58.385  1.00  0.00     0.072 A 
HETATM   21  C   UNL     1       9.998  31.613  59.207  1.00  0.00     0.017 A 
HETATM   22  N   UNL     1       7.192  29.888  57.574  1.00  0.00    -0.231 NA
HETATM   23  C   UNL     1       7.243  31.427  59.348  1.00  0.00     0.032 A 
HETATM   24  C   UNL     1       7.928  32.266  60.233  1.00  0.00     0.002 A 
HETATM   25  C   UNL     1       9.311  32.357  60.164  1.00  0.00     0.001 A 
BRANCH  18  26
HETATM   26  N   UNL     1      11.275  29.986  57.100  1.00  0.00    -0.286 NA
HETATM   27  H   UNL     1      11.488  30.801  56.528  1.00  0.00     0.125 HD
HETATM   28  H   UNL     1      11.770  30.021  57.984  1.00  0.00     0.125 HD
ENDBRANCH  18  26
ENDBRANCH  15  16
ENDBRANCH   1  15
TORSDOF 7
ENDMDL
MODEL 10
REMARK VINA RESULT:      -7.5      3.197      7.077
REMARK  7 active torsions:
REMARK  status: ('A' for Active; 'I' for Inactive)
REMARK    1  A    between atoms: C_2  and  N_3 
REMARK    2  A    between atoms: C_6  and  C_7 
REMARK    3  A    between atoms: C_7  and  O_8 
REMARK    4  A    between atoms: O_8  and  C_9 
REMARK    5  A    between atoms: C_9  and  C_10 
REMARK    6  A    between atoms: C_12  and  N_13 
REMARK    7  A    between atoms: C_22  and  N_23 
ROOT
HETATM    1  O   UNL     1       5.434  26.080  54.198  1.00  0.00    -0.310 OA
ENDROOT
BRANCH   1   2
HETATM    2  C   UNL     1       6.639  25.739  54.740  1.00  0.00     0.299 C 
HETATM    3  O   UNL     1       7.281  26.455  55.499  1.00  0.00    -0.259 OA
BRANCH   2   4
HETATM    4  C   UNL     1       7.116  24.442  54.305  1.00  0.00     0.103 A 
HETATM    5  C   UNL     1       6.820  23.821  53.070  1.00  0.00     0.160 A 
HETATM    6  N   UNL     1       7.384  22.619  52.940  1.00  0.00    -0.182 NA
HETATM    7  N   UNL     1       8.012  22.432  54.121  1.00  0.00    -0.250 N 
HETATM    8  C   UNL     1       7.931  23.531  54.956  1.00  0.00     0.136 A 
BRANCH   7   9
HETATM    9  C   UNL     1       8.670  21.155  54.388  1.00  0.00     0.104 C 
HETATM   10  C   UNL     1       8.778  20.324  53.111  1.00  0.00     0.034 C 
HETATM   11  C   UNL     1       7.985  20.364  55.506  1.00  0.00     0.034 C 
ENDBRANCH   7   9
BRANCH   8  12
HETATM   12  N   UNL     1       8.542  23.594  56.163  1.00  0.00    -0.383 N 
HETATM   13  H   UNL     1       9.398  24.145  56.244  1.00  0.00     0.157 HD
HETATM   14  H   UNL     1       8.528  22.814  56.815  1.00  0.00     0.157 HD
ENDBRANCH   8  12
ENDBRANCH   2   4
ENDBRANCH   1   2
BRANCH   1  15
HETATM   15  C   UNL     1       5.276  27.484  53.939  1.00  0.00     0.259 C 
BRANCH  15  16
HETATM   16  C   UNL     1       5.331  27.866  52.474  1.00  0.00     0.152 A 
HETATM   17  N   UNL     1       5.685  29.124  52.151  1.00  0.00    -0.219 NA
HETATM   18  C   UNL     1       5.709  29.422  50.846  1.00  0.00     0.115 A 
HETATM   19  C   UNL     1       5.348  28.520  49.839  1.00  0.00     0.033 A 
HETATM   20  C   UNL     1       4.977  27.249  50.291  1.00  0.00     0.072 A 
HETATM   21  C   UNL     1       5.330  28.807  48.452  1.00  0.00     0.017 A 
HETATM   22  N   UNL     1       4.959  26.923  51.587  1.00  0.00    -0.231 NA
HETATM   23  C   UNL     1       4.611  26.293  49.351  1.00  0.00     0.032 A 
HETATM   24  C   UNL     1       4.601  26.569  47.979  1.00  0.00     0.002 A 
HETATM   25  C   UNL     1       4.959  27.832  47.528  1.00  0.00     0.001 A 
BRANCH  18  26
HETATM   26  N   UNL     1       6.110  30.732  50.551  1.00  0.00    -0.286 NA
HETATM   27  H   UNL     1       7.128  30.740  50.585  1.00  0.00     0.125 HD
HETATM   28  H   UNL     1       5.773  31.013  49.637  1.00  0.00     0.125 HD
ENDBRANCH  18  26
ENDBRANCH  15  16
ENDBRANCH   1  15
TORSDOF 7
ENDMDL
