MODEL 1
REMARK VINA RESULT:      -9.4      0.000      0.000
REMARK  5 active torsions:
REMARK  status: ('A' for Active; 'I' for Inactive)
REMARK    1  A    between atoms: C_8  and  C_9 
REMARK    2  A    between atoms: C_9  and  N_10 
REMARK       I    between atoms: N_10  and  C_11 
REMARK    3  A    between atoms: C_11  and  C_12 
REMARK    4  A    between atoms: C_13  and  O_14 
REMARK    5  A    between atoms: O_14  and  C_15 
ROOT
HETATM    1  C   UNL     1       7.028  25.117  54.641  1.00  0.00     0.066 A 
HETATM    2  C   UNL     1       6.871  24.496  53.395  1.00  0.00     0.091 A 
HETATM    3  C   UNL     1       7.154  23.135  53.239  1.00  0.00     0.050 A 
HETATM    4  C   UNL     1       7.645  22.381  54.316  1.00  0.00    -0.023 A 
HETATM    5  C   UNL     1       7.841  23.007  55.568  1.00  0.00    -0.025 A 
HETATM    6  C   UNL     1       7.531  24.370  55.716  1.00  0.00     0.032 A 
HETATM    7  C   UNL     1       7.952  21.019  54.171  1.00  0.00     0.012 A 
HETATM    8  C   UNL     1       8.446  20.282  55.248  1.00  0.00     0.001 A 
HETATM    9  C   UNL     1       8.639  20.897  56.482  1.00  0.00     0.001 A 
HETATM   10  C   UNL     1       8.338  22.251  56.641  1.00  0.00     0.012 A 
ENDROOT
BRANCH   1  11
HETATM   11  C   UNL     1       6.731  26.558  54.881  1.00  0.00     0.254 C 
HETATM   12  N   UNL     1       7.815  27.387  55.036  1.00  0.00    -0.352 N 
HETATM   13  H   UNL     1       8.744  27.021  54.859  1.00  0.00     0.163 HD
HETATM   14  O   UNL     1       5.567  26.938  54.935  1.00  0.00    -0.268 OA
BRANCH  12  15
HETATM   15  C   UNL     1       7.686  28.813  55.222  1.00  0.00     0.165 C 
BRANCH  15  16
HETATM   16  C   UNL     1       7.818  29.117  56.671  1.00  0.00     0.009 A 
HETATM   17  C   UNL     1       6.811  29.243  57.612  1.00  0.00     0.034 A 
HETATM   18  C   UNL     1       5.338  29.135  57.497  1.00  0.00     0.070 C 
HETATM   19  N   UNL     1       7.433  29.521  58.795  1.00  0.00    -0.282 N 
HETATM   20  H   UNL     1       7.009  29.678  59.703  1.00  0.00     0.189 HD
HETATM   21  N   UNL     1       8.768  29.583  58.701  1.00  0.00    -0.179 NA
HETATM   22  C   UNL     1       9.015  29.341  57.409  1.00  0.00     0.060 A 
HETATM   23  C   UNL     1      10.413  29.334  56.909  1.00  0.00     0.073 C 
ENDBRANCH  15  16
ENDBRANCH  12  15
ENDBRANCH   1  11
BRANCH   2  24
HETATM   24  O   UNL     1       6.397  25.174  52.303  1.00  0.00    -0.289 OA
BRANCH  24  25
HETATM   25  C   UNL     1       5.102  24.686  51.953  1.00  0.00     0.505 C 
HETATM   26  F   UNL     1       4.270  24.882  53.004  1.00  0.00    -0.184 F 
HETATM   27  F   UNL     1       4.647  25.468  50.942  1.00  0.00    -0.184 F 
ENDBRANCH  24  25
ENDBRANCH   2  24
TORSDOF 5
ENDMDL
MODEL 2
REMARK VINA RESULT:      -9.2      2.019      2.638
REMARK  5 active torsions:
REMARK  status: ('A' for Active; 'I' for Inactive)
REMARK    1  A    between atoms: C_8  and  C_9 
REMARK    2  A    between atoms: C_9  and  N_10 
REMARK       I    between atoms: N_10  and  C_11 
REMARK    3  A    between atoms: C_11  and  C_12 
REMARK    4  A    between atoms: C_13  and  O_14 
REMARK    5  A    between atoms: O_14  and  C_15 
ROOT
HETATM    1  C   UNL     1       7.464  25.285  54.801  1.00  0.00     0.066 A 
HETATM    2  C   UNL     1       7.038  24.703  56.002  1.00  0.00     0.091 A 
HETATM    3  C   UNL     1       7.126  23.320  56.191  1.00  0.00     0.050 A 
HETATM    4  C   UNL     1       7.597  22.488  55.165  1.00  0.00    -0.023 A 
HETATM    5  C   UNL     1       7.996  23.062  53.936  1.00  0.00    -0.025 A 
HETATM    6  C   UNL     1       7.923  24.455  53.768  1.00  0.00     0.032 A 
HETATM    7  C   UNL     1       7.673  21.096  55.332  1.00  0.00     0.012 A 
HETATM    8  C   UNL     1       8.137  20.279  54.300  1.00  0.00     0.001 A 
HETATM    9  C   UNL     1       8.530  20.843  53.090  1.00  0.00     0.001 A 
HETATM   10  C   UNL     1       8.461  22.225  52.908  1.00  0.00     0.012 A 
ENDROOT
BRANCH   1  11
HETATM   11  C   UNL     1       7.414  26.751  54.537  1.00  0.00     0.254 C 
HETATM   12  N   UNL     1       7.822  27.570  55.563  1.00  0.00    -0.352 N 
HETATM   13  H   UNL     1       8.248  27.155  56.383  1.00  0.00     0.163 HD
HETATM   14  O   UNL     1       7.018  27.161  53.453  1.00  0.00    -0.268 OA
BRANCH  12  15
HETATM   15  C   UNL     1       7.879  29.007  55.437  1.00  0.00     0.165 C 
BRANCH  15  16
HETATM   16  C   UNL     1       8.151  29.590  56.777  1.00  0.00     0.009 A 
HETATM   17  C   UNL     1       7.237  30.059  57.706  1.00  0.00     0.034 A 
HETATM   18  C   UNL     1       5.759  30.145  57.674  1.00  0.00     0.070 C 
HETATM   19  N   UNL     1       7.971  30.489  58.773  1.00  0.00    -0.282 N 
HETATM   20  H   UNL     1       7.637  30.896  59.640  1.00  0.00     0.189 HD
HETATM   21  N   UNL     1       9.293  30.334  58.616  1.00  0.00    -0.179 NA
HETATM   22  C   UNL     1       9.416  29.789  57.401  1.00  0.00     0.060 A 
HETATM   23  C   UNL     1      10.762  29.472  56.861  1.00  0.00     0.073 C 
ENDBRANCH  15  16
ENDBRANCH  12  15
ENDBRANCH   1  11
BRANCH   2  24
HETATM   24  O   UNL     1       6.568  25.457  57.044  1.00  0.00    -0.289 OA
BRANCH  24  25
HETATM   25  C   UNL     1       5.169  25.689  56.884  1.00  0.00     0.505 C 
HETATM   26  F   UNL     1       4.505  24.971  57.822  1.00  0.00    -0.184 F 
HETATM   27  F   UNL     1       4.952  26.999  57.168  1.00  0.00    -0.184 F 
ENDBRANCH  24  25
ENDBRANCH   2  24
TORSDOF 5
ENDMDL
MODEL 3
REMARK VINA RESULT:      -9.2      1.996      3.085
REMARK  5 active torsions:
REMARK  status: ('A' for Active; 'I' for Inactive)
REMARK    1  A    between atoms: C_8  and  C_9 
REMARK    2  A    between atoms: C_9  and  N_10 
REMARK       I    between atoms: N_10  and  C_11 
REMARK    3  A    between atoms: C_11  and  C_12 
REMARK    4  A    between atoms: C_13  and  O_14 
REMARK    5  A    between atoms: O_14  and  C_15 
ROOT
HETATM    1  C   UNL     1       7.438  25.261  54.827  1.00  0.00     0.066 A 
HETATM    2  C   UNL     1       7.022  24.661  56.022  1.00  0.00     0.091 A 
HETATM    3  C   UNL     1       7.130  23.277  56.198  1.00  0.00     0.050 A 
HETATM    4  C   UNL     1       7.612  22.463  55.162  1.00  0.00    -0.023 A 
HETATM    5  C   UNL     1       8.000  23.055  53.939  1.00  0.00    -0.025 A 
HETATM    6  C   UNL     1       7.907  24.449  53.785  1.00  0.00     0.032 A 
HETATM    7  C   UNL     1       7.709  21.071  55.316  1.00  0.00     0.012 A 
HETATM    8  C   UNL     1       8.184  20.271  54.275  1.00  0.00     0.001 A 
HETATM    9  C   UNL     1       8.567  20.854  53.070  1.00  0.00     0.001 A 
HETATM   10  C   UNL     1       8.476  22.236  52.903  1.00  0.00     0.012 A 
ENDROOT
BRANCH   1  11
HETATM   11  C   UNL     1       7.365  26.729  54.579  1.00  0.00     0.254 C 
HETATM   12  N   UNL     1       7.895  27.540  55.553  1.00  0.00    -0.352 N 
HETATM   13  H   UNL     1       8.411  27.119  56.317  1.00  0.00     0.163 HD
HETATM   14  O   UNL     1       6.848  27.147  53.550  1.00  0.00    -0.268 OA
BRANCH  12  15
HETATM   15  C   UNL     1       7.945  28.978  55.429  1.00  0.00     0.165 C 
BRANCH  15  16
HETATM   16  C   UNL     1       8.241  29.559  56.765  1.00  0.00     0.009 A 
HETATM   17  C   UNL     1       9.479  29.764  57.351  1.00  0.00     0.034 A 
HETATM   18  C   UNL     1      10.852  29.475  56.876  1.00  0.00     0.070 C 
HETATM   19  N   UNL     1       9.230  30.323  58.571  1.00  0.00    -0.282 N 
HETATM   20  H   UNL     1       9.900  30.608  59.277  1.00  0.00     0.189 HD
HETATM   21  N   UNL     1       7.927  30.504  58.826  1.00  0.00    -0.179 NA
HETATM   22  C   UNL     1       7.313  30.040  57.733  1.00  0.00     0.060 A 
HETATM   23  C   UNL     1       5.831  30.066  57.645  1.00  0.00     0.073 C 
ENDBRANCH  15  16
ENDBRANCH  12  15
ENDBRANCH   1  11
BRANCH   2  24
HETATM   24  O   UNL     1       6.542  25.398  57.073  1.00  0.00    -0.289 OA
BRANCH  24  25
HETATM   25  C   UNL     1       5.149  25.652  56.893  1.00  0.00     0.505 C 
HETATM   26  F   UNL     1       4.464  24.994  57.859  1.00  0.00    -0.184 F 
HETATM   27  F   UNL     1       4.959  26.978  57.112  1.00  0.00    -0.184 F 
ENDBRANCH  24  25
ENDBRANCH   2  24
TORSDOF 5
ENDMDL
MODEL 4
REMARK VINA RESULT:      -9.2      1.918      2.517
REMARK  5 active torsions:
REMARK  status: ('A' for Active; 'I' for Inactive)
REMARK    1  A    between atoms: C_8  and  C_9 
REMARK    2  A    between atoms: C_9  and  N_10 
REMARK       I    between atoms: N_10  and  C_11 
REMARK    3  A    between atoms: C_11  and  C_12 
REMARK    4  A    between atoms: C_13  and  O_14 
REMARK    5  A    between atoms: O_14  and  C_15 
ROOT
HETATM    1  C   UNL     1       6.906  24.457  55.172  1.00  0.00     0.066 A 
HETATM    2  C   UNL     1       6.813  24.453  53.774  1.00  0.00     0.091 A 
HETATM    3  C   UNL     1       7.216  23.333  53.038  1.00  0.00     0.050 A 
HETATM    4  C   UNL     1       7.764  22.215  53.684  1.00  0.00    -0.023 A 
HETATM    5  C   UNL     1       7.895  22.223  55.092  1.00  0.00    -0.025 A 
HETATM    6  C   UNL     1       7.465  23.347  55.820  1.00  0.00     0.032 A 
HETATM    7  C   UNL     1       8.190  21.091  52.960  1.00  0.00     0.012 A 
HETATM    8  C   UNL     1       8.739  19.988  53.614  1.00  0.00     0.001 A 
HETATM    9  C   UNL     1       8.869  19.995  55.000  1.00  0.00     0.001 A 
HETATM   10  C   UNL     1       8.449  21.105  55.735  1.00  0.00     0.012 A 
ENDROOT
BRANCH   1  11
HETATM   11  C   UNL     1       6.482  25.608  56.018  1.00  0.00     0.254 C 
HETATM   12  N   UNL     1       5.204  26.074  55.819  1.00  0.00    -0.352 N 
HETATM   13  H   UNL     1       4.579  25.552  55.216  1.00  0.00     0.163 HD
HETATM   14  O   UNL     1       7.264  26.086  56.831  1.00  0.00    -0.268 OA
BRANCH  12  15
HETATM   15  C   UNL     1       4.635  27.147  56.599  1.00  0.00     0.165 C 
BRANCH  15  16
HETATM   16  C   UNL     1       4.967  28.439  55.943  1.00  0.00     0.009 A 
HETATM   17  C   UNL     1       4.558  28.895  54.702  1.00  0.00     0.034 A 
HETATM   18  C   UNL     1       3.707  28.278  53.658  1.00  0.00     0.070 C 
HETATM   19  N   UNL     1       5.119  30.130  54.551  1.00  0.00    -0.282 N 
HETATM   20  H   UNL     1       5.037  30.763  53.762  1.00  0.00     0.189 HD
HETATM   21  N   UNL     1       5.859  30.518  55.598  1.00  0.00    -0.179 NA
HETATM   22  C   UNL     1       5.776  29.494  56.454  1.00  0.00     0.060 A 
HETATM   23  C   UNL     1       6.488  29.553  57.755  1.00  0.00     0.073 C 
ENDBRANCH  15  16
ENDBRANCH  12  15
ENDBRANCH   1  11
BRANCH   2  24
HETATM   24  O   UNL     1       6.288  25.512  53.081  1.00  0.00    -0.289 OA
BRANCH  24  25
HETATM   25  C   UNL     1       5.223  25.064  52.244  1.00  0.00     0.505 C 
HETATM   26  F   UNL     1       4.153  24.779  53.026  1.00  0.00    -0.184 F 
HETATM   27  F   UNL     1       4.867  26.116  51.463  1.00  0.00    -0.184 F 
ENDBRANCH  24  25
ENDBRANCH   2  24
TORSDOF 5
ENDMDL
MODEL 5
REMARK VINA RESULT:      -9.1      1.973      2.810
REMARK  5 active torsions:
REMARK  status: ('A' for Active; 'I' for Inactive)
REMARK    1  A    between atoms: C_8  and  C_9 
REMARK    2  A    between atoms: C_9  and  N_10 
REMARK       I    between atoms: N_10  and  C_11 
REMARK    3  A    between atoms: C_11  and  C_12 
REMARK    4  A    between atoms: C_13  and  O_14 
REMARK    5  A    between atoms: O_14  and  C_15 
ROOT
HETATM    1  C   UNL     1       6.910  24.515  55.142  1.00  0.00     0.066 A 
HETATM    2  C   UNL     1       6.818  24.482  53.745  1.00  0.00     0.091 A 
HETATM    3  C   UNL     1       7.220  23.346  53.033  1.00  0.00     0.050 A 
HETATM    4  C   UNL     1       7.768  22.242  53.703  1.00  0.00    -0.023 A 
HETATM    5  C   UNL     1       7.898  22.280  55.111  1.00  0.00    -0.025 A 
HETATM    6  C   UNL     1       7.468  23.419  55.814  1.00  0.00     0.032 A 
HETATM    7  C   UNL     1       8.193  21.103  53.003  1.00  0.00     0.012 A 
HETATM    8  C   UNL     1       8.742  20.013  53.682  1.00  0.00     0.001 A 
HETATM    9  C   UNL     1       8.871  20.050  55.067  1.00  0.00     0.001 A 
HETATM   10  C   UNL     1       8.451  21.176  55.778  1.00  0.00     0.012 A 
ENDROOT
BRANCH   1  11
HETATM   11  C   UNL     1       6.486  25.685  55.963  1.00  0.00     0.254 C 
HETATM   12  N   UNL     1       5.197  26.126  55.778  1.00  0.00    -0.352 N 
HETATM   13  H   UNL     1       4.568  25.577  55.204  1.00  0.00     0.163 HD
HETATM   14  O   UNL     1       7.277  26.198  56.745  1.00  0.00    -0.268 OA
BRANCH  12  15
HETATM   15  C   UNL     1       4.628  27.213  56.539  1.00  0.00     0.165 C 
BRANCH  15  16
HETATM   16  C   UNL     1       4.927  28.490  55.838  1.00  0.00     0.009 A 
HETATM   17  C   UNL     1       5.704  29.546  56.284  1.00  0.00     0.034 A 
HETATM   18  C   UNL     1       6.450  29.754  57.547  1.00  0.00     0.070 C 
HETATM   19  N   UNL     1       5.677  30.479  55.288  1.00  0.00    -0.282 N 
HETATM   20  H   UNL     1       6.135  31.384  55.266  1.00  0.00     0.189 HD
HETATM   21  N   UNL     1       4.946  30.114  54.226  1.00  0.00    -0.179 NA
HETATM   22  C   UNL     1       4.481  28.903  54.550  1.00  0.00     0.060 A 
HETATM   23  C   UNL     1       3.607  28.165  53.605  1.00  0.00     0.073 C 
ENDBRANCH  15  16
ENDBRANCH  12  15
ENDBRANCH   1  11
BRANCH   2  24
HETATM   24  O   UNL     1       6.294  25.526  53.029  1.00  0.00    -0.289 OA
BRANCH  24  25
HETATM   25  C   UNL     1       5.218  25.064  52.213  1.00  0.00     0.505 C 
HETATM   26  F   UNL     1       4.148  24.822  53.009  1.00  0.00    -0.184 F 
HETATM   27  F   UNL     1       4.874  26.092  51.396  1.00  0.00    -0.184 F 
ENDBRANCH  24  25
ENDBRANCH   2  24
TORSDOF 5
ENDMDL
MODEL 6
REMARK VINA RESULT:      -8.8      3.745      6.320
REMARK  5 active torsions:
REMARK  status: ('A' for Active; 'I' for Inactive)
REMARK    1  A    between atoms: C_8  and  C_9 
REMARK    2  A    between atoms: C_9  and  N_10 
REMARK       I    between atoms: N_10  and  C_11 
REMARK    3  A    between atoms: C_11  and  C_12 
REMARK    4  A    between atoms: C_13  and  O_14 
REMARK    5  A    between atoms: O_14  and  C_15 
ROOT
HETATM    1  C   UNL     1       6.059  25.837  53.292  1.00  0.00     0.066 A 
HETATM    2  C   UNL     1       5.877  25.796  54.681  1.00  0.00     0.091 A 
HETATM    3  C   UNL     1       6.378  24.728  55.432  1.00  0.00     0.050 A 
HETATM    4  C   UNL     1       7.029  23.656  54.803  1.00  0.00    -0.023 A 
HETATM    5  C   UNL     1       7.186  23.671  53.398  1.00  0.00    -0.025 A 
HETATM    6  C   UNL     1       6.697  24.762  52.658  1.00  0.00     0.032 A 
HETATM    7  C   UNL     1       7.521  22.569  55.540  1.00  0.00     0.012 A 
HETATM    8  C   UNL     1       8.161  21.506  54.900  1.00  0.00     0.001 A 
HETATM    9  C   UNL     1       8.316  21.519  53.517  1.00  0.00     0.001 A 
HETATM   10  C   UNL     1       7.833  22.594  52.770  1.00  0.00     0.012 A 
ENDROOT
BRANCH   1  11
HETATM   11  C   UNL     1       5.565  26.950  52.433  1.00  0.00     0.254 C 
HETATM   12  N   UNL     1       4.534  26.649  51.577  1.00  0.00    -0.352 N 
HETATM   13  H   UNL     1       4.079  25.746  51.652  1.00  0.00     0.163 HD
HETATM   14  O   UNL     1       6.084  28.057  52.516  1.00  0.00    -0.268 OA
BRANCH  12  15
HETATM   15  C   UNL     1       3.916  27.637  50.723  1.00  0.00     0.165 C 
BRANCH  15  16
HETATM   16  C   UNL     1       4.533  27.549  49.374  1.00  0.00     0.009 A 
HETATM   17  C   UNL     1       5.432  28.425  48.788  1.00  0.00     0.034 A 
HETATM   18  C   UNL     1       6.040  29.684  49.277  1.00  0.00     0.070 C 
HETATM   19  N   UNL     1       5.704  27.914  47.552  1.00  0.00    -0.282 N 
HETATM   20  H   UNL     1       6.322  28.291  46.841  1.00  0.00     0.189 HD
HETATM   21  N   UNL     1       5.056  26.771  47.285  1.00  0.00    -0.179 NA
HETATM   22  C   UNL     1       4.337  26.540  48.388  1.00  0.00     0.060 A 
HETATM   23  C   UNL     1       3.465  25.341  48.469  1.00  0.00     0.073 C 
ENDBRANCH  15  16
ENDBRANCH  12  15
ENDBRANCH   1  11
BRANCH   2  24
HETATM   24  O   UNL     1       5.250  26.809  55.358  1.00  0.00    -0.289 OA
BRANCH  24  25
HETATM   25  C   UNL     1       6.022  27.181  56.499  1.00  0.00     0.505 C 
HETATM   26  F   UNL     1       7.055  27.954  56.085  1.00  0.00    -0.184 F 
HETATM   27  F   UNL     1       5.230  27.968  57.271  1.00  0.00    -0.184 F 
ENDBRANCH  24  25
ENDBRANCH   2  24
TORSDOF 5
ENDMDL
MODEL 7
REMARK VINA RESULT:      -8.8      1.757      2.353
REMARK  5 active torsions:
REMARK  status: ('A' for Active; 'I' for Inactive)
REMARK    1  A    between atoms: C_8  and  C_9 
REMARK    2  A    between atoms: C_9  and  N_10 
REMARK       I    between atoms: N_10  and  C_11 
REMARK    3  A    between atoms: C_11  and  C_12 
REMARK    4  A    between atoms: C_13  and  O_14 
REMARK    5  A    between atoms: O_14  and  C_15 
ROOT
HETATM    1  C   UNL     1       7.745  25.035  56.002  1.00  0.00     0.066 A 
HETATM    2  C   UNL     1       7.266  25.247  54.702  1.00  0.00     0.091 A 
HETATM    3  C   UNL     1       7.279  24.211  53.763  1.00  0.00     0.050 A 
HETATM    4  C   UNL     1       7.816  22.957  54.091  1.00  0.00    -0.023 A 
HETATM    5  C   UNL     1       8.335  22.744  55.389  1.00  0.00    -0.025 A 
HETATM    6  C   UNL     1       8.294  23.788  56.330  1.00  0.00     0.032 A 
HETATM    7  C   UNL     1       7.854  21.913  53.154  1.00  0.00     0.012 A 
HETATM    8  C   UNL     1       8.397  20.672  53.492  1.00  0.00     0.001 A 
HETATM    9  C   UNL     1       8.908  20.461  54.770  1.00  0.00     0.001 A 
HETATM   10  C   UNL     1       8.877  21.490  55.712  1.00  0.00     0.012 A 
ENDROOT
BRANCH   1  11
HETATM   11  C   UNL     1       7.747  26.089  57.056  1.00  0.00     0.254 C 
HETATM   12  N   UNL     1       7.645  27.388  56.621  1.00  0.00    -0.352 N 
HETATM   13  H   UNL     1       7.450  27.565  55.642  1.00  0.00     0.163 HD
HETATM   14  O   UNL     1       7.841  25.769  58.235  1.00  0.00    -0.268 OA
BRANCH  12  15
HETATM   15  C   UNL     1       7.580  28.511  57.526  1.00  0.00     0.165 C 
BRANCH  15  16
HETATM   16  C   UNL     1       8.780  29.362  57.314  1.00  0.00     0.009 A 
HETATM   17  C   UNL     1       9.417  30.183  58.229  1.00  0.00     0.034 A 
HETATM   18  C   UNL     1       9.126  30.484  59.650  1.00  0.00     0.070 C 
HETATM   19  N   UNL     1      10.466  30.748  57.563  1.00  0.00    -0.282 N 
HETATM   20  H   UNL     1      11.152  31.405  57.918  1.00  0.00     0.189 HD
HETATM   21  N   UNL     1      10.565  30.358  56.285  1.00  0.00    -0.179 NA
HETATM   22  C   UNL     1       9.541  29.514  56.120  1.00  0.00     0.060 A 
HETATM   23  C   UNL     1       9.314  28.870  54.802  1.00  0.00     0.073 C 
ENDBRANCH  15  16
ENDBRANCH  12  15
ENDBRANCH   1  11
BRANCH   2  24
HETATM   24  O   UNL     1       6.730  26.447  54.316  1.00  0.00    -0.289 OA
BRANCH  24  25
HETATM   25  C   UNL     1       5.307  26.348  54.261  1.00  0.00     0.505 C 
HETATM   26  F   UNL     1       4.778  27.505  54.727  1.00  0.00    -0.184 F 
HETATM   27  F   UNL     1       4.968  26.263  52.949  1.00  0.00    -0.184 F 
ENDBRANCH  24  25
ENDBRANCH   2  24
TORSDOF 5
ENDMDL
MODEL 8
REMARK VINA RESULT:      -8.8      3.299      4.658
REMARK  5 active torsions:
REMARK  status: ('A' for Active; 'I' for Inactive)
REMARK    1  A    between atoms: C_8  and  C_9 
REMARK    2  A    between atoms: C_9  and  N_10 
REMARK       I    between atoms: N_10  and  C_11 
REMARK    3  A    between atoms: C_11  and  C_12 
REMARK    4  A    between atoms: C_13  and  O_14 
REMARK    5  A    between atoms: O_14  and  C_15 
ROOT
HETATM    1  C   UNL     1       7.005  24.615  53.530  1.00  0.00     0.066 A 
HETATM    2  C   UNL     1       6.754  24.568  54.907  1.00  0.00     0.091 A 
HETATM    3  C   UNL     1       7.088  23.432  55.651  1.00  0.00     0.050 A 
HETATM    4  C   UNL     1       7.636  22.303  55.023  1.00  0.00    -0.023 A 
HETATM    5  C   UNL     1       7.860  22.328  53.627  1.00  0.00    -0.025 A 
HETATM    6  C   UNL     1       7.540  23.485  52.896  1.00  0.00     0.032 A 
HETATM    7  C   UNL     1       7.959  21.149  55.753  1.00  0.00     0.012 A 
HETATM    8  C   UNL     1       8.497  20.030  55.114  1.00  0.00     0.001 A 
HETATM    9  C   UNL     1       8.719  20.054  53.740  1.00  0.00     0.001 A 
HETATM   10  C   UNL     1       8.403  21.195  53.001  1.00  0.00     0.012 A 
ENDROOT
BRANCH   1  11
HETATM   11  C   UNL     1       6.689  25.798  52.679  1.00  0.00     0.254 C 
HETATM   12  N   UNL     1       6.657  27.016  53.315  1.00  0.00    -0.352 N 
HETATM   13  H   UNL     1       6.966  27.076  54.278  1.00  0.00     0.163 HD
HETATM   14  O   UNL     1       6.470  25.646  51.483  1.00  0.00    -0.268 OA
BRANCH  12  15
HETATM   15  C   UNL     1       6.418  28.255  52.614  1.00  0.00     0.165 C 
BRANCH  15  16
HETATM   16  C   UNL     1       4.954  28.406  52.403  1.00  0.00     0.009 A 
HETATM   17  C   UNL     1       3.962  28.528  53.361  1.00  0.00     0.034 A 
HETATM   18  C   UNL     1       4.020  28.536  54.841  1.00  0.00     0.070 C 
HETATM   19  N   UNL     1       2.788  28.644  52.675  1.00  0.00    -0.282 N 
HETATM   20  H   UNL     1       1.851  28.750  53.050  1.00  0.00     0.189 HD
HETATM   21  N   UNL     1       2.936  28.611  51.343  1.00  0.00    -0.179 NA
HETATM   22  C   UNL     1       4.253  28.464  51.165  1.00  0.00     0.060 A 
HETATM   23  C   UNL     1       4.811  28.377  49.792  1.00  0.00     0.073 C 
ENDBRANCH  15  16
ENDBRANCH  12  15
ENDBRANCH   1  11
BRANCH   2  24
HETATM   24  O   UNL     1       6.220  25.634  55.582  1.00  0.00    -0.289 OA
BRANCH  24  25
HETATM   25  C   UNL     1       5.830  25.232  56.894  1.00  0.00     0.505 C 
HETATM   26  F   UNL     1       6.671  25.808  57.788  1.00  0.00    -0.184 F 
HETATM   27  F   UNL     1       4.600  25.761  57.118  1.00  0.00    -0.184 F 
ENDBRANCH  24  25
ENDBRANCH   2  24
TORSDOF 5
ENDMDL
MODEL 9
REMARK VINA RESULT:      -8.6      3.006      4.549
REMARK  5 active torsions:
REMARK  status: ('A' for Active; 'I' for Inactive)
REMARK    1  A    between atoms: C_8  and  C_9 
REMARK    2  A    between atoms: C_9  and  N_10 
REMARK       I    between atoms: N_10  and  C_11 
REMARK    3  A    between atoms: C_11  and  C_12 
REMARK    4  A    between atoms: C_13  and  O_14 
REMARK    5  A    between atoms: O_14  and  C_15 
ROOT
HETATM    1  C   UNL     1       7.778  24.678  54.160  1.00  0.00     0.066 A 
HETATM    2  C   UNL     1       7.668  24.744  55.555  1.00  0.00     0.091 A 
HETATM    3  C   UNL     1       7.878  23.605  56.339  1.00  0.00     0.050 A 
HETATM    4  C   UNL     1       8.152  22.367  55.739  1.00  0.00    -0.023 A 
HETATM    5  C   UNL     1       8.229  22.282  54.330  1.00  0.00    -0.025 A 
HETATM    6  C   UNL     1       8.039  23.440  53.556  1.00  0.00     0.032 A 
HETATM    7  C   UNL     1       8.347  21.210  56.510  1.00  0.00     0.012 A 
HETATM    8  C   UNL     1       8.613  19.984  55.900  1.00  0.00     0.001 A 
HETATM    9  C   UNL     1       8.688  19.899  54.512  1.00  0.00     0.001 A 
HETATM   10  C   UNL     1       8.499  21.041  53.732  1.00  0.00     0.012 A 
ENDROOT
BRANCH   1  11
HETATM   11  C   UNL     1       7.583  25.855  53.266  1.00  0.00     0.254 C 
HETATM   12  N   UNL     1       6.920  26.929  53.808  1.00  0.00    -0.352 N 
HETATM   13  H   UNL     1       6.709  26.929  54.799  1.00  0.00     0.163 HD
HETATM   14  O   UNL     1       8.003  25.821  52.116  1.00  0.00    -0.268 OA
BRANCH  12  15
HETATM   15  C   UNL     1       6.703  28.159  53.082  1.00  0.00     0.165 C 
BRANCH  15  16
HETATM   16  C   UNL     1       5.271  28.235  52.694  1.00  0.00     0.009 A 
HETATM   17  C   UNL     1       4.706  27.969  51.458  1.00  0.00     0.034 A 
HETATM   18  C   UNL     1       5.308  27.553  50.170  1.00  0.00     0.070 C 
HETATM   19  N   UNL     1       3.365  28.176  51.604  1.00  0.00    -0.282 N 
HETATM   20  H   UNL     1       2.636  28.077  50.905  1.00  0.00     0.189 HD
HETATM   21  N   UNL     1       3.008  28.552  52.840  1.00  0.00    -0.179 NA
HETATM   22  C   UNL     1       4.163  28.595  53.513  1.00  0.00     0.060 A 
HETATM   23  C   UNL     1       4.174  28.988  54.945  1.00  0.00     0.073 C 
ENDBRANCH  15  16
ENDBRANCH  12  15
ENDBRANCH   1  11
BRANCH   2  24
HETATM   24  O   UNL     1       7.402  25.921  56.205  1.00  0.00    -0.289 OA
BRANCH  24  25
HETATM   25  C   UNL     1       6.201  25.795  56.965  1.00  0.00     0.505 C 
HETATM   26  F   UNL     1       5.851  27.023  57.421  1.00  0.00    -0.184 F 
HETATM   27  F   UNL     1       5.228  25.406  56.102  1.00  0.00    -0.184 F 
ENDBRANCH  24  25
ENDBRANCH   2  24
TORSDOF 5
ENDMDL
MODEL 10
REMARK VINA RESULT:      -8.5      4.462      6.345
REMARK  5 active torsions:
REMARK  status: ('A' for Active; 'I' for Inactive)
REMARK    1  A    between atoms: C_8  and  C_9 
REMARK    2  A    between atoms: C_9  and  N_10 
REMARK       I    between atoms: N_10  and  C_11 
REMARK    3  A    between atoms: C_11  and  C_12 
REMARK    4  A    between atoms: C_13  and  O_14 
REMARK    5  A    between atoms: O_14  and  C_15 
ROOT
HETATM    1  C   UNL     1       7.067  29.514  57.797  1.00  0.00     0.066 A 
HETATM    2  C   UNL     1       8.379  29.052  57.626  1.00  0.00     0.091 A 
HETATM    3  C   UNL     1       8.621  27.761  57.146  1.00  0.00     0.050 A 
HETATM    4  C   UNL     1       7.556  26.890  56.874  1.00  0.00    -0.023 A 
HETATM    5  C   UNL     1       6.229  27.334  57.078  1.00  0.00    -0.025 A 
HETATM    6  C   UNL     1       6.000  28.642  57.539  1.00  0.00     0.032 A 
HETATM    7  C   UNL     1       7.782  25.585  56.410  1.00  0.00     0.012 A 
HETATM    8  C   UNL     1       6.713  24.727  56.149  1.00  0.00     0.001 A 
HETATM    9  C   UNL     1       5.406  25.163  56.349  1.00  0.00     0.001 A 
HETATM   10  C   UNL     1       5.165  26.458  56.809  1.00  0.00     0.012 A 
ENDROOT
BRANCH   1  11
HETATM   11  C   UNL     1       6.738  30.882  58.289  1.00  0.00     0.254 C 
HETATM   12  N   UNL     1       7.115  31.175  59.578  1.00  0.00    -0.352 N 
HETATM   13  H   UNL     1       7.697  30.515  60.081  1.00  0.00     0.163 HD
HETATM   14  O   UNL     1       6.156  31.669  57.553  1.00  0.00    -0.268 OA
BRANCH  12  15
HETATM   15  C   UNL     1       6.911  32.474  60.174  1.00  0.00     0.165 C 
BRANCH  15  16
HETATM   16  C   UNL     1       5.960  32.332  61.307  1.00  0.00     0.009 A 
HETATM   17  C   UNL     1       4.581  32.222  61.256  1.00  0.00     0.034 A 
HETATM   18  C   UNL     1       3.636  32.221  60.115  1.00  0.00     0.070 C 
HETATM   19  N   UNL     1       4.163  32.111  62.550  1.00  0.00    -0.282 N 
HETATM   20  H   UNL     1       3.214  32.013  62.896  1.00  0.00     0.189 HD
HETATM   21  N   UNL     1       5.162  32.136  63.444  1.00  0.00    -0.179 NA
HETATM   22  C   UNL     1       6.263  32.273  62.698  1.00  0.00     0.060 A 
HETATM   23  C   UNL     1       7.596  32.349  63.347  1.00  0.00     0.073 C 
ENDBRANCH  15  16
ENDBRANCH  12  15
ENDBRANCH   1  11
BRANCH   2  24
HETATM   24  O   UNL     1       9.465  29.851  57.874  1.00  0.00    -0.289 OA
BRANCH  24  25
HETATM   25  C   UNL     1      10.524  29.523  56.976  1.00  0.00     0.505 C 
HETATM   26  F   UNL     1      10.297  30.152  55.797  1.00  0.00    -0.184 F 
HETATM   27  F   UNL     1      11.659  30.059  57.493  1.00  0.00    -0.184 F 
ENDBRANCH  24  25
ENDBRANCH   2  24
TORSDOF 5
ENDMDL
