MODEL 1
REMARK VINA RESULT:      -9.0      0.000      0.000
REMARK  9 active torsions:
REMARK  status: ('A' for Active; 'I' for Inactive)
REMARK    1  A    between atoms: C_2  and  N_3 
REMARK    2  A    between atoms: C_4  and  S_5 
REMARK    3  A    between atoms: S_5  and  C_6 
REMARK    4  A    between atoms: C_6  and  C_7 
REMARK       I    between atoms: C_7  and  N_8 
REMARK    5  A    between atoms: N_8  and  C_9 
REMARK    6  A    between atoms: C_9  and  C_10 
REMARK    7  A    between atoms: C_10  and  O_11 
REMARK    8  A    between atoms: O_11  and  C_12 
REMARK    9  A    between atoms: C_22  and  C_23 
ROOT
HETATM    1  C   UNL     1       6.902  28.855  55.853  1.00  0.00     0.185 C 
ENDROOT
BRANCH   1   2
HETATM    2  S   UNL     1       6.270  27.766  57.161  1.00  0.00    -0.081 SA
BRANCH   2   3
HETATM    3  C   UNL     1       7.207  26.351  56.824  1.00  0.00     0.192 A 
HETATM    4  N   UNL     1       6.875  25.399  55.895  1.00  0.00    -0.308 N 
HETATM    5  C   UNL     1       7.852  24.425  56.003  1.00  0.00     0.164 A 
HETATM    6  N   UNL     1       8.714  24.804  56.932  1.00  0.00    -0.128 NA
HETATM    7  N   UNL     1       8.318  26.016  57.432  1.00  0.00    -0.122 NA
BRANCH   4   8
HETATM    8  C   UNL     1       5.680  25.355  55.079  1.00  0.00     0.128 C 
HETATM    9  C   UNL     1       5.850  26.053  53.739  1.00  0.00     0.027 C 
ENDBRANCH   4   8
BRANCH   5  10
HETATM   10  C   UNL     1       7.905  23.147  55.296  1.00  0.00     0.012 A 
HETATM   11  C   UNL     1       8.070  23.145  53.904  1.00  0.00     0.015 A 
HETATM   12  C   UNL     1       8.117  21.944  53.192  1.00  0.00     0.001 A 
HETATM   13  C   UNL     1       7.989  20.731  53.866  1.00  0.00     0.000 A 
HETATM   14  C   UNL     1       7.802  20.720  55.247  1.00  0.00     0.001 A 
HETATM   15  C   UNL     1       7.754  21.923  55.958  1.00  0.00     0.015 A 
ENDBRANCH   5  10
ENDBRANCH   2   3
ENDBRANCH   1   2
BRANCH   1  16
HETATM   16  C   UNL     1       8.334  29.255  56.155  1.00  0.00     0.227 C 
HETATM   17  N   UNL     1       8.584  29.541  57.483  1.00  0.00    -0.358 N 
HETATM   18  H   UNL     1       7.820  29.518  58.147  1.00  0.00     0.162 HD
HETATM   19  O   UNL     1       9.200  29.327  55.286  1.00  0.00    -0.273 OA
BRANCH  17  20
HETATM   20  C   UNL     1       9.844  30.119  57.915  1.00  0.00     0.149 C 
BRANCH  20  21
HETATM   21  C   UNL     1       9.708  31.382  58.766  1.00  0.00     0.195 C 
BRANCH  21  22
HETATM   22  O   UNL     1       9.491  30.968  60.118  1.00  0.00    -0.350 OA
BRANCH  22  23
HETATM   23  C   UNL     1       8.550  31.649  60.840  1.00  0.00     0.069 A 
HETATM   24  C   UNL     1       8.646  32.002  62.188  1.00  0.00     0.043 A 
HETATM   25  C   UNL     1       7.607  32.711  62.814  1.00  0.00    -0.059 A 
HETATM   26  C   UNL     1       7.697  33.088  64.264  1.00  0.00     0.048 C 
HETATM   27  C   UNL     1       6.466  33.049  62.078  1.00  0.00     0.007 A 
HETATM   28  C   UNL     1       6.365  32.693  60.735  1.00  0.00     0.003 A 
HETATM   29  C   UNL     1       7.404  31.995  60.122  1.00  0.00     0.037 A 
ENDBRANCH  22  23
ENDBRANCH  21  22
ENDBRANCH  20  21
ENDBRANCH  17  20
ENDBRANCH   1  16
TORSDOF 9
ENDMDL
MODEL 2
REMARK VINA RESULT:      -8.9      2.300     10.589
REMARK  9 active torsions:
REMARK  status: ('A' for Active; 'I' for Inactive)
REMARK    1  A    between atoms: C_2  and  N_3 
REMARK    2  A    between atoms: C_4  and  S_5 
REMARK    3  A    between atoms: S_5  and  C_6 
REMARK    4  A    between atoms: C_6  and  C_7 
REMARK       I    between atoms: C_7  and  N_8 
REMARK    5  A    between atoms: N_8  and  C_9 
REMARK    6  A    between atoms: C_9  and  C_10 
REMARK    7  A    between atoms: C_10  and  O_11 
REMARK    8  A    between atoms: O_11  and  C_12 
REMARK    9  A    between atoms: C_22  and  C_23 
ROOT
HETATM    1  C   UNL     1       7.577  29.479  58.178  1.00  0.00     0.185 C 
ENDROOT
BRANCH   1   2
HETATM    2  S   UNL     1       8.918  30.613  58.640  1.00  0.00    -0.081 SA
BRANCH   2   3
HETATM    3  C   UNL     1       8.566  30.791  60.324  1.00  0.00     0.192 A 
HETATM    4  N   UNL     1       7.673  31.691  60.843  1.00  0.00    -0.308 N 
HETATM    5  C   UNL     1       7.754  31.540  62.217  1.00  0.00     0.164 A 
HETATM    6  N   UNL     1       8.635  30.589  62.476  1.00  0.00    -0.128 NA
HETATM    7  N   UNL     1       9.130  30.110  61.292  1.00  0.00    -0.122 NA
BRANCH   4   8
HETATM    8  C   UNL     1       6.912  32.686  60.115  1.00  0.00     0.128 C 
HETATM    9  C   UNL     1       5.548  32.182  59.671  1.00  0.00     0.027 C 
ENDBRANCH   4   8
BRANCH   5  10
HETATM   10  C   UNL     1       7.071  32.336  63.234  1.00  0.00     0.012 A 
HETATM   11  C   UNL     1       7.835  33.086  64.139  1.00  0.00     0.015 A 
HETATM   12  C   UNL     1       7.219  33.853  65.130  1.00  0.00     0.001 A 
HETATM   13  C   UNL     1       5.830  33.869  65.233  1.00  0.00     0.000 A 
HETATM   14  C   UNL     1       5.059  33.111  64.354  1.00  0.00     0.001 A 
HETATM   15  C   UNL     1       5.677  32.342  63.363  1.00  0.00     0.015 A 
ENDBRANCH   5  10
ENDBRANCH   2   3
ENDBRANCH   1   2
BRANCH   1  16
HETATM   16  C   UNL     1       8.133  28.312  57.383  1.00  0.00     0.227 C 
HETATM   17  N   UNL     1       7.212  27.327  57.087  1.00  0.00    -0.358 N 
HETATM   18  H   UNL     1       6.268  27.408  57.444  1.00  0.00     0.162 HD
HETATM   19  O   UNL     1       9.310  28.246  57.037  1.00  0.00    -0.273 OA
BRANCH  17  20
HETATM   20  C   UNL     1       7.611  26.061  56.501  1.00  0.00     0.149 C 
BRANCH  20  21
HETATM   21  C   UNL     1       7.342  25.938  55.000  1.00  0.00     0.195 C 
BRANCH  21  22
HETATM   22  O   UNL     1       6.471  24.819  54.811  1.00  0.00    -0.350 OA
BRANCH  22  23
HETATM   23  C   UNL     1       7.052  23.603  54.581  1.00  0.00     0.069 A 
HETATM   24  C   UNL     1       7.351  22.639  55.548  1.00  0.00     0.043 A 
HETATM   25  C   UNL     1       7.945  21.421  55.178  1.00  0.00    -0.059 A 
HETATM   26  C   UNL     1       8.278  20.383  56.210  1.00  0.00     0.048 C 
HETATM   27  C   UNL     1       8.249  21.185  53.833  1.00  0.00     0.007 A 
HETATM   28  C   UNL     1       7.958  22.146  52.867  1.00  0.00     0.003 A 
HETATM   29  C   UNL     1       7.363  23.350  53.244  1.00  0.00     0.037 A 
ENDBRANCH  22  23
ENDBRANCH  21  22
ENDBRANCH  20  21
ENDBRANCH  17  20
ENDBRANCH   1  16
TORSDOF 9
ENDMDL
MODEL 3
REMARK VINA RESULT:      -8.9      0.883      1.456
REMARK  9 active torsions:
REMARK  status: ('A' for Active; 'I' for Inactive)
REMARK    1  A    between atoms: C_2  and  N_3 
REMARK    2  A    between atoms: C_4  and  S_5 
REMARK    3  A    between atoms: S_5  and  C_6 
REMARK    4  A    between atoms: C_6  and  C_7 
REMARK       I    between atoms: C_7  and  N_8 
REMARK    5  A    between atoms: N_8  and  C_9 
REMARK    6  A    between atoms: C_9  and  C_10 
REMARK    7  A    between atoms: C_10  and  O_11 
REMARK    8  A    between atoms: O_11  and  C_12 
REMARK    9  A    between atoms: C_22  and  C_23 
ROOT
HETATM    1  C   UNL     1       7.762  28.833  56.377  1.00  0.00     0.185 C 
ENDROOT
BRANCH   1   2
HETATM    2  S   UNL     1       6.700  27.678  57.290  1.00  0.00    -0.081 SA
BRANCH   2   3
HETATM    3  C   UNL     1       7.499  26.194  56.899  1.00  0.00     0.192 A 
HETATM    4  N   UNL     1       7.134  25.357  55.878  1.00  0.00    -0.308 N 
HETATM    5  C   UNL     1       7.989  24.273  55.968  1.00  0.00     0.164 A 
HETATM    6  N   UNL     1       8.818  24.482  56.976  1.00  0.00    -0.128 NA
HETATM    7  N   UNL     1       8.521  25.691  57.547  1.00  0.00    -0.122 NA
BRANCH   4   8
HETATM    8  C   UNL     1       6.002  25.509  54.987  1.00  0.00     0.128 C 
HETATM    9  C   UNL     1       6.334  26.308  53.737  1.00  0.00     0.027 C 
ENDBRANCH   4   8
BRANCH   5  10
HETATM   10  C   UNL     1       7.953  23.052  55.164  1.00  0.00     0.012 A 
HETATM   11  C   UNL     1       7.785  21.818  55.809  1.00  0.00     0.015 A 
HETATM   12  C   UNL     1       7.754  20.629  55.076  1.00  0.00     0.001 A 
HETATM   13  C   UNL     1       7.901  20.662  53.691  1.00  0.00     0.000 A 
HETATM   14  C   UNL     1       8.090  21.880  53.042  1.00  0.00     0.001 A 
HETATM   15  C   UNL     1       8.123  23.069  53.775  1.00  0.00     0.015 A 
ENDBRANCH   5  10
ENDBRANCH   2   3
ENDBRANCH   1   2
BRANCH   1  16
HETATM   16  C   UNL     1       8.886  29.326  57.270  1.00  0.00     0.227 C 
HETATM   17  N   UNL     1       8.469  30.011  58.394  1.00  0.00    -0.358 N 
HETATM   18  H   UNL     1       7.481  30.185  58.530  1.00  0.00     0.162 HD
HETATM   19  O   UNL     1      10.071  29.136  57.010  1.00  0.00    -0.273 OA
BRANCH  17  20
HETATM   20  C   UNL     1       9.407  30.710  59.253  1.00  0.00     0.149 C 
BRANCH  20  21
HETATM   21  C   UNL     1       8.829  31.930  59.971  1.00  0.00     0.195 C 
BRANCH  21  22
HETATM   22  O   UNL     1       8.559  31.545  61.322  1.00  0.00    -0.350 OA
BRANCH  22  23
HETATM   23  C   UNL     1       7.794  32.391  62.076  1.00  0.00     0.069 A 
HETATM   24  C   UNL     1       7.896  32.583  63.456  1.00  0.00     0.043 A 
HETATM   25  C   UNL     1       7.049  33.492  64.112  1.00  0.00    -0.059 A 
HETATM   26  C   UNL     1       7.145  33.699  65.595  1.00  0.00     0.048 C 
HETATM   27  C   UNL     1       6.091  34.196  63.373  1.00  0.00     0.007 A 
HETATM   28  C   UNL     1       5.983  34.002  61.998  1.00  0.00     0.003 A 
HETATM   29  C   UNL     1       6.832  33.102  61.355  1.00  0.00     0.037 A 
ENDBRANCH  22  23
ENDBRANCH  21  22
ENDBRANCH  20  21
ENDBRANCH  17  20
ENDBRANCH   1  16
TORSDOF 9
ENDMDL
MODEL 4
REMARK VINA RESULT:      -8.7      1.103      2.246
REMARK  9 active torsions:
REMARK  status: ('A' for Active; 'I' for Inactive)
REMARK    1  A    between atoms: C_2  and  N_3 
REMARK    2  A    between atoms: C_4  and  S_5 
REMARK    3  A    between atoms: S_5  and  C_6 
REMARK    4  A    between atoms: C_6  and  C_7 
REMARK       I    between atoms: C_7  and  N_8 
REMARK    5  A    between atoms: N_8  and  C_9 
REMARK    6  A    between atoms: C_9  and  C_10 
REMARK    7  A    between atoms: C_10  and  O_11 
REMARK    8  A    between atoms: O_11  and  C_12 
REMARK    9  A    between atoms: C_22  and  C_23 
ROOT
HETATM    1  C   UNL     1       7.696  28.736  55.518  1.00  0.00     0.185 C 
ENDROOT
BRANCH   1   2
HETATM    2  S   UNL     1       7.267  27.645  56.905  1.00  0.00    -0.081 SA
BRANCH   2   3
HETATM    3  C   UNL     1       6.847  26.219  56.020  1.00  0.00     0.192 A 
HETATM    4  N   UNL     1       7.608  25.081  55.967  1.00  0.00    -0.308 N 
HETATM    5  C   UNL     1       6.939  24.231  55.104  1.00  0.00     0.164 A 
HETATM    6  N   UNL     1       5.838  24.839  54.695  1.00  0.00    -0.128 NA
HETATM    7  N   UNL     1       5.774  26.076  55.281  1.00  0.00    -0.122 NA
BRANCH   4   8
HETATM    8  C   UNL     1       8.907  24.871  56.572  1.00  0.00     0.128 C 
HETATM    9  C   UNL     1       8.820  24.317  57.985  1.00  0.00     0.027 C 
ENDBRANCH   4   8
BRANCH   5  10
HETATM   10  C   UNL     1       7.385  22.921  54.634  1.00  0.00     0.012 A 
HETATM   11  C   UNL     1       7.497  21.869  55.554  1.00  0.00     0.015 A 
HETATM   12  C   UNL     1       7.928  20.605  55.144  1.00  0.00     0.001 A 
HETATM   13  C   UNL     1       8.261  20.383  53.810  1.00  0.00     0.000 A 
HETATM   14  C   UNL     1       8.176  21.427  52.890  1.00  0.00     0.001 A 
HETATM   15  C   UNL     1       7.746  22.692  53.301  1.00  0.00     0.015 A 
ENDBRANCH   5  10
ENDBRANCH   2   3
ENDBRANCH   1   2
BRANCH   1  16
HETATM   16  C   UNL     1       9.045  29.384  55.764  1.00  0.00     0.227 C 
HETATM   17  N   UNL     1       9.265  29.780  57.068  1.00  0.00    -0.358 N 
HETATM   18  H   UNL     1       8.527  29.668  57.751  1.00  0.00     0.162 HD
HETATM   19  O   UNL     1       9.873  29.550  54.871  1.00  0.00    -0.273 OA
BRANCH  17  20
HETATM   20  C   UNL     1      10.417  30.582  57.439  1.00  0.00     0.149 C 
BRANCH  20  21
HETATM   21  C   UNL     1      10.173  31.558  58.591  1.00  0.00     0.195 C 
BRANCH  21  22
HETATM   22  O   UNL     1       8.761  31.771  58.680  1.00  0.00    -0.350 OA
BRANCH  22  23
HETATM   23  C   UNL     1       8.237  31.992  59.923  1.00  0.00     0.069 A 
HETATM   24  C   UNL     1       6.902  32.287  60.212  1.00  0.00     0.043 A 
HETATM   25  C   UNL     1       6.489  32.487  61.540  1.00  0.00    -0.059 A 
HETATM   26  C   UNL     1       5.060  32.812  61.860  1.00  0.00     0.048 C 
HETATM   27  C   UNL     1       7.430  32.403  62.573  1.00  0.00     0.007 A 
HETATM   28  C   UNL     1       8.763  32.116  62.287  1.00  0.00     0.003 A 
HETATM   29  C   UNL     1       9.162  31.913  60.967  1.00  0.00     0.037 A 
ENDBRANCH  22  23
ENDBRANCH  21  22
ENDBRANCH  20  21
ENDBRANCH  17  20
ENDBRANCH   1  16
TORSDOF 9
ENDMDL
MODEL 5
REMARK VINA RESULT:      -8.7      1.718      2.329
REMARK  9 active torsions:
REMARK  status: ('A' for Active; 'I' for Inactive)
REMARK    1  A    between atoms: C_2  and  N_3 
REMARK    2  A    between atoms: C_4  and  S_5 
REMARK    3  A    between atoms: S_5  and  C_6 
REMARK    4  A    between atoms: C_6  and  C_7 
REMARK       I    between atoms: C_7  and  N_8 
REMARK    5  A    between atoms: N_8  and  C_9 
REMARK    6  A    between atoms: C_9  and  C_10 
REMARK    7  A    between atoms: C_10  and  O_11 
REMARK    8  A    between atoms: O_11  and  C_12 
REMARK    9  A    between atoms: C_22  and  C_23 
ROOT
HETATM    1  C   UNL     1       5.882  28.252  57.298  1.00  0.00     0.185 C 
ENDROOT
BRANCH   1   2
HETATM    2  S   UNL     1       5.447  27.564  55.675  1.00  0.00    -0.081 SA
BRANCH   2   3
HETATM    3  C   UNL     1       6.548  26.230  55.632  1.00  0.00     0.192 A 
HETATM    4  N   UNL     1       6.401  25.122  54.839  1.00  0.00    -0.308 N 
HETATM    5  C   UNL     1       7.457  24.291  55.169  1.00  0.00     0.164 A 
HETATM    6  N   UNL     1       8.187  24.896  56.091  1.00  0.00    -0.128 NA
HETATM    7  N   UNL     1       7.627  26.115  56.367  1.00  0.00    -0.122 NA
BRANCH   4   8
HETATM    8  C   UNL     1       5.296  24.825  53.951  1.00  0.00     0.128 C 
HETATM    9  C   UNL     1       5.525  25.322  52.532  1.00  0.00     0.027 C 
ENDBRANCH   4   8
BRANCH   5  10
HETATM   10  C   UNL     1       7.703  22.938  54.674  1.00  0.00     0.012 A 
HETATM   11  C   UNL     1       7.975  22.750  53.312  1.00  0.00     0.015 A 
HETATM   12  C   UNL     1       8.208  21.472  52.800  1.00  0.00     0.001 A 
HETATM   13  C   UNL     1       8.159  20.366  53.644  1.00  0.00     0.000 A 
HETATM   14  C   UNL     1       7.867  20.536  54.996  1.00  0.00     0.001 A 
HETATM   15  C   UNL     1       7.634  21.816  55.508  1.00  0.00     0.015 A 
ENDBRANCH   5  10
ENDBRANCH   2   3
ENDBRANCH   1   2
BRANCH   1  16
HETATM   16  C   UNL     1       5.723  29.761  57.284  1.00  0.00     0.227 C 
HETATM   17  N   UNL     1       4.796  30.250  58.182  1.00  0.00    -0.358 N 
HETATM   18  H   UNL     1       4.259  29.601  58.743  1.00  0.00     0.162 HD
HETATM   19  O   UNL     1       6.363  30.488  56.528  1.00  0.00    -0.273 OA
BRANCH  17  20
HETATM   20  C   UNL     1       4.384  31.642  58.171  1.00  0.00     0.149 C 
BRANCH  20  21
HETATM   21  C   UNL     1       4.960  32.489  59.306  1.00  0.00     0.195 C 
BRANCH  21  22
HETATM   22  O   UNL     1       6.359  32.649  59.054  1.00  0.00    -0.350 OA
BRANCH  22  23
HETATM   23  C   UNL     1       7.219  32.365  60.079  1.00  0.00     0.069 A 
HETATM   24  C   UNL     1       7.078  32.774  61.407  1.00  0.00     0.043 A 
HETATM   25  C   UNL     1       8.033  32.408  62.370  1.00  0.00    -0.059 A 
HETATM   26  C   UNL     1       7.895  32.849  63.798  1.00  0.00     0.048 C 
HETATM   27  C   UNL     1       9.138  31.639  61.985  1.00  0.00     0.007 A 
HETATM   28  C   UNL     1       9.284  31.235  60.659  1.00  0.00     0.003 A 
HETATM   29  C   UNL     1       8.328  31.599  59.713  1.00  0.00     0.037 A 
ENDBRANCH  22  23
ENDBRANCH  21  22
ENDBRANCH  20  21
ENDBRANCH  17  20
ENDBRANCH   1  16
TORSDOF 9
ENDMDL
MODEL 6
REMARK VINA RESULT:      -8.6      1.744      2.423
REMARK  9 active torsions:
REMARK  status: ('A' for Active; 'I' for Inactive)
REMARK    1  A    between atoms: C_2  and  N_3 
REMARK    2  A    between atoms: C_4  and  S_5 
REMARK    3  A    between atoms: S_5  and  C_6 
REMARK    4  A    between atoms: C_6  and  C_7 
REMARK       I    between atoms: C_7  and  N_8 
REMARK    5  A    between atoms: N_8  and  C_9 
REMARK    6  A    between atoms: C_9  and  C_10 
REMARK    7  A    between atoms: C_10  and  O_11 
REMARK    8  A    between atoms: O_11  and  C_12 
REMARK    9  A    between atoms: C_22  and  C_23 
ROOT
HETATM    1  C   UNL     1       5.391  28.202  57.057  1.00  0.00     0.185 C 
ENDROOT
BRANCH   1   2
HETATM    2  S   UNL     1       5.286  27.662  55.327  1.00  0.00    -0.081 SA
BRANCH   2   3
HETATM    3  C   UNL     1       6.396  26.336  55.380  1.00  0.00     0.192 A 
HETATM    4  N   UNL     1       6.293  25.201  54.619  1.00  0.00    -0.308 N 
HETATM    5  C   UNL     1       7.337  24.389  55.026  1.00  0.00     0.164 A 
HETATM    6  N   UNL     1       8.019  25.030  55.960  1.00  0.00    -0.128 NA
HETATM    7  N   UNL     1       7.439  26.253  56.169  1.00  0.00    -0.122 NA
BRANCH   4   8
HETATM    8  C   UNL     1       5.233  24.866  53.690  1.00  0.00     0.128 C 
HETATM    9  C   UNL     1       5.511  25.347  52.275  1.00  0.00     0.027 C 
ENDBRANCH   4   8
BRANCH   5  10
HETATM   10  C   UNL     1       7.614  23.023  54.588  1.00  0.00     0.012 A 
HETATM   11  C   UNL     1       7.663  21.998  55.545  1.00  0.00     0.015 A 
HETATM   12  C   UNL     1       7.933  20.681  55.167  1.00  0.00     0.001 A 
HETATM   13  C   UNL     1       8.167  20.376  53.828  1.00  0.00     0.000 A 
HETATM   14  C   UNL     1       8.143  21.389  52.871  1.00  0.00     0.001 A 
HETATM   15  C   UNL     1       7.874  22.707  53.250  1.00  0.00     0.015 A 
ENDBRANCH   5  10
ENDBRANCH   2   3
ENDBRANCH   1   2
BRANCH   1  16
HETATM   16  C   UNL     1       6.206  29.478  57.156  1.00  0.00     0.227 C 
HETATM   17  N   UNL     1       5.832  30.322  58.183  1.00  0.00    -0.358 N 
HETATM   18  H   UNL     1       5.036  30.079  58.759  1.00  0.00     0.162 HD
HETATM   19  O   UNL     1       7.120  29.743  56.379  1.00  0.00    -0.273 OA
BRANCH  17  20
HETATM   20  C   UNL     1       6.376  31.662  58.306  1.00  0.00     0.149 C 
BRANCH  20  21
HETATM   21  C   UNL     1       5.988  32.393  59.592  1.00  0.00     0.195 C 
BRANCH  21  22
HETATM   22  O   UNL     1       6.900  31.980  60.613  1.00  0.00    -0.350 OA
BRANCH  22  23
HETATM   23  C   UNL     1       6.899  32.690  61.782  1.00  0.00     0.069 A 
HETATM   24  C   UNL     1       6.109  33.807  62.064  1.00  0.00     0.043 A 
HETATM   25  C   UNL     1       6.199  34.445  63.312  1.00  0.00    -0.059 A 
HETATM   26  C   UNL     1       5.360  35.650  63.623  1.00  0.00     0.048 C 
HETATM   27  C   UNL     1       7.099  33.961  64.268  1.00  0.00     0.007 A 
HETATM   28  C   UNL     1       7.893  32.851  63.987  1.00  0.00     0.003 A 
HETATM   29  C   UNL     1       7.792  32.221  62.748  1.00  0.00     0.037 A 
ENDBRANCH  22  23
ENDBRANCH  21  22
ENDBRANCH  20  21
ENDBRANCH  17  20
ENDBRANCH   1  16
TORSDOF 9
ENDMDL
MODEL 7
REMARK VINA RESULT:      -8.6      1.537      2.382
REMARK  9 active torsions:
REMARK  status: ('A' for Active; 'I' for Inactive)
REMARK    1  A    between atoms: C_2  and  N_3 
REMARK    2  A    between atoms: C_4  and  S_5 
REMARK    3  A    between atoms: S_5  and  C_6 
REMARK    4  A    between atoms: C_6  and  C_7 
REMARK       I    between atoms: C_7  and  N_8 
REMARK    5  A    between atoms: N_8  and  C_9 
REMARK    6  A    between atoms: C_9  and  C_10 
REMARK    7  A    between atoms: C_10  and  O_11 
REMARK    8  A    between atoms: O_11  and  C_12 
REMARK    9  A    between atoms: C_22  and  C_23 
ROOT
HETATM    1  C   UNL     1       8.140  28.580  57.822  1.00  0.00     0.185 C 
ENDROOT
BRANCH   1   2
HETATM    2  S   UNL     1       6.731  27.667  57.130  1.00  0.00    -0.081 SA
BRANCH   2   3
HETATM    3  C   UNL     1       7.494  26.139  56.858  1.00  0.00     0.192 A 
HETATM    4  N   UNL     1       7.220  25.307  55.804  1.00  0.00    -0.308 N 
HETATM    5  C   UNL     1       7.998  24.181  56.013  1.00  0.00     0.164 A 
HETATM    6  N   UNL     1       8.698  24.362  57.119  1.00  0.00    -0.128 NA
HETATM    7  N   UNL     1       8.395  25.593  57.638  1.00  0.00    -0.122 NA
BRANCH   4   8
HETATM    8  C   UNL     1       6.224  25.504  54.772  1.00  0.00     0.128 C 
HETATM    9  C   UNL     1       6.753  26.282  53.577  1.00  0.00     0.027 C 
ENDBRANCH   4   8
BRANCH   5  10
HETATM   10  C   UNL     1       8.002  22.953  55.221  1.00  0.00     0.012 A 
HETATM   11  C   UNL     1       7.832  21.722  55.873  1.00  0.00     0.015 A 
HETATM   12  C   UNL     1       7.838  20.526  55.152  1.00  0.00     0.001 A 
HETATM   13  C   UNL     1       8.025  20.548  53.771  1.00  0.00     0.000 A 
HETATM   14  C   UNL     1       8.217  21.762  53.115  1.00  0.00     0.001 A 
HETATM   15  C   UNL     1       8.212  22.959  53.838  1.00  0.00     0.015 A 
ENDBRANCH   5  10
ENDBRANCH   2   3
ENDBRANCH   1   2
BRANCH   1  16
HETATM   16  C   UNL     1       7.669  29.899  58.406  1.00  0.00     0.227 C 
HETATM   17  N   UNL     1       8.491  30.421  59.385  1.00  0.00    -0.358 N 
HETATM   18  H   UNL     1       9.302  29.894  59.684  1.00  0.00     0.162 HD
HETATM   19  O   UNL     1       6.635  30.454  58.043  1.00  0.00    -0.273 OA
BRANCH  17  20
HETATM   20  C   UNL     1       8.098  31.571  60.178  1.00  0.00     0.149 C 
BRANCH  20  21
HETATM   21  C   UNL     1       7.842  31.271  61.656  1.00  0.00     0.195 C 
BRANCH  21  22
HETATM   22  O   UNL     1       8.136  32.461  62.393  1.00  0.00    -0.350 OA
BRANCH  22  23
HETATM   23  C   UNL     1       7.231  32.853  63.340  1.00  0.00     0.069 A 
HETATM   24  C   UNL     1       7.533  33.335  64.616  1.00  0.00     0.043 A 
HETATM   25  C   UNL     1       6.504  33.712  65.496  1.00  0.00    -0.059 A 
HETATM   26  C   UNL     1       6.817  34.223  66.872  1.00  0.00     0.048 C 
HETATM   27  C   UNL     1       5.171  33.588  65.088  1.00  0.00     0.007 A 
HETATM   28  C   UNL     1       4.867  33.102  63.818  1.00  0.00     0.003 A 
HETATM   29  C   UNL     1       5.895  32.736  62.951  1.00  0.00     0.037 A 
ENDBRANCH  22  23
ENDBRANCH  21  22
ENDBRANCH  20  21
ENDBRANCH  17  20
ENDBRANCH   1  16
TORSDOF 9
ENDMDL
MODEL 8
REMARK VINA RESULT:      -8.5      1.712      2.712
REMARK  9 active torsions:
REMARK  status: ('A' for Active; 'I' for Inactive)
REMARK    1  A    between atoms: C_2  and  N_3 
REMARK    2  A    between atoms: C_4  and  S_5 
REMARK    3  A    between atoms: S_5  and  C_6 
REMARK    4  A    between atoms: C_6  and  C_7 
REMARK       I    between atoms: C_7  and  N_8 
REMARK    5  A    between atoms: N_8  and  C_9 
REMARK    6  A    between atoms: C_9  and  C_10 
REMARK    7  A    between atoms: C_10  and  O_11 
REMARK    8  A    between atoms: O_11  and  C_12 
REMARK    9  A    between atoms: C_22  and  C_23 
ROOT
HETATM    1  C   UNL     1       8.232  28.473  57.231  1.00  0.00     0.185 C 
ENDROOT
BRANCH   1   2
HETATM    2  S   UNL     1       6.699  28.393  56.261  1.00  0.00    -0.081 SA
BRANCH   2   3
HETATM    3  C   UNL     1       7.102  27.080  55.210  1.00  0.00     0.192 A 
HETATM    4  N   UNL     1       6.998  25.755  55.542  1.00  0.00    -0.308 N 
HETATM    5  C   UNL     1       7.481  25.062  54.446  1.00  0.00     0.164 A 
HETATM    6  N   UNL     1       7.829  25.941  53.521  1.00  0.00    -0.128 NA
HETATM    7  N   UNL     1       7.576  27.202  53.994  1.00  0.00    -0.122 NA
BRANCH   4   8
HETATM    8  C   UNL     1       6.600  25.204  56.821  1.00  0.00     0.128 C 
HETATM    9  C   UNL     1       5.099  25.266  57.053  1.00  0.00     0.027 C 
ENDBRANCH   4   8
BRANCH   5  10
HETATM   10  C   UNL     1       7.674  23.618  54.329  1.00  0.00     0.012 A 
HETATM   11  C   UNL     1       7.957  22.873  55.484  1.00  0.00     0.015 A 
HETATM   12  C   UNL     1       8.155  21.493  55.412  1.00  0.00     0.001 A 
HETATM   13  C   UNL     1       8.083  20.843  54.182  1.00  0.00     0.000 A 
HETATM   14  C   UNL     1       7.824  21.575  53.024  1.00  0.00     0.001 A 
HETATM   15  C   UNL     1       7.627  22.957  53.096  1.00  0.00     0.015 A 
ENDBRANCH   5  10
ENDBRANCH   2   3
ENDBRANCH   1   2
BRANCH   1  16
HETATM   16  C   UNL     1       8.321  29.804  57.955  1.00  0.00     0.227 C 
HETATM   17  N   UNL     1       7.178  30.164  58.642  1.00  0.00    -0.358 N 
HETATM   18  H   UNL     1       6.360  29.570  58.587  1.00  0.00     0.162 HD
HETATM   19  O   UNL     1       9.328  30.508  57.927  1.00  0.00    -0.273 OA
BRANCH  17  20
HETATM   20  C   UNL     1       7.024  31.482  59.229  1.00  0.00     0.149 C 
BRANCH  20  21
HETATM   21  C   UNL     1       7.452  31.583  60.694  1.00  0.00     0.195 C 
BRANCH  21  22
HETATM   22  O   UNL     1       6.263  31.704  61.481  1.00  0.00    -0.350 OA
BRANCH  22  23
HETATM   23  C   UNL     1       6.369  32.346  62.684  1.00  0.00     0.069 A 
HETATM   24  C   UNL     1       5.307  32.761  63.491  1.00  0.00     0.043 A 
HETATM   25  C   UNL     1       5.553  33.408  64.713  1.00  0.00    -0.059 A 
HETATM   26  C   UNL     1       4.419  33.864  65.583  1.00  0.00     0.048 C 
HETATM   27  C   UNL     1       6.873  33.647  65.111  1.00  0.00     0.007 A 
HETATM   28  C   UNL     1       7.934  33.241  64.305  1.00  0.00     0.003 A 
HETATM   29  C   UNL     1       7.680  32.594  63.096  1.00  0.00     0.037 A 
ENDBRANCH  22  23
ENDBRANCH  21  22
ENDBRANCH  20  21
ENDBRANCH  17  20
ENDBRANCH   1  16
TORSDOF 9
ENDMDL
MODEL 9
REMARK VINA RESULT:      -8.4      2.115      2.838
REMARK  9 active torsions:
REMARK  status: ('A' for Active; 'I' for Inactive)
REMARK    1  A    between atoms: C_2  and  N_3 
REMARK    2  A    between atoms: C_4  and  S_5 
REMARK    3  A    between atoms: S_5  and  C_6 
REMARK    4  A    between atoms: C_6  and  C_7 
REMARK       I    between atoms: C_7  and  N_8 
REMARK    5  A    between atoms: N_8  and  C_9 
REMARK    6  A    between atoms: C_9  and  C_10 
REMARK    7  A    between atoms: C_10  and  O_11 
REMARK    8  A    between atoms: O_11  and  C_12 
REMARK    9  A    between atoms: C_22  and  C_23 
ROOT
HETATM    1  C   UNL     1       5.402  27.781  54.390  1.00  0.00     0.185 C 
ENDROOT
BRANCH   1   2
HETATM    2  S   UNL     1       7.197  27.853  54.130  1.00  0.00    -0.081 SA
BRANCH   2   3
HETATM    3  C   UNL     1       7.466  26.235  53.580  1.00  0.00     0.192 A 
HETATM    4  N   UNL     1       7.633  25.150  54.400  1.00  0.00    -0.308 N 
HETATM    5  C   UNL     1       7.884  24.085  53.553  1.00  0.00     0.164 A 
HETATM    6  N   UNL     1       7.844  24.528  52.308  1.00  0.00    -0.128 NA
HETATM    7  N   UNL     1       7.566  25.869  52.326  1.00  0.00    -0.122 NA
BRANCH   4   8
HETATM    8  C   UNL     1       7.680  25.149  55.848  1.00  0.00     0.128 C 
HETATM    9  C   UNL     1       6.324  24.889  56.485  1.00  0.00     0.027 C 
ENDBRANCH   4   8
BRANCH   5  10
HETATM   10  C   UNL     1       8.226  22.716  53.935  1.00  0.00     0.012 A 
HETATM   11  C   UNL     1       7.917  21.667  53.057  1.00  0.00     0.015 A 
HETATM   12  C   UNL     1       8.222  20.346  53.390  1.00  0.00     0.001 A 
HETATM   13  C   UNL     1       8.830  20.058  54.610  1.00  0.00     0.000 A 
HETATM   14  C   UNL     1       9.122  21.089  55.500  1.00  0.00     0.001 A 
HETATM   15  C   UNL     1       8.816  22.412  55.167  1.00  0.00     0.015 A 
ENDBRANCH   5  10
ENDBRANCH   2   3
ENDBRANCH   1   2
BRANCH   1  16
HETATM   16  C   UNL     1       5.014  28.636  55.582  1.00  0.00     0.227 C 
HETATM   17  N   UNL     1       6.079  29.172  56.278  1.00  0.00    -0.358 N 
HETATM   18  H   UNL     1       7.022  28.935  55.998  1.00  0.00     0.162 HD
HETATM   19  O   UNL     1       3.844  28.829  55.907  1.00  0.00    -0.273 OA
BRANCH  17  20
HETATM   20  C   UNL     1       5.897  29.854  57.547  1.00  0.00     0.149 C 
BRANCH  20  21
HETATM   21  C   UNL     1       7.058  30.761  57.957  1.00  0.00     0.195 C 
BRANCH  21  22
HETATM   22  O   UNL     1       6.605  31.572  59.045  1.00  0.00    -0.350 OA
BRANCH  22  23
HETATM   23  C   UNL     1       7.344  31.548  60.195  1.00  0.00     0.069 A 
HETATM   24  C   UNL     1       7.097  32.298  61.347  1.00  0.00     0.043 A 
HETATM   25  C   UNL     1       7.933  32.176  62.469  1.00  0.00    -0.059 A 
HETATM   26  C   UNL     1       7.680  32.983  63.709  1.00  0.00     0.048 C 
HETATM   27  C   UNL     1       9.027  31.304  62.420  1.00  0.00     0.007 A 
HETATM   28  C   UNL     1       9.280  30.560  61.270  1.00  0.00     0.003 A 
HETATM   29  C   UNL     1       8.441  30.684  60.164  1.00  0.00     0.037 A 
ENDBRANCH  22  23
ENDBRANCH  21  22
ENDBRANCH  20  21
ENDBRANCH  17  20
ENDBRANCH   1  16
TORSDOF 9
ENDMDL
MODEL 10
REMARK VINA RESULT:      -8.4      2.214     10.728
REMARK  9 active torsions:
REMARK  status: ('A' for Active; 'I' for Inactive)
REMARK    1  A    between atoms: C_2  and  N_3 
REMARK    2  A    between atoms: C_4  and  S_5 
REMARK    3  A    between atoms: S_5  and  C_6 
REMARK    4  A    between atoms: C_6  and  C_7 
REMARK       I    between atoms: C_7  and  N_8 
REMARK    5  A    between atoms: N_8  and  C_9 
REMARK    6  A    between atoms: C_9  and  C_10 
REMARK    7  A    between atoms: C_10  and  O_11 
REMARK    8  A    between atoms: O_11  and  C_12 
REMARK    9  A    between atoms: C_22  and  C_23 
ROOT
HETATM    1  C   UNL     1       7.688  29.191  58.107  1.00  0.00     0.185 C 
ENDROOT
BRANCH   1   2
HETATM    2  S   UNL     1       8.702  30.641  58.515  1.00  0.00    -0.081 SA
BRANCH   2   3
HETATM    3  C   UNL     1       7.628  31.433  59.616  1.00  0.00     0.192 A 
HETATM    4  N   UNL     1       7.956  31.809  60.892  1.00  0.00    -0.308 N 
HETATM    5  C   UNL     1       6.796  32.338  61.430  1.00  0.00     0.164 A 
HETATM    6  N   UNL     1       5.852  32.288  60.506  1.00  0.00    -0.128 NA
HETATM    7  N   UNL     1       6.378  31.737  59.367  1.00  0.00    -0.122 NA
BRANCH   4   8
HETATM    8  C   UNL     1       9.210  31.571  61.577  1.00  0.00     0.128 C 
HETATM    9  C   UNL     1       9.288  30.191  62.211  1.00  0.00     0.027 C 
ENDBRANCH   4   8
BRANCH   5  10
HETATM   10  C   UNL     1       6.589  32.797  62.802  1.00  0.00     0.012 A 
HETATM   11  C   UNL     1       5.281  32.895  63.297  1.00  0.00     0.015 A 
HETATM   12  C   UNL     1       5.042  33.337  64.600  1.00  0.00     0.001 A 
HETATM   13  C   UNL     1       6.110  33.696  65.419  1.00  0.00     0.000 A 
HETATM   14  C   UNL     1       7.413  33.624  64.932  1.00  0.00     0.001 A 
HETATM   15  C   UNL     1       7.652  33.182  63.627  1.00  0.00     0.015 A 
ENDBRANCH   5  10
ENDBRANCH   2   3
ENDBRANCH   1   2
BRANCH   1  16
HETATM   16  C   UNL     1       8.072  28.655  56.741  1.00  0.00     0.227 C 
HETATM   17  N   UNL     1       7.080  27.937  56.104  1.00  0.00    -0.358 N 
HETATM   18  H   UNL     1       6.204  27.770  56.583  1.00  0.00     0.162 HD
HETATM   19  O   UNL     1       9.181  28.839  56.244  1.00  0.00    -0.273 OA
BRANCH  17  20
HETATM   20  C   UNL     1       7.337  27.197  54.882  1.00  0.00     0.149 C 
BRANCH  20  21
HETATM   21  C   UNL     1       6.981  25.711  54.947  1.00  0.00     0.195 C 
BRANCH  21  22
HETATM   22  O   UNL     1       7.864  25.019  54.061  1.00  0.00    -0.350 OA
BRANCH  22  23
HETATM   23  C   UNL     1       7.900  23.654  54.149  1.00  0.00     0.069 A 
HETATM   24  C   UNL     1       7.980  22.909  55.328  1.00  0.00     0.043 A 
HETATM   25  C   UNL     1       8.003  21.505  55.282  1.00  0.00    -0.059 A 
HETATM   26  C   UNL     1       8.097  20.695  56.541  1.00  0.00     0.048 C 
HETATM   27  C   UNL     1       7.960  20.857  54.041  1.00  0.00     0.007 A 
HETATM   28  C   UNL     1       7.887  21.598  52.864  1.00  0.00     0.003 A 
HETATM   29  C   UNL     1       7.859  22.991  52.921  1.00  0.00     0.037 A 
ENDBRANCH  22  23
ENDBRANCH  21  22
ENDBRANCH  20  21
ENDBRANCH  17  20
ENDBRANCH   1  16
TORSDOF 9
ENDMDL
