MODEL 1
REMARK VINA RESULT:      -9.2      0.000      0.000
REMARK  10 active torsions:
REMARK  status: ('A' for Active; 'I' for Inactive)
REMARK    1  A    between atoms: C_4  and  C_5 
REMARK    2  A    between atoms: C_5  and  O_6 
REMARK    3  A    between atoms: O_6  and  C_7 
REMARK    4  A    between atoms: C_10  and  N_11 
REMARK       I    between atoms: N_11  and  C_12 
REMARK       I    between atoms: C_12  and  N_13 
REMARK    5  A    between atoms: N_13  and  C_14 
REMARK    6  A    between atoms: C_14  and  C_15 
REMARK    7  A    between atoms: C_15  and  C_16 
REMARK    8  A    between atoms: C_16  and  C_17 
REMARK    9  A    between atoms: C_17  and  N_18 
REMARK   10  A    between atoms: C_25  and  C_26 
REMARK       I    between atoms: C_26  and  N_27 
ROOT
HETATM    1  C   UNL     1       8.096  29.221  57.531  1.00  0.00     0.191 C 
HETATM    2  N   UNL     1       9.278  29.353  56.940  1.00  0.00    -0.184 NA
HETATM    3  S   UNL     1       9.080  29.002  55.339  1.00  0.00     0.033 SA
HETATM    4  C   UNL     1       7.377  28.814  55.408  1.00  0.00     0.117 C 
HETATM    5  C   UNL     1       6.969  28.821  56.735  1.00  0.00     0.120 C 
ENDROOT
BRANCH   4   6
HETATM    6  N   UNL     1       6.812  28.653  54.156  1.00  0.00    -0.301 N 
HETATM    7  C   UNL     1       6.199  27.534  53.670  1.00  0.00     0.321 C 
HETATM    8  N   UNL     1       6.365  26.366  54.340  1.00  0.00    -0.343 N 
HETATM    9  O   UNL     1       5.431  27.646  52.713  1.00  0.00    -0.247 OA
HETATM   10  H   UNL     1       7.347  26.220  54.568  1.00  0.00     0.164 HD
HETATM   11  H   UNL     1       6.406  29.489  53.754  1.00  0.00     0.171 HD
BRANCH   8  12
HETATM   12  C   UNL     1       5.688  25.139  53.979  1.00  0.00     0.124 C 
BRANCH  12  13
HETATM   13  C   UNL     1       6.423  24.335  52.901  1.00  0.00     0.021 C 
BRANCH  13  14
HETATM   14  C   UNL     1       7.923  24.107  53.126  1.00  0.00     0.029 C 
BRANCH  14  15
HETATM   15  C   UNL     1       8.282  22.628  53.240  1.00  0.00     0.235 C 
BRANCH  15  16
HETATM   16  N   UNL     1       7.565  21.989  54.403  1.00  0.00    -0.071 N 
HETATM   17  H   UNL     1       6.555  22.061  54.227  1.00  0.00     0.279 HD
HETATM   18  C   UNL     1       7.844  22.685  55.725  1.00  0.00     0.235 C 
HETATM   19  C   UNL     1       8.527  21.638  56.582  1.00  0.00     0.029 C 
HETATM   20  C   UNL     1       7.905  20.343  56.106  1.00  0.00     0.029 C 
HETATM   21  C   UNL     1       7.893  20.518  54.602  1.00  0.00     0.235 C 
ENDBRANCH  15  16
ENDBRANCH  14  15
ENDBRANCH  13  14
ENDBRANCH  12  13
ENDBRANCH   8  12
ENDBRANCH   4   6
BRANCH   5  22
HETATM   22  C   UNL     1       5.653  28.458  57.233  1.00  0.00     0.256 C 
HETATM   23  N   UNL     1       4.982  29.396  57.959  1.00  0.00    -0.366 N 
HETATM   24  H   UNL     1       5.358  30.317  58.149  1.00  0.00     0.159 HD
HETATM   25  H   UNL     1       4.073  29.158  58.336  1.00  0.00     0.159 HD
HETATM   26  O   UNL     1       5.137  27.361  57.037  1.00  0.00    -0.268 OA
ENDBRANCH   5  22
BRANCH   1  27
HETATM   27  O   UNL     1       8.047  29.409  58.872  1.00  0.00    -0.328 OA
BRANCH  27  28
HETATM   28  C   UNL     1       8.994  30.383  59.326  1.00  0.00     0.222 C 
BRANCH  28  29
HETATM   29  C   UNL     1       8.388  31.098  60.499  1.00  0.00     0.043 A 
HETATM   30  C   UNL     1       8.829  30.864  61.800  1.00  0.00     0.129 A 
HETATM   31  C   UNL     1       8.270  31.528  62.889  1.00  0.00     0.062 A 
HETATM   32  F   UNL     1       9.816  29.985  62.021  1.00  0.00    -0.205 F 
HETATM   33  C   UNL     1       7.248  32.449  62.674  1.00  0.00     0.016 A 
HETATM   34  C   UNL     1       6.790  32.708  61.386  1.00  0.00     0.062 A 
HETATM   35 BR   UNL     1       6.476  33.355  64.142  1.00  0.00    -0.051 Br
HETATM   36  C   UNL     1       7.367  32.034  60.314  1.00  0.00     0.129 A 
HETATM   37  F   UNL     1       6.924  32.296  59.075  1.00  0.00    -0.205 F 
ENDBRANCH  28  29
ENDBRANCH  27  28
ENDBRANCH   1  27
TORSDOF 10
ENDMDL
MODEL 2
REMARK VINA RESULT:      -9.2      4.450     10.320
REMARK  10 active torsions:
REMARK  status: ('A' for Active; 'I' for Inactive)
REMARK    1  A    between atoms: C_4  and  C_5 
REMARK    2  A    between atoms: C_5  and  O_6 
REMARK    3  A    between atoms: O_6  and  C_7 
REMARK    4  A    between atoms: C_10  and  N_11 
REMARK       I    between atoms: N_11  and  C_12 
REMARK       I    between atoms: C_12  and  N_13 
REMARK    5  A    between atoms: N_13  and  C_14 
REMARK    6  A    between atoms: C_14  and  C_15 
REMARK    7  A    between atoms: C_15  and  C_16 
REMARK    8  A    between atoms: C_16  and  C_17 
REMARK    9  A    between atoms: C_17  and  N_18 
REMARK   10  A    between atoms: C_25  and  C_26 
REMARK       I    between atoms: C_26  and  N_27 
ROOT
HETATM    1  C   UNL     1       7.144  28.017  56.084  1.00  0.00     0.191 C 
HETATM    2  N   UNL     1       5.870  27.809  56.393  1.00  0.00    -0.184 NA
HETATM    3  S   UNL     1       5.413  28.986  57.458  1.00  0.00     0.033 SA
HETATM    4  C   UNL     1       6.885  29.864  57.393  1.00  0.00     0.117 C 
HETATM    5  C   UNL     1       7.828  29.126  56.691  1.00  0.00     0.120 C 
ENDROOT
BRANCH   4   6
HETATM    6  N   UNL     1       6.816  31.061  58.080  1.00  0.00    -0.301 N 
HETATM    7  C   UNL     1       7.496  31.396  59.216  1.00  0.00     0.321 C 
HETATM    8  N   UNL     1       8.105  30.407  59.917  1.00  0.00    -0.343 N 
HETATM    9  O   UNL     1       7.627  32.588  59.500  1.00  0.00    -0.247 OA
HETATM   10  H   UNL     1       7.475  29.618  60.044  1.00  0.00     0.164 HD
HETATM   11  H   UNL     1       6.647  31.880  57.508  1.00  0.00     0.171 HD
BRANCH   8  12
HETATM   12  C   UNL     1       8.934  30.650  61.078  1.00  0.00     0.124 C 
BRANCH  12  13
HETATM   13  C   UNL     1       8.142  30.707  62.389  1.00  0.00     0.021 C 
BRANCH  13  14
HETATM   14  C   UNL     1       7.906  32.102  62.980  1.00  0.00     0.029 C 
BRANCH  14  15
HETATM   15  C   UNL     1       6.472  32.588  62.789  1.00  0.00     0.235 C 
BRANCH  15  16
HETATM   16  N   UNL     1       6.150  33.704  63.751  1.00  0.00    -0.071 N 
HETATM   17  H   UNL     1       5.917  34.538  63.198  1.00  0.00     0.279 HD
HETATM   18  C   UNL     1       7.323  34.070  64.647  1.00  0.00     0.235 C 
HETATM   19  C   UNL     1       6.847  33.772  66.055  1.00  0.00     0.029 C 
HETATM   20  C   UNL     1       5.361  34.051  65.983  1.00  0.00     0.029 C 
HETATM   21  C   UNL     1       4.970  33.415  64.665  1.00  0.00     0.235 C 
ENDBRANCH  15  16
ENDBRANCH  14  15
ENDBRANCH  13  14
ENDBRANCH  12  13
ENDBRANCH   8  12
ENDBRANCH   4   6
BRANCH   5  22
HETATM   22  C   UNL     1       9.252  29.402  56.611  1.00  0.00     0.256 C 
HETATM   23  N   UNL     1       9.819  29.399  55.372  1.00  0.00    -0.366 N 
HETATM   24  H   UNL     1       9.289  29.225  54.526  1.00  0.00     0.159 HD
HETATM   25  H   UNL     1      10.813  29.567  55.293  1.00  0.00     0.159 HD
HETATM   26  O   UNL     1       9.952  29.624  57.596  1.00  0.00    -0.268 OA
ENDBRANCH   5  22
BRANCH   1  27
HETATM   27  O   UNL     1       7.739  27.121  55.260  1.00  0.00    -0.328 OA
BRANCH  27  28
HETATM   28  C   UNL     1       6.827  26.560  54.307  1.00  0.00     0.222 C 
BRANCH  28  29
HETATM   29  C   UNL     1       7.177  25.110  54.138  1.00  0.00     0.043 A 
HETATM   30  C   UNL     1       6.973  24.188  55.163  1.00  0.00     0.129 A 
HETATM   31  C   UNL     1       7.295  22.842  55.006  1.00  0.00     0.062 A 
HETATM   32  F   UNL     1       6.451  24.593  56.328  1.00  0.00    -0.205 F 
HETATM   33  C   UNL     1       7.833  22.406  53.798  1.00  0.00     0.016 A 
HETATM   34  C   UNL     1       8.043  23.303  52.754  1.00  0.00     0.062 A 
HETATM   35 BR   UNL     1       8.279  20.584  53.572  1.00  0.00    -0.051 Br
HETATM   36  C   UNL     1       7.710  24.642  52.934  1.00  0.00     0.129 A 
HETATM   37  F   UNL     1       7.910  25.496  51.919  1.00  0.00    -0.205 F 
ENDBRANCH  28  29
ENDBRANCH  27  28
ENDBRANCH   1  27
TORSDOF 10
ENDMDL
MODEL 3
REMARK VINA RESULT:      -9.1      1.454      1.956
REMARK  10 active torsions:
REMARK  status: ('A' for Active; 'I' for Inactive)
REMARK    1  A    between atoms: C_4  and  C_5 
REMARK    2  A    between atoms: C_5  and  O_6 
REMARK    3  A    between atoms: O_6  and  C_7 
REMARK    4  A    between atoms: C_10  and  N_11 
REMARK       I    between atoms: N_11  and  C_12 
REMARK       I    between atoms: C_12  and  N_13 
REMARK    5  A    between atoms: N_13  and  C_14 
REMARK    6  A    between atoms: C_14  and  C_15 
REMARK    7  A    between atoms: C_15  and  C_16 
REMARK    8  A    between atoms: C_16  and  C_17 
REMARK    9  A    between atoms: C_17  and  N_18 
REMARK   10  A    between atoms: C_25  and  C_26 
REMARK       I    between atoms: C_26  and  N_27 
ROOT
HETATM    1  C   UNL     1       8.134  30.223  58.488  1.00  0.00     0.191 C 
HETATM    2  N   UNL     1       9.453  30.150  58.360  1.00  0.00    -0.184 NA
HETATM    3  S   UNL     1       9.777  29.445  56.902  1.00  0.00     0.033 SA
HETATM    4  C   UNL     1       8.147  29.369  56.376  1.00  0.00     0.117 C 
HETATM    5  C   UNL     1       7.309  29.708  57.430  1.00  0.00     0.120 C 
ENDROOT
BRANCH   4   6
HETATM    6  N   UNL     1       8.034  28.951  55.063  1.00  0.00    -0.301 N 
HETATM    7  C   UNL     1       7.515  27.768  54.621  1.00  0.00     0.321 C 
HETATM    8  N   UNL     1       7.320  26.773  55.522  1.00  0.00    -0.343 N 
HETATM    9  O   UNL     1       7.139  27.685  53.450  1.00  0.00    -0.247 OA
HETATM   10  H   UNL     1       8.143  26.656  56.110  1.00  0.00     0.164 HD
HETATM   11  H   UNL     1       7.879  29.687  54.385  1.00  0.00     0.171 HD
BRANCH   8  12
HETATM   12  C   UNL     1       6.687  25.514  55.192  1.00  0.00     0.124 C 
BRANCH  12  13
HETATM   13  C   UNL     1       7.003  24.396  56.192  1.00  0.00     0.021 C 
BRANCH  13  14
HETATM   14  C   UNL     1       8.427  23.829  56.149  1.00  0.00     0.029 C 
BRANCH  14  15
HETATM   15  C   UNL     1       8.475  22.334  56.455  1.00  0.00     0.235 C 
BRANCH  15  16
HETATM   16  N   UNL     1       8.852  21.546  55.226  1.00  0.00    -0.071 N 
HETATM   17  H   UNL     1       9.729  21.051  55.426  1.00  0.00     0.279 HD
HETATM   18  C   UNL     1       9.099  22.427  54.011  1.00  0.00     0.235 C 
HETATM   19  C   UNL     1       8.048  22.007  53.003  1.00  0.00     0.029 C 
HETATM   20  C   UNL     1       7.853  20.535  53.300  1.00  0.00     0.029 C 
HETATM   21  C   UNL     1       7.821  20.507  54.814  1.00  0.00     0.235 C 
ENDBRANCH  15  16
ENDBRANCH  14  15
ENDBRANCH  13  14
ENDBRANCH  12  13
ENDBRANCH   8  12
ENDBRANCH   4   6
BRANCH   5  22
HETATM   22  C   UNL     1       5.866  29.543  57.471  1.00  0.00     0.256 C 
HETATM   23  N   UNL     1       5.146  30.508  58.108  1.00  0.00    -0.366 N 
HETATM   24  H   UNL     1       5.574  31.323  58.534  1.00  0.00     0.159 HD
HETATM   25  H   UNL     1       4.142  30.404  58.169  1.00  0.00     0.159 HD
HETATM   26  O   UNL     1       5.283  28.584  56.973  1.00  0.00    -0.268 OA
ENDBRANCH   5  22
BRANCH   1  27
HETATM   27  O   UNL     1       7.649  30.722  59.651  1.00  0.00    -0.328 OA
BRANCH  27  28
HETATM   28  C   UNL     1       7.815  32.141  59.753  1.00  0.00     0.222 C 
BRANCH  28  29
HETATM   29  C   UNL     1       7.510  32.537  61.169  1.00  0.00     0.043 A 
HETATM   30  C   UNL     1       8.403  32.273  62.206  1.00  0.00     0.129 A 
HETATM   31  C   UNL     1       8.123  32.641  63.519  1.00  0.00     0.062 A 
HETATM   32  F   UNL     1       9.563  31.655  61.945  1.00  0.00    -0.205 F 
HETATM   33  C   UNL     1       6.924  33.290  63.804  1.00  0.00     0.016 A 
HETATM   34  C   UNL     1       6.015  33.572  62.789  1.00  0.00     0.062 A 
HETATM   35 BR   UNL     1       6.527  33.792  65.582  1.00  0.00    -0.051 Br
HETATM   36  C   UNL     1       6.319  33.196  61.484  1.00  0.00     0.129 A 
HETATM   37  F   UNL     1       5.440  33.479  60.511  1.00  0.00    -0.205 F 
ENDBRANCH  28  29
ENDBRANCH  27  28
ENDBRANCH   1  27
TORSDOF 10
ENDMDL
MODEL 4
REMARK VINA RESULT:      -9.0      1.314      2.087
REMARK  10 active torsions:
REMARK  status: ('A' for Active; 'I' for Inactive)
REMARK    1  A    between atoms: C_4  and  C_5 
REMARK    2  A    between atoms: C_5  and  O_6 
REMARK    3  A    between atoms: O_6  and  C_7 
REMARK    4  A    between atoms: C_10  and  N_11 
REMARK       I    between atoms: N_11  and  C_12 
REMARK       I    between atoms: C_12  and  N_13 
REMARK    5  A    between atoms: N_13  and  C_14 
REMARK    6  A    between atoms: C_14  and  C_15 
REMARK    7  A    between atoms: C_15  and  C_16 
REMARK    8  A    between atoms: C_16  and  C_17 
REMARK    9  A    between atoms: C_17  and  N_18 
REMARK   10  A    between atoms: C_25  and  C_26 
REMARK       I    between atoms: C_26  and  N_27 
ROOT
HETATM    1  C   UNL     1       8.350  30.114  58.385  1.00  0.00     0.191 C 
HETATM    2  N   UNL     1       9.644  30.000  58.108  1.00  0.00    -0.184 NA
HETATM    3  S   UNL     1       9.778  29.314  56.613  1.00  0.00     0.033 SA
HETATM    4  C   UNL     1       8.098  29.301  56.272  1.00  0.00     0.117 C 
HETATM    5  C   UNL     1       7.395  29.647  57.418  1.00  0.00     0.120 C 
ENDROOT
BRANCH   4   6
HETATM    6  N   UNL     1       7.825  28.912  54.973  1.00  0.00    -0.301 N 
HETATM    7  C   UNL     1       7.167  27.784  54.576  1.00  0.00     0.321 C 
HETATM    8  N   UNL     1       6.974  26.796  55.486  1.00  0.00    -0.343 N 
HETATM    9  O   UNL     1       6.675  27.750  53.447  1.00  0.00    -0.247 OA
HETATM   10  H   UNL     1       7.836  26.602  55.991  1.00  0.00     0.164 HD
HETATM   11  H   UNL     1       7.669  29.669  54.318  1.00  0.00     0.171 HD
BRANCH   8  12
HETATM   12  C   UNL     1       6.207  25.600  55.211  1.00  0.00     0.124 C 
BRANCH  12  13
HETATM   13  C   UNL     1       7.071  24.340  55.091  1.00  0.00     0.021 C 
BRANCH  13  14
HETATM   14  C   UNL     1       6.957  23.560  53.776  1.00  0.00     0.029 C 
BRANCH  14  15
HETATM   15  C   UNL     1       8.317  23.246  53.157  1.00  0.00     0.235 C 
BRANCH  15  16
HETATM   16  N   UNL     1       8.850  21.933  53.672  1.00  0.00    -0.071 N 
HETATM   17  H   UNL     1       9.536  21.583  52.991  1.00  0.00     0.279 HD
HETATM   18  C   UNL     1       7.772  20.871  53.813  1.00  0.00     0.235 C 
HETATM   19  C   UNL     1       7.738  20.542  55.292  1.00  0.00     0.029 C 
HETATM   20  C   UNL     1       9.174  20.746  55.725  1.00  0.00     0.029 C 
HETATM   21  C   UNL     1       9.550  22.032  55.018  1.00  0.00     0.235 C 
ENDBRANCH  15  16
ENDBRANCH  14  15
ENDBRANCH  13  14
ENDBRANCH  12  13
ENDBRANCH   8  12
ENDBRANCH   4   6
BRANCH   5  22
HETATM   22  C   UNL     1       5.961  29.527  57.618  1.00  0.00     0.256 C 
HETATM   23  N   UNL     1       5.320  30.590  58.180  1.00  0.00    -0.366 N 
HETATM   24  H   UNL     1       5.798  31.443  58.446  1.00  0.00     0.159 HD
HETATM   25  H   UNL     1       4.325  30.522  58.350  1.00  0.00     0.159 HD
HETATM   26  O   UNL     1       5.319  28.525  57.316  1.00  0.00    -0.268 OA
ENDBRANCH   5  22
BRANCH   1  27
HETATM   27  O   UNL     1       8.015  30.605  59.603  1.00  0.00    -0.328 OA
BRANCH  27  28
HETATM   28  C   UNL     1       8.191  32.024  59.691  1.00  0.00     0.222 C 
BRANCH  28  29
HETATM   29  C   UNL     1       7.749  32.456  61.059  1.00  0.00     0.043 A 
HETATM   30  C   UNL     1       6.526  33.091  61.262  1.00  0.00     0.129 A 
HETATM   31  C   UNL     1       6.113  33.490  62.531  1.00  0.00     0.062 A 
HETATM   32  F   UNL     1       5.716  33.325  60.220  1.00  0.00    -0.205 F 
HETATM   33  C   UNL     1       6.942  33.248  63.624  1.00  0.00     0.016 A 
HETATM   34  C   UNL     1       8.167  32.610  63.454  1.00  0.00     0.062 A 
HETATM   35 BR   UNL     1       6.398  33.787  65.351  1.00  0.00    -0.051 Br
HETATM   36  C   UNL     1       8.555  32.218  62.176  1.00  0.00     0.129 A 
HETATM   37  F   UNL     1       9.735  31.598  62.024  1.00  0.00    -0.205 F 
ENDBRANCH  28  29
ENDBRANCH  27  28
ENDBRANCH   1  27
TORSDOF 10
ENDMDL
MODEL 5
REMARK VINA RESULT:      -8.9      4.302     10.082
REMARK  10 active torsions:
REMARK  status: ('A' for Active; 'I' for Inactive)
REMARK    1  A    between atoms: C_4  and  C_5 
REMARK    2  A    between atoms: C_5  and  O_6 
REMARK    3  A    between atoms: O_6  and  C_7 
REMARK    4  A    between atoms: C_10  and  N_11 
REMARK       I    between atoms: N_11  and  C_12 
REMARK       I    between atoms: C_12  and  N_13 
REMARK    5  A    between atoms: N_13  and  C_14 
REMARK    6  A    between atoms: C_14  and  C_15 
REMARK    7  A    between atoms: C_15  and  C_16 
REMARK    8  A    between atoms: C_16  and  C_17 
REMARK    9  A    between atoms: C_17  and  N_18 
REMARK   10  A    between atoms: C_25  and  C_26 
REMARK       I    between atoms: C_26  and  N_27 
ROOT
HETATM    1  C   UNL     1       7.107  28.154  56.007  1.00  0.00     0.191 C 
HETATM    2  N   UNL     1       5.828  27.992  56.326  1.00  0.00    -0.184 NA
HETATM    3  S   UNL     1       5.433  29.161  57.424  1.00  0.00     0.033 SA
HETATM    4  C   UNL     1       6.940  29.977  57.363  1.00  0.00     0.117 C 
HETATM    5  C   UNL     1       7.843  29.218  56.633  1.00  0.00     0.120 C 
ENDROOT
BRANCH   4   6
HETATM    6  N   UNL     1       6.929  31.160  58.080  1.00  0.00    -0.301 N 
HETATM    7  C   UNL     1       7.603  31.424  59.237  1.00  0.00     0.321 C 
HETATM    8  N   UNL     1       8.135  30.383  59.925  1.00  0.00    -0.343 N 
HETATM    9  O   UNL     1       7.801  32.598  59.555  1.00  0.00    -0.247 OA
HETATM   10  H   UNL     1       7.456  29.631  60.018  1.00  0.00     0.164 HD
HETATM   11  H   UNL     1       6.823  32.001  57.526  1.00  0.00     0.171 HD
BRANCH   8  12
HETATM   12  C   UNL     1       8.953  30.546  61.108  1.00  0.00     0.124 C 
BRANCH  12  13
HETATM   13  C   UNL     1       8.136  30.810  62.378  1.00  0.00     0.021 C 
BRANCH  13  14
HETATM   14  C   UNL     1       8.244  32.219  62.974  1.00  0.00     0.029 C 
BRANCH  14  15
HETATM   15  C   UNL     1       6.883  32.814  63.327  1.00  0.00     0.235 C 
BRANCH  15  16
HETATM   16  N   UNL     1       6.258  33.476  62.124  1.00  0.00    -0.071 N 
HETATM   17  H   UNL     1       6.932  33.423  61.350  1.00  0.00     0.279 HD
HETATM   18  C   UNL     1       5.948  34.947  62.352  1.00  0.00     0.235 C 
HETATM   19  C   UNL     1       4.442  35.055  62.217  1.00  0.00     0.029 C 
HETATM   20  C   UNL     1       4.110  33.983  61.201  1.00  0.00     0.029 C 
HETATM   21  C   UNL     1       4.968  32.821  61.655  1.00  0.00     0.235 C 
ENDBRANCH  15  16
ENDBRANCH  14  15
ENDBRANCH  13  14
ENDBRANCH  12  13
ENDBRANCH   8  12
ENDBRANCH   4   6
BRANCH   5  22
HETATM   22  C   UNL     1       9.277  29.435  56.544  1.00  0.00     0.256 C 
HETATM   23  N   UNL     1       9.832  29.425  55.299  1.00  0.00    -0.366 N 
HETATM   24  H   UNL     1       9.288  29.285  54.456  1.00  0.00     0.159 HD
HETATM   25  H   UNL     1      10.832  29.552  55.213  1.00  0.00     0.159 HD
HETATM   26  O   UNL     1       9.994  29.615  57.524  1.00  0.00    -0.268 OA
ENDBRANCH   5  22
BRANCH   1  27
HETATM   27  O   UNL     1       7.654  27.254  55.155  1.00  0.00    -0.328 OA
BRANCH  27  28
HETATM   28  C   UNL     1       6.675  26.616  54.326  1.00  0.00     0.222 C 
BRANCH  28  29
HETATM   29  C   UNL     1       7.081  25.180  54.162  1.00  0.00     0.043 A 
HETATM   30  C   UNL     1       7.668  24.721  52.984  1.00  0.00     0.129 A 
HETATM   31  C   UNL     1       8.048  23.390  52.830  1.00  0.00     0.062 A 
HETATM   32  F   UNL     1       7.881  25.570  51.970  1.00  0.00    -0.205 F 
HETATM   33  C   UNL     1       7.838  22.496  53.878  1.00  0.00     0.016 A 
HETATM   34  C   UNL     1       7.259  22.927  55.068  1.00  0.00     0.062 A 
HETATM   35 BR   UNL     1       8.344  20.686  53.684  1.00  0.00    -0.051 Br
HETATM   36  C   UNL     1       6.892  24.263  55.198  1.00  0.00     0.129 A 
HETATM   37  F   UNL     1       6.341  24.669  56.352  1.00  0.00    -0.205 F 
ENDBRANCH  28  29
ENDBRANCH  27  28
ENDBRANCH   1  27
TORSDOF 10
ENDMDL
MODEL 6
REMARK VINA RESULT:      -8.8      1.639      2.842
REMARK  10 active torsions:
REMARK  status: ('A' for Active; 'I' for Inactive)
REMARK    1  A    between atoms: C_4  and  C_5 
REMARK    2  A    between atoms: C_5  and  O_6 
REMARK    3  A    between atoms: O_6  and  C_7 
REMARK    4  A    between atoms: C_10  and  N_11 
REMARK       I    between atoms: N_11  and  C_12 
REMARK       I    between atoms: C_12  and  N_13 
REMARK    5  A    between atoms: N_13  and  C_14 
REMARK    6  A    between atoms: C_14  and  C_15 
REMARK    7  A    between atoms: C_15  and  C_16 
REMARK    8  A    between atoms: C_16  and  C_17 
REMARK    9  A    between atoms: C_17  and  N_18 
REMARK   10  A    between atoms: C_25  and  C_26 
REMARK       I    between atoms: C_26  and  N_27 
ROOT
HETATM    1  C   UNL     1       7.030  30.502  58.256  1.00  0.00     0.191 C 
HETATM    2  N   UNL     1       5.925  31.188  57.989  1.00  0.00    -0.184 NA
HETATM    3  S   UNL     1       5.492  30.854  56.430  1.00  0.00     0.033 SA
HETATM    4  C   UNL     1       6.706  29.675  56.158  1.00  0.00     0.117 C 
HETATM    5  C   UNL     1       7.597  29.680  57.223  1.00  0.00     0.120 C 
ENDROOT
BRANCH   4   6
HETATM    6  N   UNL     1       6.554  29.031  54.944  1.00  0.00    -0.301 N 
HETATM    7  C   UNL     1       6.319  27.701  54.744  1.00  0.00     0.321 C 
HETATM    8  N   UNL     1       6.505  26.851  55.784  1.00  0.00    -0.343 N 
HETATM    9  O   UNL     1       5.843  27.337  53.667  1.00  0.00    -0.247 OA
HETATM   10  H   UNL     1       7.393  27.038  56.246  1.00  0.00     0.164 HD
HETATM   11  H   UNL     1       6.129  29.585  54.210  1.00  0.00     0.171 HD
BRANCH   8  12
HETATM   12  C   UNL     1       6.195  25.438  55.722  1.00  0.00     0.124 C 
BRANCH  12  13
HETATM   13  C   UNL     1       6.902  24.614  56.804  1.00  0.00     0.021 C 
BRANCH  13  14
HETATM   14  C   UNL     1       8.297  24.083  56.451  1.00  0.00     0.029 C 
BRANCH  14  15
HETATM   15  C   UNL     1       8.380  22.560  56.508  1.00  0.00     0.235 C 
BRANCH  15  16
HETATM   16  N   UNL     1       7.657  21.939  55.339  1.00  0.00    -0.071 N 
HETATM   17  H   UNL     1       6.647  22.035  55.507  1.00  0.00     0.279 HD
HETATM   18  C   UNL     1       7.949  20.455  55.183  1.00  0.00     0.235 C 
HETATM   19  C   UNL     1       8.621  20.329  53.830  1.00  0.00     0.029 C 
HETATM   20  C   UNL     1       7.979  21.437  53.022  1.00  0.00     0.029 C 
HETATM   21  C   UNL     1       7.964  22.592  54.001  1.00  0.00     0.235 C 
ENDBRANCH  15  16
ENDBRANCH  14  15
ENDBRANCH  13  14
ENDBRANCH  12  13
ENDBRANCH   8  12
ENDBRANCH   4   6
BRANCH   5  22
HETATM   22  C   UNL     1       8.883  29.005  57.273  1.00  0.00     0.256 C 
HETATM   23  N   UNL     1       9.988  29.783  57.447  1.00  0.00    -0.366 N 
HETATM   24  H   UNL     1       9.941  30.790  57.551  1.00  0.00     0.159 HD
HETATM   25  H   UNL     1      10.896  29.338  57.464  1.00  0.00     0.159 HD
HETATM   26  O   UNL     1       9.011  27.789  57.157  1.00  0.00    -0.268 OA
ENDBRANCH   5  22
BRANCH   1  27
HETATM   27  O   UNL     1       7.593  30.680  59.475  1.00  0.00    -0.328 OA
BRANCH  27  28
HETATM   28  C   UNL     1       8.086  32.012  59.666  1.00  0.00     0.222 C 
BRANCH  28  29
HETATM   29  C   UNL     1       7.707  32.446  61.052  1.00  0.00     0.043 A 
HETATM   30  C   UNL     1       6.522  33.136  61.299  1.00  0.00     0.129 A 
HETATM   31  C   UNL     1       6.168  33.538  62.585  1.00  0.00     0.062 A 
HETATM   32  F   UNL     1       5.694  33.422  60.286  1.00  0.00    -0.205 F 
HETATM   33  C   UNL     1       7.017  33.242  63.649  1.00  0.00     0.016 A 
HETATM   34  C   UNL     1       8.204  32.549  63.434  1.00  0.00     0.062 A 
HETATM   35 BR   UNL     1       6.552  33.784  65.399  1.00  0.00    -0.051 Br
HETATM   36  C   UNL     1       8.534  32.156  62.140  1.00  0.00     0.129 A 
HETATM   37  F   UNL     1       9.678  31.482  61.945  1.00  0.00    -0.205 F 
ENDBRANCH  28  29
ENDBRANCH  27  28
ENDBRANCH   1  27
TORSDOF 10
ENDMDL
MODEL 7
REMARK VINA RESULT:      -8.7      5.704      8.538
REMARK  10 active torsions:
REMARK  status: ('A' for Active; 'I' for Inactive)
REMARK    1  A    between atoms: C_4  and  C_5 
REMARK    2  A    between atoms: C_5  and  O_6 
REMARK    3  A    between atoms: O_6  and  C_7 
REMARK    4  A    between atoms: C_10  and  N_11 
REMARK       I    between atoms: N_11  and  C_12 
REMARK       I    between atoms: C_12  and  N_13 
REMARK    5  A    between atoms: N_13  and  C_14 
REMARK    6  A    between atoms: C_14  and  C_15 
REMARK    7  A    between atoms: C_15  and  C_16 
REMARK    8  A    between atoms: C_16  and  C_17 
REMARK    9  A    between atoms: C_17  and  N_18 
REMARK   10  A    between atoms: C_25  and  C_26 
REMARK       I    between atoms: C_26  and  N_27 
ROOT
HETATM    1  C   UNL     1       5.194  27.591  55.262  1.00  0.00     0.191 C 
HETATM    2  N   UNL     1       5.382  28.542  56.169  1.00  0.00    -0.184 NA
HETATM    3  S   UNL     1       4.721  29.936  55.579  1.00  0.00     0.033 SA
HETATM    4  C   UNL     1       4.052  29.230  54.167  1.00  0.00     0.117 C 
HETATM    5  C   UNL     1       4.519  27.929  54.039  1.00  0.00     0.120 C 
ENDROOT
BRANCH   4   6
HETATM    6  N   UNL     1       3.254  30.113  53.463  1.00  0.00    -0.301 N 
HETATM    7  C   UNL     1       3.549  30.719  52.276  1.00  0.00     0.321 C 
HETATM    8  N   UNL     1       4.833  30.691  51.840  1.00  0.00    -0.343 N 
HETATM    9  O   UNL     1       2.627  31.170  51.594  1.00  0.00    -0.247 OA
HETATM   10  H   UNL     1       5.472  30.943  52.591  1.00  0.00     0.164 HD
HETATM   11  H   UNL     1       2.257  29.957  53.549  1.00  0.00     0.171 HD
BRANCH   8  12
HETATM   12  C   UNL     1       5.249  31.211  50.555  1.00  0.00     0.124 C 
BRANCH  12  13
HETATM   13  C   UNL     1       4.866  30.304  49.381  1.00  0.00     0.021 C 
BRANCH  13  14
HETATM   14  C   UNL     1       5.754  29.074  49.154  1.00  0.00     0.029 C 
BRANCH  14  15
HETATM   15  C   UNL     1       5.205  28.143  48.076  1.00  0.00     0.235 C 
BRANCH  15  16
HETATM   16  N   UNL     1       3.894  27.535  48.508  1.00  0.00    -0.071 N 
HETATM   17  H   UNL     1       3.661  27.916  49.433  1.00  0.00     0.279 HD
HETATM   18  C   UNL     1       3.960  26.022  48.645  1.00  0.00     0.235 C 
HETATM   19  C   UNL     1       2.973  25.494  47.624  1.00  0.00     0.029 C 
HETATM   20  C   UNL     1       1.909  26.571  47.582  1.00  0.00     0.029 C 
HETATM   21  C   UNL     1       2.731  27.843  47.578  1.00  0.00     0.235 C 
ENDBRANCH  15  16
ENDBRANCH  14  15
ENDBRANCH  13  14
ENDBRANCH  12  13
ENDBRANCH   8  12
ENDBRANCH   4   6
BRANCH   5  22
HETATM   22  C   UNL     1       4.381  27.075  52.871  1.00  0.00     0.256 C 
HETATM   23  N   UNL     1       4.125  25.756  53.092  1.00  0.00    -0.366 N 
HETATM   24  H   UNL     1       4.020  25.363  54.020  1.00  0.00     0.159 HD
HETATM   25  H   UNL     1       4.047  25.137  52.295  1.00  0.00     0.159 HD
HETATM   26  O   UNL     1       4.494  27.486  51.719  1.00  0.00    -0.268 OA
ENDBRANCH   5  22
BRANCH   1  27
HETATM   27  O   UNL     1       5.717  26.369  55.524  1.00  0.00    -0.328 OA
BRANCH  27  28
HETATM   28  C   UNL     1       7.112  26.287  55.208  1.00  0.00     0.222 C 
BRANCH  28  29
HETATM   29  C   UNL     1       7.379  24.914  54.665  1.00  0.00     0.043 A 
HETATM   30  C   UNL     1       7.672  24.709  53.319  1.00  0.00     0.129 A 
HETATM   31  C   UNL     1       7.923  23.435  52.813  1.00  0.00     0.062 A 
HETATM   32  F   UNL     1       7.723  25.753  52.481  1.00  0.00    -0.205 F 
HETATM   33  C   UNL     1       7.880  22.340  53.673  1.00  0.00     0.016 A 
HETATM   34  C   UNL     1       7.595  22.514  55.024  1.00  0.00     0.062 A 
HETATM   35 BR   UNL     1       8.213  20.606  53.002  1.00  0.00    -0.051 Br
HETATM   36  C   UNL     1       7.352  23.797  55.506  1.00  0.00     0.129 A 
HETATM   37  F   UNL     1       7.085  23.955  56.811  1.00  0.00    -0.205 F 
ENDBRANCH  28  29
ENDBRANCH  27  28
ENDBRANCH   1  27
TORSDOF 10
ENDMDL
MODEL 8
REMARK VINA RESULT:      -8.6      3.092      4.798
REMARK  10 active torsions:
REMARK  status: ('A' for Active; 'I' for Inactive)
REMARK    1  A    between atoms: C_4  and  C_5 
REMARK    2  A    between atoms: C_5  and  O_6 
REMARK    3  A    between atoms: O_6  and  C_7 
REMARK    4  A    between atoms: C_10  and  N_11 
REMARK       I    between atoms: N_11  and  C_12 
REMARK       I    between atoms: C_12  and  N_13 
REMARK    5  A    between atoms: N_13  and  C_14 
REMARK    6  A    between atoms: C_14  and  C_15 
REMARK    7  A    between atoms: C_15  and  C_16 
REMARK    8  A    between atoms: C_16  and  C_17 
REMARK    9  A    between atoms: C_17  and  N_18 
REMARK   10  A    between atoms: C_25  and  C_26 
REMARK       I    between atoms: C_26  and  N_27 
ROOT
HETATM    1  C   UNL     1       6.739  31.673  60.999  1.00  0.00     0.191 C 
HETATM    2  N   UNL     1       5.997  32.063  59.969  1.00  0.00    -0.184 NA
HETATM    3  S   UNL     1       6.835  31.717  58.588  1.00  0.00     0.033 SA
HETATM    4  C   UNL     1       8.132  30.910  59.366  1.00  0.00     0.117 C 
HETATM    5  C   UNL     1       8.024  31.086  60.739  1.00  0.00     0.120 C 
ENDROOT
BRANCH   4   6
HETATM    6  N   UNL     1       9.001  30.320  58.468  1.00  0.00    -0.301 N 
HETATM    7  C   UNL     1       8.737  29.264  57.643  1.00  0.00     0.321 C 
HETATM    8  N   UNL     1       7.622  28.528  57.877  1.00  0.00    -0.343 N 
HETATM    9  O   UNL     1       9.453  29.087  56.656  1.00  0.00    -0.247 OA
HETATM   10  H   UNL     1       7.547  28.295  58.865  1.00  0.00     0.164 HD
HETATM   11  H   UNL     1       9.679  30.944  58.046  1.00  0.00     0.171 HD
BRANCH   8  12
HETATM   12  C   UNL     1       7.185  27.450  57.016  1.00  0.00     0.124 C 
BRANCH  12  13
HETATM   13  C   UNL     1       7.530  26.060  57.562  1.00  0.00     0.021 C 
BRANCH  13  14
HETATM   14  C   UNL     1       6.808  24.875  56.908  1.00  0.00     0.029 C 
BRANCH  14  15
HETATM   15  C   UNL     1       6.331  25.185  55.492  1.00  0.00     0.235 C 
BRANCH  15  16
HETATM   16  N   UNL     1       6.481  23.979  54.598  1.00  0.00    -0.071 N 
HETATM   17  H   UNL     1       5.557  23.539  54.507  1.00  0.00     0.279 HD
HETATM   18  C   UNL     1       7.424  22.932  55.170  1.00  0.00     0.235 C 
HETATM   19  C   UNL     1       8.559  22.840  54.170  1.00  0.00     0.029 C 
HETATM   20  C   UNL     1       7.880  23.136  52.849  1.00  0.00     0.029 C 
HETATM   21  C   UNL     1       6.977  24.301  53.198  1.00  0.00     0.235 C 
ENDBRANCH  15  16
ENDBRANCH  14  15
ENDBRANCH  13  14
ENDBRANCH  12  13
ENDBRANCH   8  12
ENDBRANCH   4   6
BRANCH   5  22
HETATM   22  C   UNL     1       9.037  30.766  61.731  1.00  0.00     0.256 C 
HETATM   23  N   UNL     1       8.707  29.852  62.685  1.00  0.00    -0.366 N 
HETATM   24  H   UNL     1       7.804  29.392  62.718  1.00  0.00     0.159 HD
HETATM   25  H   UNL     1       9.388  29.630  63.400  1.00  0.00     0.159 HD
HETATM   26  O   UNL     1      10.150  31.284  61.748  1.00  0.00    -0.268 OA
ENDBRANCH   5  22
BRANCH   1  27
HETATM   27  O   UNL     1       6.257  31.921  62.241  1.00  0.00    -0.328 OA
BRANCH  27  28
HETATM   28  C   UNL     1       5.873  33.290  62.420  1.00  0.00     0.222 C 
BRANCH  28  29
HETATM   29  C   UNL     1       5.847  33.569  63.894  1.00  0.00     0.043 A 
HETATM   30  C   UNL     1       7.018  33.598  64.649  1.00  0.00     0.129 A 
HETATM   31  C   UNL     1       6.996  33.860  66.017  1.00  0.00     0.062 A 
HETATM   32  F   UNL     1       8.199  33.376  64.056  1.00  0.00    -0.205 F 
HETATM   33  C   UNL     1       5.777  34.099  66.646  1.00  0.00     0.016 A 
HETATM   34  C   UNL     1       4.591  34.081  65.917  1.00  0.00     0.062 A 
HETATM   35 BR   UNL     1       5.731  34.451  68.502  1.00  0.00    -0.051 Br
HETATM   36  C   UNL     1       4.640  33.821  64.551  1.00  0.00     0.129 A 
HETATM   37  F   UNL     1       3.492  33.814  63.856  1.00  0.00    -0.205 F 
ENDBRANCH  28  29
ENDBRANCH  27  28
ENDBRANCH   1  27
TORSDOF 10
ENDMDL
MODEL 9
REMARK VINA RESULT:      -8.4      2.249      3.289
REMARK  10 active torsions:
REMARK  status: ('A' for Active; 'I' for Inactive)
REMARK    1  A    between atoms: C_4  and  C_5 
REMARK    2  A    between atoms: C_5  and  O_6 
REMARK    3  A    between atoms: O_6  and  C_7 
REMARK    4  A    between atoms: C_10  and  N_11 
REMARK       I    between atoms: N_11  and  C_12 
REMARK       I    between atoms: C_12  and  N_13 
REMARK    5  A    between atoms: N_13  and  C_14 
REMARK    6  A    between atoms: C_14  and  C_15 
REMARK    7  A    between atoms: C_15  and  C_16 
REMARK    8  A    between atoms: C_16  and  C_17 
REMARK    9  A    between atoms: C_17  and  N_18 
REMARK   10  A    between atoms: C_25  and  C_26 
REMARK       I    between atoms: C_26  and  N_27 
ROOT
HETATM    1  C   UNL     1       6.768  31.654  59.015  1.00  0.00     0.191 C 
HETATM    2  N   UNL     1       5.517  31.922  58.659  1.00  0.00    -0.184 NA
HETATM    3  S   UNL     1       5.208  31.102  57.260  1.00  0.00     0.033 SA
HETATM    4  C   UNL     1       6.706  30.270  57.206  1.00  0.00     0.117 C 
HETATM    5  C   UNL     1       7.551  30.786  58.180  1.00  0.00     0.120 C 
ENDROOT
BRANCH   4   6
HETATM    6  N   UNL     1       6.750  29.327  56.197  1.00  0.00    -0.301 N 
HETATM    7  C   UNL     1       6.840  27.972  56.343  1.00  0.00     0.321 C 
HETATM    8  N   UNL     1       7.185  27.477  57.558  1.00  0.00    -0.343 N 
HETATM    9  O   UNL     1       6.499  27.249  55.406  1.00  0.00    -0.247 OA
HETATM   10  H   UNL     1       7.988  27.977  57.934  1.00  0.00     0.164 HD
HETATM   11  H   UNL     1       6.232  29.563  55.360  1.00  0.00     0.171 HD
BRANCH   8  12
HETATM   12  C   UNL     1       7.218  26.063  57.861  1.00  0.00     0.124 C 
BRANCH  12  13
HETATM   13  C   UNL     1       8.449  25.348  57.292  1.00  0.00     0.021 C 
BRANCH  13  14
HETATM   14  C   UNL     1       8.236  23.908  56.810  1.00  0.00     0.029 C 
BRANCH  14  15
HETATM   15  C   UNL     1       8.679  23.700  55.364  1.00  0.00     0.235 C 
BRANCH  15  16
HETATM   16  N   UNL     1       9.233  22.310  55.167  1.00  0.00    -0.071 N 
HETATM   17  H   UNL     1      10.251  22.357  55.292  1.00  0.00     0.279 HD
HETATM   18  C   UNL     1       8.974  21.763  53.772  1.00  0.00     0.235 C 
HETATM   19  C   UNL     1       8.104  20.541  53.987  1.00  0.00     0.029 C 
HETATM   20  C   UNL     1       8.570  20.017  55.329  1.00  0.00     0.029 C 
HETATM   21  C   UNL     1       8.695  21.283  56.150  1.00  0.00     0.235 C 
ENDBRANCH  15  16
ENDBRANCH  14  15
ENDBRANCH  13  14
ENDBRANCH  12  13
ENDBRANCH   8  12
ENDBRANCH   4   6
BRANCH   5  22
HETATM   22  C   UNL     1       8.974  30.523  58.312  1.00  0.00     0.256 C 
HETATM   23  N   UNL     1       9.779  31.584  58.599  1.00  0.00    -0.366 N 
HETATM   24  H   UNL     1       9.424  32.524  58.731  1.00  0.00     0.159 HD
HETATM   25  H   UNL     1      10.776  31.430  58.674  1.00  0.00     0.159 HD
HETATM   26  O   UNL     1       9.470  29.409  58.168  1.00  0.00    -0.268 OA
ENDBRANCH   5  22
BRANCH   1  27
HETATM   27  O   UNL     1       7.248  32.279  60.117  1.00  0.00    -0.328 OA
BRANCH  27  28
HETATM   28  C   UNL     1       7.404  31.389  61.230  1.00  0.00     0.222 C 
BRANCH  28  29
HETATM   29  C   UNL     1       6.940  32.111  62.461  1.00  0.00     0.043 A 
HETATM   30  C   UNL     1       7.846  32.657  63.369  1.00  0.00     0.129 A 
HETATM   31  C   UNL     1       7.417  33.330  64.510  1.00  0.00     0.062 A 
HETATM   32  F   UNL     1       9.162  32.544  63.146  1.00  0.00    -0.205 F 
HETATM   33  C   UNL     1       6.052  33.461  64.752  1.00  0.00     0.016 A 
HETATM   34  C   UNL     1       5.123  32.930  63.861  1.00  0.00     0.062 A 
HETATM   35 BR   UNL     1       5.454  34.366  66.299  1.00  0.00    -0.051 Br
HETATM   36  C   UNL     1       5.577  32.266  62.726  1.00  0.00     0.129 A 
HETATM   37  F   UNL     1       4.674  31.764  61.870  1.00  0.00    -0.205 F 
ENDBRANCH  28  29
ENDBRANCH  27  28
ENDBRANCH   1  27
TORSDOF 10
ENDMDL
MODEL 10
REMARK VINA RESULT:      -8.4      4.490     10.351
REMARK  10 active torsions:
REMARK  status: ('A' for Active; 'I' for Inactive)
REMARK    1  A    between atoms: C_4  and  C_5 
REMARK    2  A    between atoms: C_5  and  O_6 
REMARK    3  A    between atoms: O_6  and  C_7 
REMARK    4  A    between atoms: C_10  and  N_11 
REMARK       I    between atoms: N_11  and  C_12 
REMARK       I    between atoms: C_12  and  N_13 
REMARK    5  A    between atoms: N_13  and  C_14 
REMARK    6  A    between atoms: C_14  and  C_15 
REMARK    7  A    between atoms: C_15  and  C_16 
REMARK    8  A    between atoms: C_16  and  C_17 
REMARK    9  A    between atoms: C_17  and  N_18 
REMARK   10  A    between atoms: C_25  and  C_26 
REMARK       I    between atoms: C_26  and  N_27 
ROOT
HETATM    1  C   UNL     1       7.456  27.328  56.940  1.00  0.00     0.191 C 
HETATM    2  N   UNL     1       8.722  27.645  57.182  1.00  0.00    -0.184 NA
HETATM    3  S   UNL     1       8.757  29.213  57.698  1.00  0.00     0.033 SA
HETATM    4  C   UNL     1       7.056  29.424  57.737  1.00  0.00     0.117 C 
HETATM    5  C   UNL     1       6.444  28.328  57.145  1.00  0.00     0.120 C 
ENDROOT
BRANCH   4   6
HETATM    6  N   UNL     1       6.688  30.635  58.295  1.00  0.00    -0.301 N 
HETATM    7  C   UNL     1       7.244  31.239  59.385  1.00  0.00     0.321 C 
HETATM    8  N   UNL     1       8.058  30.504  60.184  1.00  0.00    -0.343 N 
HETATM    9  O   UNL     1       7.079  32.450  59.542  1.00  0.00    -0.247 OA
HETATM   10  H   UNL     1       7.634  29.603  60.396  1.00  0.00     0.164 HD
HETATM   11  H   UNL     1       6.339  31.325  57.640  1.00  0.00     0.171 HD
BRANCH   8  12
HETATM   12  C   UNL     1       8.781  31.058  61.308  1.00  0.00     0.124 C 
BRANCH  12  13
HETATM   13  C   UNL     1       7.974  31.051  62.611  1.00  0.00     0.021 C 
BRANCH  13  14
HETATM   14  C   UNL     1       7.922  32.375  63.385  1.00  0.00     0.029 C 
BRANCH  14  15
HETATM   15  C   UNL     1       6.958  33.382  62.765  1.00  0.00     0.235 C 
BRANCH  15  16
HETATM   16  N   UNL     1       6.471  34.366  63.799  1.00  0.00    -0.071 N 
HETATM   17  H   UNL     1       7.030  35.223  63.705  1.00  0.00     0.279 HD
HETATM   18  C   UNL     1       6.649  33.865  65.223  1.00  0.00     0.235 C 
HETATM   19  C   UNL     1       5.244  33.773  65.784  1.00  0.00     0.029 C 
HETATM   20  C   UNL     1       4.515  34.893  65.073  1.00  0.00     0.029 C 
HETATM   21  C   UNL     1       5.008  34.752  63.648  1.00  0.00     0.235 C 
ENDBRANCH  15  16
ENDBRANCH  14  15
ENDBRANCH  13  14
ENDBRANCH  12  13
ENDBRANCH   8  12
ENDBRANCH   4   6
BRANCH   5  22
HETATM   22  C   UNL     1       5.045  28.222  56.769  1.00  0.00     0.256 C 
HETATM   23  N   UNL     1       4.477  26.984  56.826  1.00  0.00    -0.366 N 
HETATM   24  H   UNL     1       4.985  26.159  57.124  1.00  0.00     0.159 HD
HETATM   25  H   UNL     1       3.510  26.881  56.548  1.00  0.00     0.159 HD
HETATM   26  O   UNL     1       4.371  29.180  56.402  1.00  0.00    -0.268 OA
ENDBRANCH   5  22
BRANCH   1  27
HETATM   27  O   UNL     1       7.207  26.091  56.446  1.00  0.00    -0.328 OA
BRANCH  27  28
HETATM   28  C   UNL     1       7.396  26.016  55.028  1.00  0.00     0.222 C 
BRANCH  28  29
HETATM   29  C   UNL     1       7.722  24.592  54.684  1.00  0.00     0.043 A 
HETATM   30  C   UNL     1       8.641  23.856  55.429  1.00  0.00     0.129 A 
HETATM   31  C   UNL     1       8.943  22.534  55.114  1.00  0.00     0.062 A 
HETATM   32  F   UNL     1       9.253  24.421  56.479  1.00  0.00    -0.205 F 
HETATM   33  C   UNL     1       8.311  21.931  54.029  1.00  0.00     0.016 A 
HETATM   34  C   UNL     1       7.384  22.638  53.269  1.00  0.00     0.062 A 
HETATM   35 BR   UNL     1       8.713  20.138  53.585  1.00  0.00    -0.051 Br
HETATM   36  C   UNL     1       7.097  23.957  53.607  1.00  0.00     0.129 A 
HETATM   37  F   UNL     1       6.196  24.628  52.873  1.00  0.00    -0.205 F 
ENDBRANCH  28  29
ENDBRANCH  27  28
ENDBRANCH   1  27
TORSDOF 10
ENDMDL
