MODEL 1
REMARK VINA RESULT:      -8.7      0.000      0.000
REMARK  2 active torsions:
REMARK  status: ('A' for Active; 'I' for Inactive)
REMARK    1  A    between atoms: C_8  and  N_9 
REMARK       I    between atoms: N_9  and  C_10 
REMARK       I    between atoms: C_10  and  N_11 
REMARK    2  A    between atoms: N_11  and  C_12 
ROOT
HETATM    1  C   UNL     1       8.234  21.036  53.278  1.00  0.00     0.044 A 
HETATM    2  C   UNL     1       8.767  20.750  54.527  1.00  0.00     0.117 A 
HETATM    3  F   UNL     1       9.107  19.491  54.825  1.00  0.00    -0.206 F 
HETATM    4  C   UNL     1       8.928  21.746  55.481  1.00  0.00     0.067 A 
HETATM    5  C   UNL     1       8.566  23.068  55.184  1.00  0.00     0.074 A 
HETATM    6  C   UNL     1       8.604  24.017  56.263  1.00  0.00     0.102 C 
HETATM    7  N   UNL     1       8.594  24.774  57.145  1.00  0.00    -0.191 NA
HETATM    8  C   UNL     1       8.068  23.384  53.899  1.00  0.00     0.057 A 
HETATM    9  C   UNL     1       7.876  22.350  52.967  1.00  0.00     0.034 A 
ENDROOT
BRANCH   8  10
HETATM   10  N   UNL     1       7.684  24.682  53.475  1.00  0.00    -0.308 N 
HETATM   11  C   UNL     1       6.385  25.122  53.405  1.00  0.00     0.321 C 
HETATM   12  N   UNL     1       6.283  26.295  52.693  1.00  0.00    -0.336 N 
HETATM   13  O   UNL     1       5.413  24.574  53.905  1.00  0.00    -0.247 OA
HETATM   14  H   UNL     1       7.060  26.457  52.064  1.00  0.00     0.164 HD
HETATM   15  H   UNL     1       8.364  25.420  53.612  1.00  0.00     0.170 HD
BRANCH  12  16
HETATM   16  C   UNL     1       4.992  26.821  52.276  1.00  0.00     0.118 C 
HETATM   17  C   UNL     1       4.862  27.333  50.832  1.00  0.00     0.210 C 
HETATM   18  N   UNL     1       3.568  28.123  50.907  1.00  0.00    -0.065 N 
HETATM   19  C   UNL     1       4.713  26.283  49.743  1.00  0.00     0.035 C 
HETATM   20  H   UNL     1       2.783  27.469  51.037  1.00  0.00     0.280 HD
HETATM   21  C   UNL     1       3.305  28.897  49.654  1.00  0.00     0.235 C 
HETATM   22  C   UNL     1       3.707  28.920  52.177  1.00  0.00     0.237 C 
HETATM   23  C   UNL     1       3.184  27.900  48.503  1.00  0.00     0.028 C 
HETATM   24  C   UNL     1       4.390  26.959  48.406  1.00  0.00     0.004 C 
HETATM   25  C   UNL     1       4.520  28.023  53.113  1.00  0.00     0.055 C 
ENDBRANCH  12  16
ENDBRANCH   8  10
TORSDOF 2
ENDMDL
MODEL 2
REMARK VINA RESULT:      -8.7      4.189      6.268
REMARK  2 active torsions:
REMARK  status: ('A' for Active; 'I' for Inactive)
REMARK    1  A    between atoms: C_8  and  N_9 
REMARK       I    between atoms: N_9  and  C_10 
REMARK       I    between atoms: C_10  and  N_11 
REMARK    2  A    between atoms: N_11  and  C_12 
ROOT
HETATM    1  C   UNL     1       9.236  22.619  55.071  1.00  0.00     0.044 A 
HETATM    2  C   UNL     1       8.684  22.168  53.880  1.00  0.00     0.117 A 
HETATM    3  F   UNL     1       9.270  21.161  53.223  1.00  0.00    -0.206 F 
HETATM    4  C   UNL     1       7.548  22.764  53.348  1.00  0.00     0.067 A 
HETATM    5  C   UNL     1       6.931  23.827  54.024  1.00  0.00     0.074 A 
HETATM    6  C   UNL     1       5.861  24.503  53.343  1.00  0.00     0.102 C 
HETATM    7  N   UNL     1       5.025  25.077  52.775  1.00  0.00    -0.191 NA
HETATM    8  C   UNL     1       7.453  24.265  55.263  1.00  0.00     0.057 A 
HETATM    9  C   UNL     1       8.628  23.672  55.756  1.00  0.00     0.034 A 
ENDROOT
BRANCH   8  10
HETATM   10  N   UNL     1       6.911  25.316  56.044  1.00  0.00    -0.308 N 
HETATM   11  C   UNL     1       7.105  26.652  55.790  1.00  0.00     0.321 C 
HETATM   12  N   UNL     1       6.722  27.434  56.856  1.00  0.00    -0.336 N 
HETATM   13  O   UNL     1       7.553  27.129  54.757  1.00  0.00    -0.247 OA
HETATM   14  H   UNL     1       6.698  26.936  57.737  1.00  0.00     0.164 HD
HETATM   15  H   UNL     1       6.053  25.111  56.543  1.00  0.00     0.170 HD
BRANCH  12  16
HETATM   16  C   UNL     1       7.057  28.848  56.920  1.00  0.00     0.118 C 
HETATM   17  C   UNL     1       8.403  29.235  57.556  1.00  0.00     0.210 C 
HETATM   18  N   UNL     1       8.211  30.722  57.787  1.00  0.00    -0.065 N 
HETATM   19  C   UNL     1       9.645  29.044  56.701  1.00  0.00     0.035 C 
HETATM   20  H   UNL     1       8.191  31.203  56.877  1.00  0.00     0.280 HD
HETATM   21  C   UNL     1       9.327  31.319  58.586  1.00  0.00     0.235 C 
HETATM   22  C   UNL     1       6.830  30.818  58.380  1.00  0.00     0.237 C 
HETATM   23  C   UNL     1      10.622  31.126  57.798  1.00  0.00     0.028 C 
HETATM   24  C   UNL     1      10.861  29.665  57.400  1.00  0.00     0.004 C 
HETATM   25  C   UNL     1       6.044  29.684  57.721  1.00  0.00     0.055 C 
ENDBRANCH  12  16
ENDBRANCH   8  10
TORSDOF 2
ENDMDL
MODEL 3
REMARK VINA RESULT:      -8.3      3.063      7.651
REMARK  2 active torsions:
REMARK  status: ('A' for Active; 'I' for Inactive)
REMARK    1  A    between atoms: C_8  and  N_9 
REMARK       I    between atoms: N_9  and  C_10 
REMARK       I    between atoms: C_10  and  N_11 
REMARK    2  A    between atoms: N_11  and  C_12 
ROOT
HETATM    1  C   UNL     1       4.876  26.957  49.524  1.00  0.00     0.044 A 
HETATM    2  C   UNL     1       4.459  28.281  49.537  1.00  0.00     0.117 A 
HETATM    3  F   UNL     1       4.235  28.912  48.379  1.00  0.00    -0.206 F 
HETATM    4  C   UNL     1       4.297  28.968  50.733  1.00  0.00     0.067 A 
HETATM    5  C   UNL     1       4.539  28.320  51.953  1.00  0.00     0.074 A 
HETATM    6  C   UNL     1       4.512  29.128  53.141  1.00  0.00     0.102 C 
HETATM    7  N   UNL     1       4.532  29.790  54.096  1.00  0.00    -0.191 NA
HETATM    8  C   UNL     1       4.916  26.958  51.958  1.00  0.00     0.057 A 
HETATM    9  C   UNL     1       5.113  26.299  50.733  1.00  0.00     0.034 A 
ENDROOT
BRANCH   8  10
HETATM   10  N   UNL     1       5.173  26.192  53.124  1.00  0.00    -0.308 N 
HETATM   11  C   UNL     1       6.420  25.773  53.517  1.00  0.00     0.321 C 
HETATM   12  N   UNL     1       6.347  24.814  54.503  1.00  0.00    -0.336 N 
HETATM   13  O   UNL     1       7.487  26.179  53.079  1.00  0.00    -0.247 OA
HETATM   14  H   UNL     1       5.458  24.331  54.534  1.00  0.00     0.164 HD
HETATM   15  H   UNL     1       4.512  26.295  53.884  1.00  0.00     0.170 HD
BRANCH  12  16
HETATM   16  C   UNL     1       7.516  24.046  54.904  1.00  0.00     0.118 C 
HETATM   17  C   UNL     1       7.511  22.536  54.617  1.00  0.00     0.210 C 
HETATM   18  N   UNL     1       8.654  22.058  55.494  1.00  0.00    -0.065 N 
HETATM   19  C   UNL     1       7.800  22.108  53.187  1.00  0.00     0.035 C 
HETATM   20  H   UNL     1       9.542  22.407  55.106  1.00  0.00     0.280 HD
HETATM   21  C   UNL     1       8.741  20.565  55.545  1.00  0.00     0.235 C 
HETATM   22  C   UNL     1       8.423  22.767  56.802  1.00  0.00     0.237 C 
HETATM   23  C   UNL     1       8.993  20.061  54.125  1.00  0.00     0.028 C 
HETATM   24  C   UNL     1       7.960  20.585  53.119  1.00  0.00     0.004 C 
HETATM   25  C   UNL     1       7.804  24.111  56.414  1.00  0.00     0.055 C 
ENDBRANCH  12  16
ENDBRANCH   8  10
TORSDOF 2
ENDMDL
MODEL 4
REMARK VINA RESULT:      -8.3      3.112      4.595
REMARK  2 active torsions:
REMARK  status: ('A' for Active; 'I' for Inactive)
REMARK    1  A    between atoms: C_8  and  N_9 
REMARK       I    between atoms: N_9  and  C_10 
REMARK       I    between atoms: C_10  and  N_11 
REMARK    2  A    between atoms: N_11  and  C_12 
ROOT
HETATM    1  C   UNL     1       8.252  21.068  55.060  1.00  0.00     0.044 A 
HETATM    2  C   UNL     1       7.929  21.041  53.711  1.00  0.00     0.117 A 
HETATM    3  F   UNL     1       7.760  19.864  53.097  1.00  0.00    -0.206 F 
HETATM    4  C   UNL     1       7.805  22.217  52.982  1.00  0.00     0.067 A 
HETATM    5  C   UNL     1       7.990  23.456  53.612  1.00  0.00     0.074 A 
HETATM    6  C   UNL     1       8.010  24.622  52.773  1.00  0.00     0.102 C 
HETATM    7  N   UNL     1       8.067  25.560  52.088  1.00  0.00    -0.191 NA
HETATM    8  C   UNL     1       8.271  23.501  54.997  1.00  0.00     0.057 A 
HETATM    9  C   UNL     1       8.432  22.295  55.700  1.00  0.00     0.034 A 
ENDROOT
BRANCH   8  10
HETATM   10  N   UNL     1       8.463  24.689  55.747  1.00  0.00    -0.308 N 
HETATM   11  C   UNL     1       7.452  25.399  56.347  1.00  0.00     0.321 C 
HETATM   12  N   UNL     1       7.874  26.646  56.747  1.00  0.00    -0.336 N 
HETATM   13  O   UNL     1       6.308  25.007  56.528  1.00  0.00    -0.247 OA
HETATM   14  H   UNL     1       8.697  26.973  56.256  1.00  0.00     0.164 HD
HETATM   15  H   UNL     1       9.366  24.801  56.191  1.00  0.00     0.170 HD
BRANCH  12  16
HETATM   16  C   UNL     1       6.931  27.666  57.181  1.00  0.00     0.118 C 
HETATM   17  C   UNL     1       6.249  28.515  56.096  1.00  0.00     0.210 C 
HETATM   18  N   UNL     1       5.686  29.659  56.918  1.00  0.00    -0.065 N 
HETATM   19  C   UNL     1       5.103  27.868  55.337  1.00  0.00     0.035 C 
HETATM   20  H   UNL     1       4.920  29.304  57.507  1.00  0.00     0.280 HD
HETATM   21  C   UNL     1       5.124  30.749  56.060  1.00  0.00     0.235 C 
HETATM   22  C   UNL     1       6.821  30.038  57.833  1.00  0.00     0.237 C 
HETATM   23  C   UNL     1       3.984  30.154  55.234  1.00  0.00     0.028 C 
HETATM   24  C   UNL     1       4.410  28.908  54.449  1.00  0.00     0.004 C 
HETATM   25  C   UNL     1       7.553  28.723  58.109  1.00  0.00     0.055 C 
ENDBRANCH  12  16
ENDBRANCH   8  10
TORSDOF 2
ENDMDL
MODEL 5
REMARK VINA RESULT:      -8.2      5.594      8.073
REMARK  2 active torsions:
REMARK  status: ('A' for Active; 'I' for Inactive)
REMARK    1  A    between atoms: C_8  and  N_9 
REMARK       I    between atoms: N_9  and  C_10 
REMARK       I    between atoms: C_10  and  N_11 
REMARK    2  A    between atoms: N_11  and  C_12 
ROOT
HETATM    1  C   UNL     1       7.120  31.714  59.500  1.00  0.00     0.044 A 
HETATM    2  C   UNL     1       8.431  31.784  59.949  1.00  0.00     0.117 A 
HETATM    3  F   UNL     1       8.711  32.487  61.053  1.00  0.00    -0.206 F 
HETATM    4  C   UNL     1       9.459  31.160  59.255  1.00  0.00     0.067 A 
HETATM    5  C   UNL     1       9.178  30.430  58.092  1.00  0.00     0.074 A 
HETATM    6  C   UNL     1      10.300  29.947  57.334  1.00  0.00     0.102 C 
HETATM    7  N   UNL     1      11.208  29.594  56.699  1.00  0.00    -0.191 NA
HETATM    8  C   UNL     1       7.841  30.307  57.649  1.00  0.00     0.057 A 
HETATM    9  C   UNL     1       6.826  30.984  58.346  1.00  0.00     0.034 A 
ENDROOT
BRANCH   8  10
HETATM   10  N   UNL     1       7.431  29.584  56.499  1.00  0.00    -0.308 N 
HETATM   11  C   UNL     1       6.747  28.395  56.535  1.00  0.00     0.321 C 
HETATM   12  N   UNL     1       6.739  27.775  55.306  1.00  0.00    -0.336 N 
HETATM   13  O   UNL     1       6.193  27.912  57.513  1.00  0.00    -0.247 OA
HETATM   14  H   UNL     1       7.487  28.078  54.693  1.00  0.00     0.164 HD
HETATM   15  H   UNL     1       7.275  30.127  55.659  1.00  0.00     0.170 HD
BRANCH  12  16
HETATM   16  C   UNL     1       6.293  26.399  55.150  1.00  0.00     0.118 C 
HETATM   17  C   UNL     1       7.368  25.302  55.096  1.00  0.00     0.210 C 
HETATM   18  N   UNL     1       6.574  24.128  54.555  1.00  0.00    -0.065 N 
HETATM   19  C   UNL     1       7.989  24.884  56.419  1.00  0.00     0.035 C 
HETATM   20  H   UNL     1       5.903  23.817  55.272  1.00  0.00     0.280 HD
HETATM   21  C   UNL     1       7.448  22.959  54.222  1.00  0.00     0.235 C 
HETATM   22  C   UNL     1       5.781  24.722  53.421  1.00  0.00     0.237 C 
HETATM   23  C   UNL     1       8.140  22.509  55.508  1.00  0.00     0.028 C 
HETATM   24  C   UNL     1       8.879  23.652  56.214  1.00  0.00     0.004 C 
HETATM   25  C   UNL     1       5.486  26.157  53.863  1.00  0.00     0.055 C 
ENDBRANCH  12  16
ENDBRANCH   8  10
TORSDOF 2
ENDMDL
MODEL 6
REMARK VINA RESULT:      -8.1      4.004      5.973
REMARK  2 active torsions:
REMARK  status: ('A' for Active; 'I' for Inactive)
REMARK    1  A    between atoms: C_8  and  N_9 
REMARK       I    between atoms: N_9  and  C_10 
REMARK       I    between atoms: C_10  and  N_11 
REMARK    2  A    between atoms: N_11  and  C_12 
ROOT
HETATM    1  C   UNL     1       7.872  23.228  55.211  1.00  0.00     0.044 A 
HETATM    2  C   UNL     1       7.972  22.841  53.882  1.00  0.00     0.117 A 
HETATM    3  F   UNL     1       8.856  21.899  53.535  1.00  0.00    -0.206 F 
HETATM    4  C   UNL     1       7.188  23.438  52.903  1.00  0.00     0.067 A 
HETATM    5  C   UNL     1       6.265  24.434  53.254  1.00  0.00     0.074 A 
HETATM    6  C   UNL     1       5.605  25.123  52.179  1.00  0.00     0.102 C 
HETATM    7  N   UNL     1       5.102  25.708  51.309  1.00  0.00    -0.191 NA
HETATM    8  C   UNL     1       6.117  24.803  54.610  1.00  0.00     0.057 A 
HETATM    9  C   UNL     1       6.952  24.213  55.574  1.00  0.00     0.034 A 
ENDROOT
BRANCH   8  10
HETATM   10  N   UNL     1       5.210  25.783  55.089  1.00  0.00    -0.308 N 
HETATM   11  C   UNL     1       5.439  27.136  55.049  1.00  0.00     0.321 C 
HETATM   12  N   UNL     1       4.544  27.827  55.836  1.00  0.00    -0.336 N 
HETATM   13  O   UNL     1       6.311  27.699  54.404  1.00  0.00    -0.247 OA
HETATM   14  H   UNL     1       4.116  27.259  56.557  1.00  0.00     0.164 HD
HETATM   15  H   UNL     1       4.229  25.529  55.086  1.00  0.00     0.170 HD
BRANCH  12  16
HETATM   16  C   UNL     1       4.735  29.235  56.147  1.00  0.00     0.118 C 
HETATM   17  C   UNL     1       5.545  29.584  57.407  1.00  0.00     0.210 C 
HETATM   18  N   UNL     1       5.196  31.048  57.594  1.00  0.00    -0.065 N 
HETATM   19  C   UNL     1       7.057  29.467  57.304  1.00  0.00     0.035 C 
HETATM   20  H   UNL     1       5.624  31.595  56.834  1.00  0.00     0.280 HD
HETATM   21  C   UNL     1       5.716  31.593  58.887  1.00  0.00     0.235 C 
HETATM   22  C   UNL     1       3.703  31.090  57.395  1.00  0.00     0.237 C 
HETATM   23  C   UNL     1       7.239  31.469  58.870  1.00  0.00     0.028 C 
HETATM   24  C   UNL     1       7.713  30.043  58.565  1.00  0.00     0.004 C 
HETATM   25  C   UNL     1       3.418  30.001  56.360  1.00  0.00     0.055 C 
ENDBRANCH  12  16
ENDBRANCH   8  10
TORSDOF 2
ENDMDL
MODEL 7
REMARK VINA RESULT:      -7.9      3.508      7.973
REMARK  2 active torsions:
REMARK  status: ('A' for Active; 'I' for Inactive)
REMARK    1  A    between atoms: C_8  and  N_9 
REMARK       I    between atoms: N_9  and  C_10 
REMARK       I    between atoms: C_10  and  N_11 
REMARK    2  A    between atoms: N_11  and  C_12 
ROOT
HETATM    1  C   UNL     1       4.769  29.785  48.766  1.00  0.00     0.044 A 
HETATM    2  C   UNL     1       4.593  29.168  47.535  1.00  0.00     0.117 A 
HETATM    3  F   UNL     1       4.724  29.886  46.414  1.00  0.00    -0.206 F 
HETATM    4  C   UNL     1       4.256  27.824  47.451  1.00  0.00     0.067 A 
HETATM    5  C   UNL     1       4.106  27.063  48.620  1.00  0.00     0.074 A 
HETATM    6  C   UNL     1       3.599  25.727  48.472  1.00  0.00     0.102 C 
HETATM    7  N   UNL     1       3.149  24.661  48.356  1.00  0.00    -0.191 NA
HETATM    8  C   UNL     1       4.331  27.665  49.879  1.00  0.00     0.057 A 
HETATM    9  C   UNL     1       4.630  29.037  49.937  1.00  0.00     0.034 A 
ENDROOT
BRANCH   8  10
HETATM   10  N   UNL     1       4.225  26.999  51.127  1.00  0.00    -0.308 N 
HETATM   11  C   UNL     1       5.226  26.947  52.065  1.00  0.00     0.321 C 
HETATM   12  N   UNL     1       4.969  26.003  53.033  1.00  0.00    -0.336 N 
HETATM   13  O   UNL     1       6.234  27.640  52.081  1.00  0.00    -0.247 OA
HETATM   14  H   UNL     1       4.315  25.288  52.738  1.00  0.00     0.164 HD
HETATM   15  H   UNL     1       3.293  26.907  51.511  1.00  0.00     0.170 HD
BRANCH  12  16
HETATM   16  C   UNL     1       5.987  25.595  53.988  1.00  0.00     0.118 C 
HETATM   17  C   UNL     1       6.473  24.137  53.935  1.00  0.00     0.210 C 
HETATM   18  N   UNL     1       7.190  24.009  55.266  1.00  0.00    -0.065 N 
HETATM   19  C   UNL     1       7.455  23.780  52.831  1.00  0.00     0.035 C 
HETATM   20  H   UNL     1       8.045  24.582  55.243  1.00  0.00     0.280 HD
HETATM   21  C   UNL     1       7.602  22.599  55.553  1.00  0.00     0.235 C 
HETATM   22  C   UNL     1       6.244  24.649  56.247  1.00  0.00     0.237 C 
HETATM   23  C   UNL     1       8.566  22.159  54.452  1.00  0.00     0.028 C 
HETATM   24  C   UNL     1       7.990  22.359  53.046  1.00  0.00     0.004 C 
HETATM   25  C   UNL     1       5.557  25.763  55.455  1.00  0.00     0.055 C 
ENDBRANCH  12  16
ENDBRANCH   8  10
TORSDOF 2
ENDMDL
MODEL 8
REMARK VINA RESULT:      -7.9      3.327      7.810
REMARK  2 active torsions:
REMARK  status: ('A' for Active; 'I' for Inactive)
REMARK    1  A    between atoms: C_8  and  N_9 
REMARK       I    between atoms: N_9  and  C_10 
REMARK       I    between atoms: C_10  and  N_11 
REMARK    2  A    between atoms: N_11  and  C_12 
ROOT
HETATM    1  C   UNL     1       2.937  26.360  48.249  1.00  0.00     0.044 A 
HETATM    2  C   UNL     1       2.560  27.689  48.382  1.00  0.00     0.117 A 
HETATM    3  F   UNL     1       1.514  28.150  47.686  1.00  0.00    -0.206 F 
HETATM    4  C   UNL     1       3.269  28.555  49.204  1.00  0.00     0.067 A 
HETATM    5  C   UNL     1       4.373  28.086  49.931  1.00  0.00     0.074 A 
HETATM    6  C   UNL     1       5.159  29.063  50.633  1.00  0.00     0.102 C 
HETATM    7  N   UNL     1       5.818  29.859  51.166  1.00  0.00    -0.191 NA
HETATM    8  C   UNL     1       4.739  26.723  49.844  1.00  0.00     0.057 A 
HETATM    9  C   UNL     1       4.031  25.880  48.972  1.00  0.00     0.034 A 
ENDROOT
BRANCH   8  10
HETATM   10  N   UNL     1       5.823  26.129  50.540  1.00  0.00    -0.308 N 
HETATM   11  C   UNL     1       5.686  25.292  51.619  1.00  0.00     0.321 C 
HETATM   12  N   UNL     1       6.883  25.103  52.273  1.00  0.00    -0.336 N 
HETATM   13  O   UNL     1       4.651  24.754  51.985  1.00  0.00    -0.247 OA
HETATM   14  H   UNL     1       7.560  25.836  52.099  1.00  0.00     0.164 HD
HETATM   15  H   UNL     1       6.674  25.985  50.010  1.00  0.00     0.170 HD
BRANCH  12  16
HETATM   16  C   UNL     1       6.945  24.460  53.576  1.00  0.00     0.118 C 
HETATM   17  C   UNL     1       7.649  25.218  54.713  1.00  0.00     0.210 C 
HETATM   18  N   UNL     1       7.847  24.114  55.735  1.00  0.00    -0.065 N 
HETATM   19  C   UNL     1       6.869  26.342  55.375  1.00  0.00     0.035 C 
HETATM   20  H   UNL     1       6.930  23.841  56.116  1.00  0.00     0.280 HD
HETATM   21  C   UNL     1       8.699  24.552  56.885  1.00  0.00     0.235 C 
HETATM   22  C   UNL     1       8.359  22.956  54.918  1.00  0.00     0.237 C 
HETATM   23  C   UNL     1       7.989  25.715  57.577  1.00  0.00     0.028 C 
HETATM   24  C   UNL     1       7.626  26.848  56.609  1.00  0.00     0.004 C 
HETATM   25  C   UNL     1       7.674  23.106  53.559  1.00  0.00     0.055 C 
ENDBRANCH  12  16
ENDBRANCH   8  10
TORSDOF 2
ENDMDL
MODEL 9
REMARK VINA RESULT:      -7.9      2.531      3.673
REMARK  2 active torsions:
REMARK  status: ('A' for Active; 'I' for Inactive)
REMARK    1  A    between atoms: C_8  and  N_9 
REMARK       I    between atoms: N_9  and  C_10 
REMARK       I    between atoms: C_10  and  N_11 
REMARK    2  A    between atoms: N_11  and  C_12 
ROOT
HETATM    1  C   UNL     1       6.987  26.309  56.306  1.00  0.00     0.044 A 
HETATM    2  C   UNL     1       7.865  25.280  56.619  1.00  0.00     0.117 A 
HETATM    3  F   UNL     1       8.638  25.382  57.706  1.00  0.00    -0.206 F 
HETATM    4  C   UNL     1       7.972  24.161  55.804  1.00  0.00     0.067 A 
HETATM    5  C   UNL     1       7.174  24.049  54.656  1.00  0.00     0.074 A 
HETATM    6  C   UNL     1       7.448  22.949  53.773  1.00  0.00     0.102 C 
HETATM    7  N   UNL     1       7.698  22.083  53.037  1.00  0.00    -0.191 NA
HETATM    8  C   UNL     1       6.240  25.065  54.352  1.00  0.00     0.057 A 
HETATM    9  C   UNL     1       6.183  26.206  55.169  1.00  0.00     0.034 A 
ENDROOT
BRANCH   8  10
HETATM   10  N   UNL     1       5.371  25.058  53.232  1.00  0.00    -0.308 N 
HETATM   11  C   UNL     1       5.726  25.473  51.972  1.00  0.00     0.321 C 
HETATM   12  N   UNL     1       4.626  25.637  51.161  1.00  0.00    -0.336 N 
HETATM   13  O   UNL     1       6.865  25.676  51.576  1.00  0.00    -0.247 OA
HETATM   14  H   UNL     1       3.762  25.772  51.672  1.00  0.00     0.164 HD
HETATM   15  H   UNL     1       4.623  24.376  53.247  1.00  0.00     0.170 HD
BRANCH  12  16
HETATM   16  C   UNL     1       4.725  26.300  49.870  1.00  0.00     0.118 C 
HETATM   17  C   UNL     1       4.421  27.806  49.815  1.00  0.00     0.210 C 
HETATM   18  N   UNL     1       4.248  28.025  48.323  1.00  0.00    -0.065 N 
HETATM   19  C   UNL     1       5.509  28.745  50.309  1.00  0.00     0.035 C 
HETATM   20  H   UNL     1       5.161  27.914  47.860  1.00  0.00     0.280 HD
HETATM   21  C   UNL     1       3.748  29.400  48.007  1.00  0.00     0.235 C 
HETATM   22  C   UNL     1       3.379  26.874  47.890  1.00  0.00     0.237 C 
HETATM   23  C   UNL     1       4.783  30.403  48.516  1.00  0.00     0.028 C 
HETATM   24  C   UNL     1       5.130  30.196  49.995  1.00  0.00     0.004 C 
HETATM   25  C   UNL     1       3.779  25.717  48.806  1.00  0.00     0.055 C 
ENDBRANCH  12  16
ENDBRANCH   8  10
TORSDOF 2
ENDMDL
MODEL 10
REMARK VINA RESULT:      -7.8      4.716      7.996
REMARK  2 active torsions:
REMARK  status: ('A' for Active; 'I' for Inactive)
REMARK    1  A    between atoms: C_8  and  N_9 
REMARK       I    between atoms: N_9  and  C_10 
REMARK       I    between atoms: C_10  and  N_11 
REMARK    2  A    between atoms: N_11  and  C_12 
ROOT
HETATM    1  C   UNL     1       8.367  30.066  58.915  1.00  0.00     0.044 A 
HETATM    2  C   UNL     1       7.361  31.013  59.039  1.00  0.00     0.117 A 
HETATM    3  F   UNL     1       7.288  31.756  60.149  1.00  0.00    -0.206 F 
HETATM    4  C   UNL     1       6.411  31.182  58.040  1.00  0.00     0.067 A 
HETATM    5  C   UNL     1       6.471  30.402  56.875  1.00  0.00     0.074 A 
HETATM    6  C   UNL     1       5.371  30.510  55.957  1.00  0.00     0.102 C 
HETATM    7  N   UNL     1       4.461  30.566  55.235  1.00  0.00    -0.191 NA
HETATM    8  C   UNL     1       7.520  29.468  56.713  1.00  0.00     0.057 A 
HETATM    9  C   UNL     1       8.442  29.288  57.758  1.00  0.00     0.034 A 
ENDROOT
BRANCH   8  10
HETATM   10  N   UNL     1       7.695  28.635  55.578  1.00  0.00    -0.308 N 
HETATM   11  C   UNL     1       7.038  27.446  55.381  1.00  0.00     0.321 C 
HETATM   12  N   UNL     1       7.607  26.713  54.363  1.00  0.00    -0.336 N 
HETATM   13  O   UNL     1       6.063  27.051  56.003  1.00  0.00    -0.247 OA
HETATM   14  H   UNL     1       8.568  26.967  54.168  1.00  0.00     0.164 HD
HETATM   15  H   UNL     1       7.986  29.094  54.724  1.00  0.00     0.170 HD
BRANCH  12  16
HETATM   16  C   UNL     1       7.244  25.324  54.132  1.00  0.00     0.118 C 
HETATM   17  C   UNL     1       8.024  24.245  54.901  1.00  0.00     0.210 C 
HETATM   18  N   UNL     1       7.649  22.993  54.130  1.00  0.00    -0.065 N 
HETATM   19  C   UNL     1       7.649  24.034  56.359  1.00  0.00     0.035 C 
HETATM   20  H   UNL     1       6.655  22.782  54.297  1.00  0.00     0.280 HD
HETATM   21  C   UNL     1       8.440  21.801  54.567  1.00  0.00     0.235 C 
HETATM   22  C   UNL     1       7.787  23.405  52.688  1.00  0.00     0.237 C 
HETATM   23  C   UNL     1       8.140  21.554  56.044  1.00  0.00     0.028 C 
HETATM   24  C   UNL     1       8.368  22.798  56.911  1.00  0.00     0.004 C 
HETATM   25  C   UNL     1       7.399  24.884  52.666  1.00  0.00     0.055 C 
ENDBRANCH  12  16
ENDBRANCH   8  10
TORSDOF 2
ENDMDL
