MODEL 1
REMARK VINA RESULT:     -10.9      0.000      0.000
REMARK  5 active torsions:
REMARK  status: ('A' for Active; 'I' for Inactive)
REMARK    1  A    between atoms: C_5  and  C_6 
REMARK    2  A    between atoms: C_10  and  C_11 
REMARK       I    between atoms: C_11  and  N_12 
REMARK    3  A    between atoms: N_12  and  N_13 
REMARK       I    between atoms: N_13  and  C_14 
REMARK       I    between atoms: C_14  and  N_15 
REMARK    4  A    between atoms: N_15  and  C_16 
REMARK    5  A    between atoms: C_16  and  C_17 
ROOT
HETATM    1  C   UNL     1       9.258  29.460  57.491  1.00  0.00     0.288 C 
HETATM    2  N   UNL     1       8.109  28.758  57.203  1.00  0.00    -0.261 N 
HETATM    3  O   UNL     1      10.322  29.255  56.912  1.00  0.00    -0.264 OA
HETATM    4  H   UNL     1       7.208  28.974  57.624  1.00  0.00     0.190 HD
ENDROOT
BRANCH   2   5
HETATM    5  N   UNL     1       8.050  27.943  56.062  1.00  0.00    -0.249 N 
HETATM    6  C   UNL     1       7.230  26.840  56.157  1.00  0.00     0.334 C 
HETATM    7  N   UNL     1       7.252  26.064  55.025  1.00  0.00    -0.341 N 
HETATM    8  O   UNL     1       6.533  26.617  57.143  1.00  0.00    -0.246 OA
HETATM    9  H   UNL     1       7.451  26.583  54.182  1.00  0.00     0.164 HD
HETATM   10  H   UNL     1       8.904  27.887  55.514  1.00  0.00     0.192 HD
BRANCH   7  11
HETATM   11  C   UNL     1       6.302  24.973  54.926  1.00  0.00     0.129 C 
BRANCH  11  12
HETATM   12  C   UNL     1       6.927  23.595  54.673  1.00  0.00     0.004 C 
HETATM   13  C   UNL     1       8.079  23.286  55.642  1.00  0.00     0.010 C 
HETATM   14  C   UNL     1       8.688  21.891  55.418  1.00  0.00    -0.018 C 
HETATM   15  C   UNL     1       9.078  21.693  53.945  1.00  0.00     0.004 C 
HETATM   16  C   UNL     1       7.757  20.777  55.909  1.00  0.00     0.010 C 
HETATM   17  C   UNL     1       7.945  22.020  52.974  1.00  0.00     0.001 C 
HETATM   18  C   UNL     1       7.379  23.417  53.216  1.00  0.00     0.006 C 
ENDBRANCH  11  12
ENDBRANCH   7  11
ENDBRANCH   2   5
BRANCH   1  19
HETATM   19  C   UNL     1       9.108  30.459  58.517  1.00  0.00     0.121 A 
HETATM   20  N   UNL     1       9.795  31.641  58.492  1.00  0.00    -0.272 N 
HETATM   21  N   UNL     1       9.493  32.474  59.501  1.00  0.00    -0.174 NA
HETATM   22  H   UNL     1      10.471  31.939  57.797  1.00  0.00     0.189 HD
HETATM   23  C   UNL     1       8.586  31.807  60.233  1.00  0.00     0.089 A 
HETATM   24  C   UNL     1       8.326  30.535  59.651  1.00  0.00     0.071 A 
BRANCH  23  25
HETATM   25  C   UNL     1       7.971  32.385  61.433  1.00  0.00    -0.006 A 
HETATM   26  C   UNL     1       8.508  32.131  62.702  1.00  0.00     0.014 A 
HETATM   27  C   UNL     1       7.952  32.713  63.846  1.00  0.00     0.007 A 
HETATM   28  C   UNL     1       6.837  33.551  63.745  1.00  0.00    -0.062 A 
HETATM   29  C   UNL     1       6.248  34.205  64.959  1.00  0.00     0.048 C 
HETATM   30  C   UNL     1       6.291  33.802  62.482  1.00  0.00     0.007 A 
HETATM   31  C   UNL     1       6.851  33.222  61.339  1.00  0.00     0.014 A 
ENDBRANCH  23  25
ENDBRANCH   1  19
TORSDOF 5
ENDMDL
MODEL 2
REMARK VINA RESULT:     -10.3      1.444     10.817
REMARK  5 active torsions:
REMARK  status: ('A' for Active; 'I' for Inactive)
REMARK    1  A    between atoms: C_5  and  C_6 
REMARK    2  A    between atoms: C_10  and  C_11 
REMARK       I    between atoms: C_11  and  N_12 
REMARK    3  A    between atoms: N_12  and  N_13 
REMARK       I    between atoms: N_13  and  C_14 
REMARK       I    between atoms: C_14  and  N_15 
REMARK    4  A    between atoms: N_15  and  C_16 
REMARK    5  A    between atoms: C_16  and  C_17 
ROOT
HETATM    1  C   UNL     1       6.320  28.315  57.226  1.00  0.00     0.288 C 
HETATM    2  N   UNL     1       7.586  28.851  57.309  1.00  0.00    -0.261 N 
HETATM    3  O   UNL     1       5.317  28.929  57.583  1.00  0.00    -0.264 OA
HETATM    4  H   UNL     1       8.411  28.380  56.945  1.00  0.00     0.190 HD
ENDROOT
BRANCH   2   5
HETATM    5  N   UNL     1       7.755  30.218  57.581  1.00  0.00    -0.249 N 
HETATM    6  C   UNL     1       8.218  30.523  58.842  1.00  0.00     0.334 C 
HETATM    7  N   UNL     1       8.318  31.875  59.057  1.00  0.00    -0.341 N 
HETATM    8  O   UNL     1       8.537  29.661  59.657  1.00  0.00    -0.246 OA
HETATM    9  H   UNL     1       8.495  32.406  58.217  1.00  0.00     0.164 HD
HETATM   10  H   UNL     1       7.099  30.844  57.122  1.00  0.00     0.192 HD
BRANCH   7  11
HETATM   11  C   UNL     1       8.958  32.327  60.277  1.00  0.00     0.129 C 
BRANCH  11  12
HETATM   12  C   UNL     1       7.994  32.758  61.390  1.00  0.00     0.004 C 
HETATM   13  C   UNL     1       8.126  31.888  62.650  1.00  0.00     0.010 C 
HETATM   14  C   UNL     1       7.187  32.336  63.784  1.00  0.00    -0.018 C 
HETATM   15  C   UNL     1       5.739  32.447  63.284  1.00  0.00     0.004 C 
HETATM   16  C   UNL     1       7.661  33.640  64.435  1.00  0.00     0.010 C 
HETATM   17  C   UNL     1       5.602  33.292  62.020  1.00  0.00     0.001 C 
HETATM   18  C   UNL     1       6.535  32.807  60.913  1.00  0.00     0.006 C 
ENDBRANCH  11  12
ENDBRANCH   7  11
ENDBRANCH   2   5
BRANCH   1  19
HETATM   19  C   UNL     1       6.267  26.985  56.678  1.00  0.00     0.121 A 
HETATM   20  N   UNL     1       5.125  26.236  56.687  1.00  0.00    -0.272 N 
HETATM   21  N   UNL     1       5.246  25.040  56.088  1.00  0.00    -0.174 NA
HETATM   22  H   UNL     1       4.224  26.500  57.075  1.00  0.00     0.189 HD
HETATM   23  C   UNL     1       6.526  24.989  55.686  1.00  0.00     0.089 A 
HETATM   24  C   UNL     1       7.201  26.188  56.047  1.00  0.00     0.071 A 
BRANCH  23  25
HETATM   25  C   UNL     1       7.072  23.840  54.956  1.00  0.00    -0.006 A 
HETATM   26  C   UNL     1       7.431  22.668  55.636  1.00  0.00     0.014 A 
HETATM   27  C   UNL     1       7.912  21.554  54.941  1.00  0.00     0.007 A 
HETATM   28  C   UNL     1       8.058  21.594  53.551  1.00  0.00    -0.062 A 
HETATM   29  C   UNL     1       8.545  20.397  52.789  1.00  0.00     0.048 C 
HETATM   30  C   UNL     1       7.709  22.763  52.867  1.00  0.00     0.007 A 
HETATM   31  C   UNL     1       7.224  23.875  53.563  1.00  0.00     0.014 A 
ENDBRANCH  23  25
ENDBRANCH   1  19
TORSDOF 5
ENDMDL
MODEL 3
REMARK VINA RESULT:     -10.3      1.626     11.248
REMARK  5 active torsions:
REMARK  status: ('A' for Active; 'I' for Inactive)
REMARK    1  A    between atoms: C_5  and  C_6 
REMARK    2  A    between atoms: C_10  and  C_11 
REMARK       I    between atoms: C_11  and  N_12 
REMARK    3  A    between atoms: N_12  and  N_13 
REMARK       I    between atoms: N_13  and  C_14 
REMARK       I    between atoms: C_14  and  N_15 
REMARK    4  A    between atoms: N_15  and  C_16 
REMARK    5  A    between atoms: C_16  and  C_17 
ROOT
HETATM    1  C   UNL     1       6.156  28.529  57.140  1.00  0.00     0.288 C 
HETATM    2  N   UNL     1       7.141  29.351  57.641  1.00  0.00    -0.261 N 
HETATM    3  O   UNL     1       4.980  28.620  57.484  1.00  0.00    -0.264 OA
HETATM    4  H   UNL     1       8.101  29.332  57.305  1.00  0.00     0.190 HD
ENDROOT
BRANCH   2   5
HETATM    5  N   UNL     1       6.795  30.490  58.387  1.00  0.00    -0.249 N 
HETATM    6  C   UNL     1       7.540  30.706  59.526  1.00  0.00     0.334 C 
HETATM    7  N   UNL     1       7.123  31.808  60.230  1.00  0.00    -0.341 N 
HETATM    8  O   UNL     1       8.495  29.999  59.837  1.00  0.00    -0.246 OA
HETATM    9  H   UNL     1       6.702  32.522  59.652  1.00  0.00     0.164 HD
HETATM   10  H   UNL     1       5.812  30.744  58.374  1.00  0.00     0.192 HD
BRANCH   7  11
HETATM   11  C   UNL     1       7.930  32.249  61.350  1.00  0.00     0.129 C 
BRANCH  11  12
HETATM   12  C   UNL     1       7.134  32.771  62.554  1.00  0.00     0.004 C 
HETATM   13  C   UNL     1       6.437  34.109  62.261  1.00  0.00     0.010 C 
HETATM   14  C   UNL     1       5.608  34.622  63.451  1.00  0.00    -0.018 C 
HETATM   15  C   UNL     1       6.453  34.657  64.733  1.00  0.00     0.004 C 
HETATM   16  C   UNL     1       4.324  33.807  63.644  1.00  0.00     0.010 C 
HETATM   17  C   UNL     1       7.167  33.337  65.019  1.00  0.00     0.001 C 
HETATM   18  C   UNL     1       7.992  32.871  63.822  1.00  0.00     0.006 C 
ENDBRANCH  11  12
ENDBRANCH   7  11
ENDBRANCH   2   5
BRANCH   1  19
HETATM   19  C   UNL     1       6.615  27.564  56.176  1.00  0.00     0.121 A 
HETATM   20  N   UNL     1       7.226  27.930  55.010  1.00  0.00    -0.272 N 
HETATM   21  N   UNL     1       7.633  26.897  54.254  1.00  0.00    -0.174 NA
HETATM   22  H   UNL     1       7.409  28.874  54.686  1.00  0.00     0.189 HD
HETATM   23  C   UNL     1       7.256  25.805  54.938  1.00  0.00     0.089 A 
HETATM   24  C   UNL     1       6.606  26.184  56.146  1.00  0.00     0.071 A 
BRANCH  23  25
HETATM   25  C   UNL     1       7.537  24.447  54.462  1.00  0.00    -0.006 A 
HETATM   26  C   UNL     1       7.508  23.360  55.348  1.00  0.00     0.014 A 
HETATM   27  C   UNL     1       7.732  22.057  54.892  1.00  0.00     0.007 A 
HETATM   28  C   UNL     1       8.004  21.815  53.542  1.00  0.00    -0.062 A 
HETATM   29  C   UNL     1       8.218  20.420  53.034  1.00  0.00     0.048 C 
HETATM   30  C   UNL     1       8.042  22.895  52.655  1.00  0.00     0.007 A 
HETATM   31  C   UNL     1       7.814  24.197  53.111  1.00  0.00     0.014 A 
ENDBRANCH  23  25
ENDBRANCH   1  19
TORSDOF 5
ENDMDL
MODEL 4
REMARK VINA RESULT:     -10.1      1.947      3.317
REMARK  5 active torsions:
REMARK  status: ('A' for Active; 'I' for Inactive)
REMARK    1  A    between atoms: C_5  and  C_6 
REMARK    2  A    between atoms: C_10  and  C_11 
REMARK       I    between atoms: C_11  and  N_12 
REMARK    3  A    between atoms: N_12  and  N_13 
REMARK       I    between atoms: N_13  and  C_14 
REMARK       I    between atoms: C_14  and  N_15 
REMARK    4  A    between atoms: N_15  and  C_16 
REMARK    5  A    between atoms: C_16  and  C_17 
ROOT
HETATM    1  C   UNL     1       8.048  31.389  59.587  1.00  0.00     0.288 C 
HETATM    2  N   UNL     1       7.840  30.063  59.277  1.00  0.00    -0.261 N 
HETATM    3  O   UNL     1       8.831  32.100  58.961  1.00  0.00    -0.264 OA
HETATM    4  H   UNL     1       7.138  29.491  59.740  1.00  0.00     0.190 HD
ENDROOT
BRANCH   2   5
HETATM    5  N   UNL     1       8.339  29.534  58.076  1.00  0.00    -0.249 N 
HETATM    6  C   UNL     1       7.466  28.740  57.365  1.00  0.00     0.334 C 
HETATM    7  N   UNL     1       8.030  28.221  56.226  1.00  0.00    -0.341 N 
HETATM    8  O   UNL     1       6.301  28.563  57.710  1.00  0.00    -0.246 OA
HETATM    9  H   UNL     1       8.757  28.802  55.833  1.00  0.00     0.164 HD
HETATM   10  H   UNL     1       9.333  29.322  58.066  1.00  0.00     0.192 HD
BRANCH   7  11
HETATM   11  C   UNL     1       7.169  27.515  55.298  1.00  0.00     0.129 C 
BRANCH  11  12
HETATM   12  C   UNL     1       7.553  26.050  55.048  1.00  0.00     0.004 C 
HETATM   13  C   UNL     1       6.461  25.278  54.291  1.00  0.00     0.010 C 
HETATM   14  C   UNL     1       6.853  23.818  54.006  1.00  0.00    -0.018 C 
HETATM   15  C   UNL     1       7.302  23.110  55.293  1.00  0.00     0.004 C 
HETATM   16  C   UNL     1       7.916  23.718  52.907  1.00  0.00     0.010 C 
HETATM   17  C   UNL     1       8.372  23.882  56.062  1.00  0.00     0.001 C 
HETATM   18  C   UNL     1       7.939  25.319  56.342  1.00  0.00     0.006 C 
ENDBRANCH  11  12
ENDBRANCH   7  11
ENDBRANCH   2   5
BRANCH   1  19
HETATM   19  C   UNL     1       7.265  31.876  60.692  1.00  0.00     0.121 A 
HETATM   20  N   UNL     1       5.900  31.822  60.702  1.00  0.00    -0.272 N 
HETATM   21  N   UNL     1       5.339  32.274  61.835  1.00  0.00    -0.174 NA
HETATM   22  H   UNL     1       5.298  31.469  59.965  1.00  0.00     0.189 HD
HETATM   23  C   UNL     1       6.374  32.661  62.597  1.00  0.00     0.089 A 
HETATM   24  C   UNL     1       7.600  32.434  61.909  1.00  0.00     0.071 A 
BRANCH  23  25
HETATM   25  C   UNL     1       6.194  33.202  63.948  1.00  0.00    -0.006 A 
HETATM   26  C   UNL     1       4.908  33.398  64.472  1.00  0.00     0.014 A 
HETATM   27  C   UNL     1       4.730  33.873  65.775  1.00  0.00     0.007 A 
HETATM   28  C   UNL     1       5.834  34.175  66.577  1.00  0.00    -0.062 A 
HETATM   29  C   UNL     1       5.658  34.657  67.987  1.00  0.00     0.048 C 
HETATM   30  C   UNL     1       7.119  33.989  66.058  1.00  0.00     0.007 A 
HETATM   31  C   UNL     1       7.297  33.510  64.756  1.00  0.00     0.014 A 
ENDBRANCH  23  25
ENDBRANCH   1  19
TORSDOF 5
ENDMDL
MODEL 5
REMARK VINA RESULT:     -10.0      1.282      1.827
REMARK  5 active torsions:
REMARK  status: ('A' for Active; 'I' for Inactive)
REMARK    1  A    between atoms: C_5  and  C_6 
REMARK    2  A    between atoms: C_10  and  C_11 
REMARK       I    between atoms: C_11  and  N_12 
REMARK    3  A    between atoms: N_12  and  N_13 
REMARK       I    between atoms: N_13  and  C_14 
REMARK       I    between atoms: C_14  and  N_15 
REMARK    4  A    between atoms: N_15  and  C_16 
REMARK    5  A    between atoms: C_16  and  C_17 
ROOT
HETATM    1  C   UNL     1       8.524  29.696  58.345  1.00  0.00     0.288 C 
HETATM    2  N   UNL     1       7.700  28.607  58.167  1.00  0.00    -0.261 N 
HETATM    3  O   UNL     1       9.609  29.805  57.777  1.00  0.00    -0.264 OA
HETATM    4  H   UNL     1       6.769  28.546  58.572  1.00  0.00     0.190 HD
ENDROOT
BRANCH   2   5
HETATM    5  N   UNL     1       7.961  27.688  57.138  1.00  0.00    -0.249 N 
HETATM    6  C   UNL     1       7.988  26.363  57.515  1.00  0.00     0.334 C 
HETATM    7  N   UNL     1       8.291  25.522  56.473  1.00  0.00    -0.341 N 
HETATM    8  O   UNL     1       7.726  25.993  58.656  1.00  0.00    -0.246 OA
HETATM    9  H   UNL     1       8.006  25.876  55.571  1.00  0.00     0.164 HD
HETATM   10  H   UNL     1       8.581  28.013  56.402  1.00  0.00     0.192 HD
BRANCH   7  11
HETATM   11  C   UNL     1       8.178  24.093  56.692  1.00  0.00     0.129 C 
BRANCH  11  12
HETATM   12  C   UNL     1       7.911  23.266  55.427  1.00  0.00     0.004 C 
HETATM   13  C   UNL     1       9.144  22.465  54.980  1.00  0.00     0.010 C 
HETATM   14  C   UNL     1       8.875  21.605  53.732  1.00  0.00    -0.018 C 
HETATM   15  C   UNL     1       8.271  22.453  52.603  1.00  0.00     0.004 C 
HETATM   16  C   UNL     1       7.999  20.390  54.057  1.00  0.00     0.010 C 
HETATM   17  C   UNL     1       7.058  23.268  53.046  1.00  0.00     0.001 C 
HETATM   18  C   UNL     1       7.369  24.121  54.273  1.00  0.00     0.006 C 
ENDBRANCH  11  12
ENDBRANCH   7  11
ENDBRANCH   2   5
BRANCH   1  19
HETATM   19  C   UNL     1       8.007  30.699  59.238  1.00  0.00     0.121 A 
HETATM   20  N   UNL     1       7.291  31.775  58.794  1.00  0.00    -0.272 N 
HETATM   21  N   UNL     1       6.845  32.580  59.771  1.00  0.00    -0.174 NA
HETATM   22  H   UNL     1       7.061  31.999  57.831  1.00  0.00     0.189 HD
HETATM   23  C   UNL     1       7.302  32.026  60.905  1.00  0.00     0.089 A 
HETATM   24  C   UNL     1       8.044  30.849  60.610  1.00  0.00     0.071 A 
BRANCH  23  25
HETATM   25  C   UNL     1       7.012  32.593  62.226  1.00  0.00    -0.006 A 
HETATM   26  C   UNL     1       5.709  32.985  62.564  1.00  0.00     0.014 A 
HETATM   27  C   UNL     1       5.418  33.486  63.837  1.00  0.00     0.007 A 
HETATM   28  C   UNL     1       6.428  33.618  64.795  1.00  0.00    -0.062 A 
HETATM   29  C   UNL     1       6.125  34.126  66.173  1.00  0.00     0.048 C 
HETATM   30  C   UNL     1       7.731  33.236  64.462  1.00  0.00     0.007 A 
HETATM   31  C   UNL     1       8.020  32.731  63.190  1.00  0.00     0.014 A 
ENDBRANCH  23  25
ENDBRANCH   1  19
TORSDOF 5
ENDMDL
MODEL 6
REMARK VINA RESULT:     -10.0      2.310     10.793
REMARK  5 active torsions:
REMARK  status: ('A' for Active; 'I' for Inactive)
REMARK    1  A    between atoms: C_5  and  C_6 
REMARK    2  A    between atoms: C_10  and  C_11 
REMARK       I    between atoms: C_11  and  N_12 
REMARK    3  A    between atoms: N_12  and  N_13 
REMARK       I    between atoms: N_13  and  C_14 
REMARK       I    between atoms: C_14  and  N_15 
REMARK    4  A    between atoms: N_15  and  C_16 
REMARK    5  A    between atoms: C_16  and  C_17 
ROOT
HETATM    1  C   UNL     1       4.573  28.515  55.600  1.00  0.00     0.288 C 
HETATM    2  N   UNL     1       4.559  28.492  56.977  1.00  0.00    -0.261 N 
HETATM    3  O   UNL     1       4.250  29.507  54.951  1.00  0.00    -0.264 OA
HETATM    4  H   UNL     1       4.897  27.701  57.521  1.00  0.00     0.190 HD
ENDROOT
BRANCH   2   5
HETATM    5  N   UNL     1       4.406  29.686  57.699  1.00  0.00    -0.249 N 
HETATM    6  C   UNL     1       5.562  30.217  58.226  1.00  0.00     0.334 C 
HETATM    7  N   UNL     1       5.337  31.358  58.956  1.00  0.00    -0.341 N 
HETATM    8  O   UNL     1       6.670  29.729  58.019  1.00  0.00    -0.246 OA
HETATM    9  H   UNL     1       4.530  31.882  58.648  1.00  0.00     0.164 HD
HETATM   10  H   UNL     1       3.531  29.787  58.206  1.00  0.00     0.192 HD
BRANCH   7  11
HETATM   11  C   UNL     1       6.485  32.114  59.415  1.00  0.00     0.129 C 
BRANCH  11  12
HETATM   12  C   UNL     1       6.720  32.073  60.931  1.00  0.00     0.004 C 
HETATM   13  C   UNL     1       6.571  33.456  61.585  1.00  0.00     0.010 C 
HETATM   14  C   UNL     1       6.771  33.418  63.110  1.00  0.00    -0.018 C 
HETATM   15  C   UNL     1       8.093  32.726  63.473  1.00  0.00     0.004 C 
HETATM   16  C   UNL     1       5.580  32.769  63.824  1.00  0.00     0.010 C 
HETATM   17  C   UNL     1       8.259  31.361  62.809  1.00  0.00     0.001 C 
HETATM   18  C   UNL     1       8.071  31.442  61.296  1.00  0.00     0.006 C 
ENDBRANCH  11  12
ENDBRANCH   7  11
ENDBRANCH   2   5
BRANCH   1  19
HETATM   19  C   UNL     1       5.007  27.288  54.985  1.00  0.00     0.121 A 
HETATM   20  N   UNL     1       4.638  26.936  53.717  1.00  0.00    -0.272 N 
HETATM   21  N   UNL     1       5.176  25.783  53.288  1.00  0.00    -0.174 NA
HETATM   22  H   UNL     1       4.033  27.456  53.090  1.00  0.00     0.189 HD
HETATM   23  C   UNL     1       5.913  25.345  54.321  1.00  0.00     0.089 A 
HETATM   24  C   UNL     1       5.824  26.259  55.408  1.00  0.00     0.071 A 
BRANCH  23  25
HETATM   25  C   UNL     1       6.698  24.107  54.255  1.00  0.00    -0.006 A 
HETATM   26  C   UNL     1       7.017  23.403  55.424  1.00  0.00     0.014 A 
HETATM   27  C   UNL     1       7.728  22.200  55.364  1.00  0.00     0.007 A 
HETATM   28  C   UNL     1       8.146  21.683  54.134  1.00  0.00    -0.062 A 
HETATM   29  C   UNL     1       8.883  20.379  54.053  1.00  0.00     0.048 C 
HETATM   30  C   UNL     1       7.836  22.385  52.965  1.00  0.00     0.007 A 
HETATM   31  C   UNL     1       7.122  23.586  53.025  1.00  0.00     0.014 A 
ENDBRANCH  23  25
ENDBRANCH   1  19
TORSDOF 5
ENDMDL
MODEL 7
REMARK VINA RESULT:      -9.8      1.964      3.031
REMARK  5 active torsions:
REMARK  status: ('A' for Active; 'I' for Inactive)
REMARK    1  A    between atoms: C_5  and  C_6 
REMARK    2  A    between atoms: C_10  and  C_11 
REMARK       I    between atoms: C_11  and  N_12 
REMARK    3  A    between atoms: N_12  and  N_13 
REMARK       I    between atoms: N_13  and  C_14 
REMARK       I    between atoms: C_14  and  N_15 
REMARK    4  A    between atoms: N_15  and  C_16 
REMARK    5  A    between atoms: C_16  and  C_17 
ROOT
HETATM    1  C   UNL     1       8.647  30.968  59.063  1.00  0.00     0.288 C 
HETATM    2  N   UNL     1       8.092  29.849  58.483  1.00  0.00    -0.261 N 
HETATM    3  O   UNL     1       9.398  31.725  58.452  1.00  0.00    -0.264 OA
HETATM    4  H   UNL     1       7.410  29.261  58.958  1.00  0.00     0.190 HD
ENDROOT
BRANCH   2   5
HETATM    5  N   UNL     1       8.171  29.662  57.094  1.00  0.00    -0.249 N 
HETATM    6  C   UNL     1       7.082  29.052  56.511  1.00  0.00     0.334 C 
HETATM    7  N   UNL     1       7.243  28.861  55.161  1.00  0.00    -0.341 N 
HETATM    8  O   UNL     1       6.071  28.757  57.142  1.00  0.00    -0.246 OA
HETATM    9  H   UNL     1       7.844  29.545  54.724  1.00  0.00     0.164 HD
HETATM   10  H   UNL     1       9.102  29.489  56.724  1.00  0.00     0.192 HD
BRANCH   7  11
HETATM   11  C   UNL     1       6.104  28.392  54.397  1.00  0.00     0.129 C 
BRANCH  11  12
HETATM   12  C   UNL     1       6.023  26.869  54.226  1.00  0.00     0.004 C 
HETATM   13  C   UNL     1       7.393  26.239  53.927  1.00  0.00     0.010 C 
HETATM   14  C   UNL     1       7.326  24.708  53.789  1.00  0.00    -0.018 C 
HETATM   15  C   UNL     1       6.246  24.295  52.779  1.00  0.00     0.004 C 
HETATM   16  C   UNL     1       7.124  24.023  55.144  1.00  0.00     0.010 C 
HETATM   17  C   UNL     1       4.887  24.934  53.057  1.00  0.00     0.001 C 
HETATM   18  C   UNL     1       4.990  26.454  53.169  1.00  0.00     0.006 C 
ENDBRANCH  11  12
ENDBRANCH   7  11
ENDBRANCH   2   5
BRANCH   1  19
HETATM   19  C   UNL     1       8.268  31.183  60.434  1.00  0.00     0.121 A 
HETATM   20  N   UNL     1       8.721  30.392  61.451  1.00  0.00    -0.272 N 
HETATM   21  N   UNL     1       8.306  30.770  62.671  1.00  0.00    -0.174 NA
HETATM   22  H   UNL     1       9.334  29.587  61.372  1.00  0.00     0.189 HD
HETATM   23  C   UNL     1       7.529  31.843  62.449  1.00  0.00     0.089 A 
HETATM   24  C   UNL     1       7.474  32.127  61.055  1.00  0.00     0.071 A 
BRANCH  23  25
HETATM   25  C   UNL     1       6.887  32.584  63.539  1.00  0.00    -0.006 A 
HETATM   26  C   UNL     1       5.490  32.677  63.612  1.00  0.00     0.014 A 
HETATM   27  C   UNL     1       4.870  33.346  64.672  1.00  0.00     0.007 A 
HETATM   28  C   UNL     1       5.636  33.949  65.675  1.00  0.00    -0.062 A 
HETATM   29  C   UNL     1       4.985  34.644  66.833  1.00  0.00     0.048 C 
HETATM   30  C   UNL     1       7.030  33.866  65.604  1.00  0.00     0.007 A 
HETATM   31  C   UNL     1       7.649  33.193  64.545  1.00  0.00     0.014 A 
ENDBRANCH  23  25
ENDBRANCH   1  19
TORSDOF 5
ENDMDL
MODEL 8
REMARK VINA RESULT:      -9.1      2.849      3.336
REMARK  5 active torsions:
REMARK  status: ('A' for Active; 'I' for Inactive)
REMARK    1  A    between atoms: C_5  and  C_6 
REMARK    2  A    between atoms: C_10  and  C_11 
REMARK       I    between atoms: C_11  and  N_12 
REMARK    3  A    between atoms: N_12  and  N_13 
REMARK       I    between atoms: N_13  and  C_14 
REMARK       I    between atoms: C_14  and  N_15 
REMARK    4  A    between atoms: N_15  and  C_16 
REMARK    5  A    between atoms: C_16  and  C_17 
ROOT
HETATM    1  C   UNL     1       5.011  28.919  55.995  1.00  0.00     0.288 C 
HETATM    2  N   UNL     1       5.132  27.628  56.457  1.00  0.00    -0.261 N 
HETATM    3  O   UNL     1       5.181  29.219  54.815  1.00  0.00    -0.264 OA
HETATM    4  H   UNL     1       4.918  27.361  57.415  1.00  0.00     0.190 HD
ENDROOT
BRANCH   2   5
HETATM    5  N   UNL     1       5.218  26.561  55.549  1.00  0.00    -0.249 N 
HETATM    6  C   UNL     1       6.493  26.142  55.239  1.00  0.00     0.334 C 
HETATM    7  N   UNL     1       6.508  25.128  54.314  1.00  0.00    -0.341 N 
HETATM    8  O   UNL     1       7.493  26.613  55.774  1.00  0.00    -0.246 OA
HETATM    9  H   UNL     1       5.683  24.545  54.339  1.00  0.00     0.164 HD
HETATM   10  H   UNL     1       4.491  26.524  54.840  1.00  0.00     0.192 HD
BRANCH   7  11
HETATM   11  C   UNL     1       7.773  24.477  54.033  1.00  0.00     0.129 C 
BRANCH  11  12
HETATM   12  C   UNL     1       7.769  22.953  54.215  1.00  0.00     0.004 C 
HETATM   13  C   UNL     1       8.877  22.473  55.166  1.00  0.00     0.010 C 
HETATM   14  C   UNL     1       8.858  20.950  55.381  1.00  0.00    -0.018 C 
HETATM   15  C   UNL     1       8.861  20.206  54.037  1.00  0.00     0.004 C 
HETATM   16  C   UNL     1       7.685  20.514  56.264  1.00  0.00     0.010 C 
HETATM   17  C   UNL     1       7.776  20.693  53.078  1.00  0.00     0.001 C 
HETATM   18  C   UNL     1       7.839  22.205  52.876  1.00  0.00     0.006 C 
ENDBRANCH  11  12
ENDBRANCH   7  11
ENDBRANCH   2   5
BRANCH   1  19
HETATM   19  C   UNL     1       4.658  29.885  57.002  1.00  0.00     0.121 A 
HETATM   20  N   UNL     1       3.368  30.084  57.405  1.00  0.00    -0.272 N 
HETATM   21  N   UNL     1       3.231  30.987  58.389  1.00  0.00    -0.174 NA
HETATM   22  H   UNL     1       2.539  29.614  57.054  1.00  0.00     0.189 HD
HETATM   23  C   UNL     1       4.479  31.419  58.631  1.00  0.00     0.089 A 
HETATM   24  C   UNL     1       5.401  30.756  57.773  1.00  0.00     0.071 A 
BRANCH  23  25
HETATM   25  C   UNL     1       4.778  32.411  59.669  1.00  0.00    -0.006 A 
HETATM   26  C   UNL     1       5.964  32.332  60.411  1.00  0.00     0.014 A 
HETATM   27  C   UNL     1       6.274  33.299  61.373  1.00  0.00     0.007 A 
HETATM   28  C   UNL     1       5.397  34.359  61.621  1.00  0.00    -0.062 A 
HETATM   29  C   UNL     1       5.731  35.420  62.628  1.00  0.00     0.048 C 
HETATM   30  C   UNL     1       4.209  34.440  60.889  1.00  0.00     0.007 A 
HETATM   31  C   UNL     1       3.901  33.474  59.925  1.00  0.00     0.014 A 
ENDBRANCH  23  25
ENDBRANCH   1  19
TORSDOF 5
ENDMDL
MODEL 9
REMARK VINA RESULT:      -9.0      8.132     11.965
REMARK  5 active torsions:
REMARK  status: ('A' for Active; 'I' for Inactive)
REMARK    1  A    between atoms: C_5  and  C_6 
REMARK    2  A    between atoms: C_10  and  C_11 
REMARK       I    between atoms: C_11  and  N_12 
REMARK    3  A    between atoms: N_12  and  N_13 
REMARK       I    between atoms: N_13  and  C_14 
REMARK       I    between atoms: C_14  and  N_15 
REMARK    4  A    between atoms: N_15  and  C_16 
REMARK    5  A    between atoms: C_16  and  C_17 
ROOT
HETATM    1  C   UNL     1       5.257  27.046  50.282  1.00  0.00     0.288 C 
HETATM    2  N   UNL     1       5.580  28.360  50.537  1.00  0.00    -0.261 N 
HETATM    3  O   UNL     1       4.807  26.673  49.201  1.00  0.00    -0.264 OA
HETATM    4  H   UNL     1       6.023  28.663  51.402  1.00  0.00     0.190 HD
ENDROOT
BRANCH   2   5
HETATM    5  N   UNL     1       5.634  29.288  49.485  1.00  0.00    -0.249 N 
HETATM    6  C   UNL     1       5.638  30.615  49.859  1.00  0.00     0.334 C 
HETATM    7  N   UNL     1       5.648  31.468  48.784  1.00  0.00    -0.341 N 
HETATM    8  O   UNL     1       5.670  30.971  51.034  1.00  0.00    -0.246 OA
HETATM    9  H   UNL     1       6.096  31.082  47.965  1.00  0.00     0.164 HD
HETATM   10  H   UNL     1       5.169  29.011  48.626  1.00  0.00     0.192 HD
BRANCH   7  11
HETATM   11  C   UNL     1       5.832  32.884  49.037  1.00  0.00     0.129 C 
BRANCH  11  12
HETATM   12  C   UNL     1       6.859  33.573  48.129  1.00  0.00     0.004 C 
HETATM   13  C   UNL     1       6.958  35.084  48.398  1.00  0.00     0.010 C 
HETATM   14  C   UNL     1       8.012  35.777  47.516  1.00  0.00    -0.018 C 
HETATM   15  C   UNL     1       7.787  35.447  46.032  1.00  0.00     0.004 C 
HETATM   16  C   UNL     1       9.438  35.437  47.960  1.00  0.00     0.010 C 
HETATM   17  C   UNL     1       7.665  33.949  45.761  1.00  0.00     0.001 C 
HETATM   18  C   UNL     1       6.599  33.301  46.641  1.00  0.00     0.006 C 
ENDBRANCH  11  12
ENDBRANCH   7  11
ENDBRANCH   2   5
BRANCH   1  19
HETATM   19  C   UNL     1       5.499  26.146  51.379  1.00  0.00     0.121 A 
HETATM   20  N   UNL     1       4.577  25.928  52.363  1.00  0.00    -0.272 N 
HETATM   21  N   UNL     1       4.952  25.019  53.277  1.00  0.00    -0.174 NA
HETATM   22  H   UNL     1       3.664  26.362  52.451  1.00  0.00     0.189 HD
HETATM   23  C   UNL     1       6.180  24.636  52.893  1.00  0.00     0.089 A 
HETATM   24  C   UNL     1       6.561  25.328  51.710  1.00  0.00     0.071 A 
BRANCH  23  25
HETATM   25  C   UNL     1       6.947  23.620  53.621  1.00  0.00    -0.006 A 
HETATM   26  C   UNL     1       7.690  22.654  52.927  1.00  0.00     0.014 A 
HETATM   27  C   UNL     1       8.458  21.709  53.615  1.00  0.00     0.007 A 
HETATM   28  C   UNL     1       8.488  21.702  55.013  1.00  0.00    -0.062 A 
HETATM   29  C   UNL     1       9.330  20.713  55.763  1.00  0.00     0.048 C 
HETATM   30  C   UNL     1       7.744  22.658  55.711  1.00  0.00     0.007 A 
HETATM   31  C   UNL     1       6.979  23.605  55.022  1.00  0.00     0.014 A 
ENDBRANCH  23  25
ENDBRANCH   1  19
TORSDOF 5
ENDMDL
MODEL 10
REMARK VINA RESULT:      -9.0      7.370     10.298
REMARK  5 active torsions:
REMARK  status: ('A' for Active; 'I' for Inactive)
REMARK    1  A    between atoms: C_5  and  C_6 
REMARK    2  A    between atoms: C_10  and  C_11 
REMARK       I    between atoms: C_11  and  N_12 
REMARK    3  A    between atoms: N_12  and  N_13 
REMARK       I    between atoms: N_13  and  C_14 
REMARK       I    between atoms: C_14  and  N_15 
REMARK    4  A    between atoms: N_15  and  C_16 
REMARK    5  A    between atoms: C_16  and  C_17 
ROOT
HETATM    1  C   UNL     1       3.724  28.210  53.029  1.00  0.00     0.288 C 
HETATM    2  N   UNL     1       3.881  26.844  53.104  1.00  0.00    -0.261 N 
HETATM    3  O   UNL     1       4.037  28.963  53.949  1.00  0.00    -0.264 OA
HETATM    4  H   UNL     1       3.696  26.222  52.320  1.00  0.00     0.190 HD
ENDROOT
BRANCH   2   5
HETATM    5  N   UNL     1       4.633  26.278  54.146  1.00  0.00    -0.249 N 
HETATM    6  C   UNL     1       5.785  25.627  53.765  1.00  0.00     0.334 C 
HETATM    7  N   UNL     1       6.449  25.060  54.824  1.00  0.00    -0.341 N 
HETATM    8  O   UNL     1       6.179  25.603  52.602  1.00  0.00    -0.246 OA
HETATM    9  H   UNL     1       6.303  25.544  55.699  1.00  0.00     0.164 HD
HETATM   10  H   UNL     1       4.099  25.931  54.939  1.00  0.00     0.192 HD
BRANCH   7  11
HETATM   11  C   UNL     1       7.764  24.499  54.586  1.00  0.00     0.129 C 
BRANCH  11  12
HETATM   12  C   UNL     1       7.810  22.966  54.524  1.00  0.00     0.004 C 
HETATM   13  C   UNL     1       8.975  22.381  55.338  1.00  0.00     0.010 C 
HETATM   14  C   UNL     1       9.007  20.842  55.309  1.00  0.00    -0.018 C 
HETATM   15  C   UNL     1       8.967  20.320  53.865  1.00  0.00     0.004 C 
HETATM   16  C   UNL     1       7.889  20.233  56.161  1.00  0.00     0.010 C 
HETATM   17  C   UNL     1       7.825  20.914  53.043  1.00  0.00     0.001 C 
HETATM   18  C   UNL     1       7.837  22.441  53.081  1.00  0.00     0.006 C 
ENDBRANCH  11  12
ENDBRANCH   7  11
ENDBRANCH   2   5
BRANCH   1  19
HETATM   19  C   UNL     1       3.175  28.683  51.786  1.00  0.00     0.121 A 
HETATM   20  N   UNL     1       1.830  28.734  51.552  1.00  0.00    -0.272 N 
HETATM   21  N   UNL     1       1.498  29.249  50.358  1.00  0.00    -0.174 NA
HETATM   22  H   UNL     1       1.090  28.445  52.184  1.00  0.00     0.189 HD
HETATM   23  C   UNL     1       2.671  29.531  49.770  1.00  0.00     0.089 A 
HETATM   24  C   UNL     1       3.747  29.180  50.632  1.00  0.00     0.071 A 
BRANCH  23  25
HETATM   25  C   UNL     1       2.754  30.141  48.439  1.00  0.00    -0.006 A 
HETATM   26  C   UNL     1       3.901  30.846  48.048  1.00  0.00     0.014 A 
HETATM   27  C   UNL     1       4.003  31.394  46.765  1.00  0.00     0.007 A 
HETATM   28  C   UNL     1       2.955  31.259  45.850  1.00  0.00    -0.062 A 
HETATM   29  C   UNL     1       3.063  31.815  44.461  1.00  0.00     0.048 C 
HETATM   30  C   UNL     1       1.805  30.563  46.236  1.00  0.00     0.007 A 
HETATM   31  C   UNL     1       1.705  30.012  47.518  1.00  0.00     0.014 A 
ENDBRANCH  23  25
ENDBRANCH   1  19
TORSDOF 5
ENDMDL
