MODEL 1
REMARK VINA RESULT:      -9.5      0.000      0.000
REMARK  5 active torsions:
REMARK  status: ('A' for Active; 'I' for Inactive)
REMARK    1  A    between atoms: C_2  and  C_3 
REMARK       I    between atoms: C_3  and  N_4 
REMARK    2  A    between atoms: N_4  and  C_5 
REMARK    3  A    between atoms: C_8  and  C_9 
REMARK       I    between atoms: C_9  and  N_10 
REMARK    4  A    between atoms: N_10  and  N_11 
REMARK    5  A    between atoms: C_12  and  C_13 
ROOT
HETATM    1  C   UNL     1       6.938  29.452  56.663  1.00  0.00     0.271 C 
HETATM    2  N   UNL     1       7.605  28.237  56.567  1.00  0.00    -0.243 N 
HETATM    3  O   UNL     1       6.142  29.903  55.846  1.00  0.00    -0.266 OA
HETATM    4  H   UNL     1       7.986  27.824  57.412  1.00  0.00     0.192 HD
ENDROOT
BRANCH   2   5
HETATM    5  N   UNL     1       7.505  27.341  55.530  1.00  0.00    -0.183 NA
HETATM    6  C   UNL     1       7.019  26.165  55.770  1.00  0.00     0.153 C 
BRANCH   6   7
HETATM    7  C   UNL     1       6.911  25.181  54.705  1.00  0.00     0.018 A 
HETATM    8  C   UNL     1       7.706  23.991  54.588  1.00  0.00     0.004 A 
HETATM    9  C   UNL     1       7.282  23.312  53.447  1.00  0.00     0.043 A 
HETATM   10  C   UNL     1       8.751  23.427  55.351  1.00  0.00     0.014 A 
HETATM   11  C   UNL     1       7.845  22.098  53.031  1.00  0.00     0.030 A 
HETATM   12  N   UNL     1       6.276  24.059  52.885  1.00  0.00    -0.358 N 
HETATM   13  C   UNL     1       8.875  21.561  53.807  1.00  0.00     0.002 A 
HETATM   14  C   UNL     1       9.326  22.214  54.950  1.00  0.00     0.001 A 
HETATM   15  H   UNL     1       5.784  23.804  52.040  1.00  0.00     0.166 HD
HETATM   16  C   UNL     1       6.034  25.189  53.626  1.00  0.00     0.018 A 
HETATM   17  C   UNL     1       4.982  26.159  53.226  1.00  0.00     0.069 C 
ENDBRANCH   6   7
ENDBRANCH   2   5
BRANCH   1  18
HETATM   18  C   UNL     1       7.217  30.239  57.899  1.00  0.00     0.033 A 
HETATM   19  C   UNL     1       6.473  31.371  58.249  1.00  0.00     0.019 A 
HETATM   20  C   UNL     1       6.738  32.048  59.447  1.00  0.00     0.030 A 
HETATM   21  C   UNL     1       7.740  31.604  60.312  1.00  0.00     0.034 A 
HETATM   22  C   UNL     1       8.485  30.472  59.956  1.00  0.00     0.030 A 
HETATM   23  C   UNL     1       8.221  29.790  58.764  1.00  0.00     0.019 A 
BRANCH  21  24
HETATM   24  N   UNL     1       8.049  32.212  61.545  1.00  0.00    -0.327 N 
HETATM   25  C   UNL     1       7.316  32.161  62.717  1.00  0.00     0.221 C 
HETATM   26  O   UNL     1       6.230  31.611  62.872  1.00  0.00    -0.273 OA
HETATM   27  H   UNL     1       8.925  32.716  61.578  1.00  0.00     0.169 HD
BRANCH  25  28
HETATM   28  C   UNL     1       7.966  32.914  63.867  1.00  0.00     0.098 C 
HETATM   29  C   UNL     1       6.967  33.422  64.894  1.00  0.00     0.014 C 
ENDBRANCH  25  28
ENDBRANCH  21  24
ENDBRANCH   1  18
TORSDOF 5
ENDMDL
MODEL 2
REMARK VINA RESULT:      -9.3      2.057      3.043
REMARK  5 active torsions:
REMARK  status: ('A' for Active; 'I' for Inactive)
REMARK    1  A    between atoms: C_2  and  C_3 
REMARK       I    between atoms: C_3  and  N_4 
REMARK    2  A    between atoms: N_4  and  C_5 
REMARK    3  A    between atoms: C_8  and  C_9 
REMARK       I    between atoms: C_9  and  N_10 
REMARK    4  A    between atoms: N_10  and  N_11 
REMARK    5  A    between atoms: C_12  and  C_13 
ROOT
HETATM    1  C   UNL     1       8.591  30.550  59.539  1.00  0.00     0.271 C 
HETATM    2  N   UNL     1       7.658  29.630  59.076  1.00  0.00    -0.243 N 
HETATM    3  O   UNL     1       9.719  30.719  59.088  1.00  0.00    -0.266 OA
HETATM    4  H   UNL     1       6.679  29.777  59.300  1.00  0.00     0.192 HD
ENDROOT
BRANCH   2   5
HETATM    5  N   UNL     1       7.845  28.737  58.048  1.00  0.00    -0.183 NA
HETATM    6  C   UNL     1       6.803  28.227  57.472  1.00  0.00     0.153 C 
BRANCH   6   7
HETATM    7  C   UNL     1       6.956  27.267  56.391  1.00  0.00     0.018 A 
HETATM    8  C   UNL     1       7.596  25.986  56.500  1.00  0.00     0.004 A 
HETATM    9  C   UNL     1       7.517  25.368  55.253  1.00  0.00     0.043 A 
HETATM   10  C   UNL     1       8.238  25.293  57.549  1.00  0.00     0.014 A 
HETATM   11  C   UNL     1       8.042  24.094  55.001  1.00  0.00     0.030 A 
HETATM   12  N   UNL     1       6.864  26.238  54.415  1.00  0.00    -0.358 N 
HETATM   13  C   UNL     1       8.668  23.429  56.059  1.00  0.00     0.002 A 
HETATM   14  C   UNL     1       8.769  24.019  57.316  1.00  0.00     0.001 A 
HETATM   15  H   UNL     1       6.669  26.048  53.442  1.00  0.00     0.166 HD
HETATM   16  C   UNL     1       6.515  27.388  55.078  1.00  0.00     0.018 A 
HETATM   17  C   UNL     1       5.788  28.484  54.385  1.00  0.00     0.069 C 
ENDBRANCH   6   7
ENDBRANCH   2   5
BRANCH   1  18
HETATM   18  C   UNL     1       8.135  31.410  60.669  1.00  0.00     0.033 A 
HETATM   19  C   UNL     1       7.082  32.321  60.537  1.00  0.00     0.019 A 
HETATM   20  C   UNL     1       6.654  33.072  61.641  1.00  0.00     0.030 A 
HETATM   21  C   UNL     1       7.265  32.919  62.887  1.00  0.00     0.034 A 
HETATM   22  C   UNL     1       8.321  32.008  63.014  1.00  0.00     0.030 A 
HETATM   23  C   UNL     1       8.748  31.254  61.917  1.00  0.00     0.019 A 
BRANCH  21  24
HETATM   24  N   UNL     1       6.875  33.615  64.050  1.00  0.00    -0.327 N 
HETATM   25  C   UNL     1       5.722  33.438  64.792  1.00  0.00     0.221 C 
HETATM   26  O   UNL     1       4.802  32.668  64.533  1.00  0.00    -0.273 OA
HETATM   27  H   UNL     1       7.536  34.300  64.392  1.00  0.00     0.169 HD
BRANCH  25  28
HETATM   28  C   UNL     1       5.642  34.347  66.008  1.00  0.00     0.098 C 
HETATM   29  C   UNL     1       4.341  34.206  66.781  1.00  0.00     0.014 C 
ENDBRANCH  25  28
ENDBRANCH  21  24
ENDBRANCH   1  18
TORSDOF 5
ENDMDL
MODEL 3
REMARK VINA RESULT:      -9.3      1.332      1.807
REMARK  5 active torsions:
REMARK  status: ('A' for Active; 'I' for Inactive)
REMARK    1  A    between atoms: C_2  and  C_3 
REMARK       I    between atoms: C_3  and  N_4 
REMARK    2  A    between atoms: N_4  and  C_5 
REMARK    3  A    between atoms: C_8  and  C_9 
REMARK       I    between atoms: C_9  and  N_10 
REMARK    4  A    between atoms: N_10  and  N_11 
REMARK    5  A    between atoms: C_12  and  C_13 
ROOT
HETATM    1  C   UNL     1       7.792  28.540  56.210  1.00  0.00     0.271 C 
HETATM    2  N   UNL     1       7.253  27.276  56.413  1.00  0.00    -0.243 N 
HETATM    3  O   UNL     1       8.295  28.949  55.167  1.00  0.00    -0.266 OA
HETATM    4  H   UNL     1       6.602  27.144  57.180  1.00  0.00     0.192 HD
ENDROOT
BRANCH   2   5
HETATM    5  N   UNL     1       7.209  26.258  55.490  1.00  0.00    -0.183 NA
HETATM    6  C   UNL     1       7.981  25.232  55.661  1.00  0.00     0.153 C 
BRANCH   6   7
HETATM    7  C   UNL     1       7.978  24.141  54.700  1.00  0.00     0.018 A 
HETATM    8  C   UNL     1       8.092  22.747  55.023  1.00  0.00     0.004 A 
HETATM    9  C   UNL     1       8.027  22.030  53.829  1.00  0.00     0.043 A 
HETATM   10  C   UNL     1       8.247  22.026  56.227  1.00  0.00     0.014 A 
HETATM   11  C   UNL     1       8.105  20.633  53.776  1.00  0.00     0.030 A 
HETATM   12  N   UNL     1       7.887  22.948  52.818  1.00  0.00    -0.358 N 
HETATM   13  C   UNL     1       8.253  19.944  54.983  1.00  0.00     0.002 A 
HETATM   14  C   UNL     1       8.326  20.628  56.193  1.00  0.00     0.001 A 
HETATM   15  H   UNL     1       7.817  22.707  51.839  1.00  0.00     0.166 HD
HETATM   16  C   UNL     1       7.853  24.226  53.318  1.00  0.00     0.018 A 
HETATM   17  C   UNL     1       7.699  25.399  52.418  1.00  0.00     0.069 C 
ENDBRANCH   6   7
ENDBRANCH   2   5
BRANCH   1  18
HETATM   18  C   UNL     1       7.709  29.467  57.376  1.00  0.00     0.033 A 
HETATM   19  C   UNL     1       8.762  29.620  58.284  1.00  0.00     0.019 A 
HETATM   20  C   UNL     1       8.658  30.542  59.336  1.00  0.00     0.030 A 
HETATM   21  C   UNL     1       7.511  31.324  59.489  1.00  0.00     0.034 A 
HETATM   22  C   UNL     1       6.459  31.164  58.578  1.00  0.00     0.030 A 
HETATM   23  C   UNL     1       6.559  30.249  57.525  1.00  0.00     0.019 A 
BRANCH  21  24
HETATM   24  N   UNL     1       7.341  32.290  60.501  1.00  0.00    -0.327 N 
HETATM   25  C   UNL     1       7.299  32.081  61.868  1.00  0.00     0.221 C 
HETATM   26  O   UNL     1       7.352  30.996  62.440  1.00  0.00    -0.273 OA
HETATM   27  H   UNL     1       7.275  33.248  60.185  1.00  0.00     0.169 HD
BRANCH  25  28
HETATM   28  C   UNL     1       7.130  33.363  62.668  1.00  0.00     0.098 C 
HETATM   29  C   UNL     1       7.491  33.207  64.136  1.00  0.00     0.014 C 
ENDBRANCH  25  28
ENDBRANCH  21  24
ENDBRANCH   1  18
TORSDOF 5
ENDMDL
MODEL 4
REMARK VINA RESULT:      -9.1      1.938      3.065
REMARK  5 active torsions:
REMARK  status: ('A' for Active; 'I' for Inactive)
REMARK    1  A    between atoms: C_2  and  C_3 
REMARK       I    between atoms: C_3  and  N_4 
REMARK    2  A    between atoms: N_4  and  C_5 
REMARK    3  A    between atoms: C_8  and  C_9 
REMARK       I    between atoms: C_9  and  N_10 
REMARK    4  A    between atoms: N_10  and  N_11 
REMARK    5  A    between atoms: C_12  and  C_13 
ROOT
HETATM    1  C   UNL     1       8.488  29.941  58.746  1.00  0.00     0.271 C 
HETATM    2  N   UNL     1       7.716  28.800  58.567  1.00  0.00    -0.243 N 
HETATM    3  O   UNL     1       9.460  30.264  58.071  1.00  0.00    -0.266 OA
HETATM    4  H   UNL     1       6.780  28.781  58.959  1.00  0.00     0.192 HD
ENDROOT
BRANCH   2   5
HETATM    5  N   UNL     1       7.921  27.825  57.621  1.00  0.00    -0.183 NA
HETATM    6  C   UNL     1       6.984  26.957  57.410  1.00  0.00     0.153 C 
BRANCH   6   7
HETATM    7  C   UNL     1       7.166  25.899  56.429  1.00  0.00     0.018 A 
HETATM    8  C   UNL     1       6.454  25.785  55.187  1.00  0.00     0.004 A 
HETATM    9  C   UNL     1       6.932  24.652  54.531  1.00  0.00     0.043 A 
HETATM   10  C   UNL     1       5.441  26.543  54.561  1.00  0.00     0.014 A 
HETATM   11  C   UNL     1       6.455  24.240  53.279  1.00  0.00     0.030 A 
HETATM   12  N   UNL     1       7.891  24.094  55.340  1.00  0.00    -0.358 N 
HETATM   13  C   UNL     1       5.456  25.012  52.680  1.00  0.00     0.002 A 
HETATM   14  C   UNL     1       4.952  26.146  53.310  1.00  0.00     0.001 A 
HETATM   15  H   UNL     1       8.406  23.255  55.112  1.00  0.00     0.166 HD
HETATM   16  C   UNL     1       8.050  24.829  56.488  1.00  0.00     0.018 A 
HETATM   17  C   UNL     1       9.040  24.430  57.523  1.00  0.00     0.069 C 
ENDBRANCH   6   7
ENDBRANCH   2   5
BRANCH   1  18
HETATM   18  C   UNL     1       8.048  30.846  59.847  1.00  0.00     0.033 A 
HETATM   19  C   UNL     1       6.995  31.754  59.692  1.00  0.00     0.019 A 
HETATM   20  C   UNL     1       6.582  32.548  60.772  1.00  0.00     0.030 A 
HETATM   21  C   UNL     1       7.208  32.442  62.015  1.00  0.00     0.034 A 
HETATM   22  C   UNL     1       8.264  31.534  62.165  1.00  0.00     0.030 A 
HETATM   23  C   UNL     1       8.676  30.737  61.092  1.00  0.00     0.019 A 
BRANCH  21  24
HETATM   24  N   UNL     1       6.835  33.183  63.155  1.00  0.00    -0.327 N 
HETATM   25  C   UNL     1       5.762  32.952  63.996  1.00  0.00     0.221 C 
HETATM   26  O   UNL     1       4.910  32.079  63.865  1.00  0.00    -0.273 OA
HETATM   27  H   UNL     1       7.445  33.953  63.395  1.00  0.00     0.169 HD
BRANCH  25  28
HETATM   28  C   UNL     1       5.678  33.940  65.150  1.00  0.00     0.098 C 
HETATM   29  C   UNL     1       6.903  33.921  66.049  1.00  0.00     0.014 C 
ENDBRANCH  25  28
ENDBRANCH  21  24
ENDBRANCH   1  18
TORSDOF 5
ENDMDL
MODEL 5
REMARK VINA RESULT:      -8.7      2.804      3.461
REMARK  5 active torsions:
REMARK  status: ('A' for Active; 'I' for Inactive)
REMARK    1  A    between atoms: C_2  and  C_3 
REMARK       I    between atoms: C_3  and  N_4 
REMARK    2  A    between atoms: N_4  and  C_5 
REMARK    3  A    between atoms: C_8  and  C_9 
REMARK       I    between atoms: C_9  and  N_10 
REMARK    4  A    between atoms: N_10  and  N_11 
REMARK    5  A    between atoms: C_12  and  C_13 
ROOT
HETATM    1  C   UNL     1       7.516  27.669  57.036  1.00  0.00     0.271 C 
HETATM    2  N   UNL     1       7.215  27.367  55.714  1.00  0.00    -0.243 N 
HETATM    3  O   UNL     1       8.250  27.018  57.774  1.00  0.00    -0.266 OA
HETATM    4  H   UNL     1       6.866  28.108  55.115  1.00  0.00     0.192 HD
ENDROOT
BRANCH   2   5
HETATM    5  N   UNL     1       7.669  26.277  55.011  1.00  0.00    -0.183 NA
HETATM    6  C   UNL     1       6.973  25.185  55.043  1.00  0.00     0.153 C 
BRANCH   6   7
HETATM    7  C   UNL     1       7.425  24.003  54.326  1.00  0.00     0.018 A 
HETATM    8  C   UNL     1       7.739  22.736  54.925  1.00  0.00     0.004 A 
HETATM    9  C   UNL     1       8.112  21.867  53.901  1.00  0.00     0.043 A 
HETATM   10  C   UNL     1       7.740  22.248  56.250  1.00  0.00     0.014 A 
HETATM   11  C   UNL     1       8.483  20.536  54.131  1.00  0.00     0.030 A 
HETATM   12  N   UNL     1       8.037  22.575  52.727  1.00  0.00    -0.358 N 
HETATM   13  C   UNL     1       8.471  20.077  55.451  1.00  0.00     0.002 A 
HETATM   14  C   UNL     1       8.108  20.919  56.498  1.00  0.00     0.001 A 
HETATM   15  H   UNL     1       8.257  22.191  51.819  1.00  0.00     0.166 HD
HETATM   16  C   UNL     1       7.624  23.864  52.958  1.00  0.00     0.018 A 
HETATM   17  C   UNL     1       7.457  24.829  51.840  1.00  0.00     0.069 C 
ENDBRANCH   6   7
ENDBRANCH   2   5
BRANCH   1  18
HETATM   18  C   UNL     1       6.898  28.920  57.564  1.00  0.00     0.033 A 
HETATM   19  C   UNL     1       7.633  29.874  58.275  1.00  0.00     0.019 A 
HETATM   20  C   UNL     1       7.020  31.059  58.707  1.00  0.00     0.030 A 
HETATM   21  C   UNL     1       5.674  31.309  58.431  1.00  0.00     0.034 A 
HETATM   22  C   UNL     1       4.942  30.349  57.721  1.00  0.00     0.030 A 
HETATM   23  C   UNL     1       5.550  29.167  57.284  1.00  0.00     0.019 A 
BRANCH  21  24
HETATM   24  N   UNL     1       4.995  32.485  58.806  1.00  0.00    -0.327 N 
HETATM   25  C   UNL     1       4.866  33.653  58.076  1.00  0.00     0.221 C 
HETATM   26  O   UNL     1       5.372  33.887  56.983  1.00  0.00    -0.273 OA
HETATM   27  H   UNL     1       4.522  32.452  59.700  1.00  0.00     0.169 HD
BRANCH  25  28
HETATM   28  C   UNL     1       4.036  34.715  58.781  1.00  0.00     0.098 C 
HETATM   29  C   UNL     1       3.282  35.622  57.823  1.00  0.00     0.014 C 
ENDBRANCH  25  28
ENDBRANCH  21  24
ENDBRANCH   1  18
TORSDOF 5
ENDMDL
MODEL 6
REMARK VINA RESULT:      -8.7      3.541      5.122
REMARK  5 active torsions:
REMARK  status: ('A' for Active; 'I' for Inactive)
REMARK    1  A    between atoms: C_2  and  C_3 
REMARK       I    between atoms: C_3  and  N_4 
REMARK    2  A    between atoms: N_4  and  C_5 
REMARK    3  A    between atoms: C_8  and  C_9 
REMARK       I    between atoms: C_9  and  N_10 
REMARK    4  A    between atoms: N_10  and  N_11 
REMARK    5  A    between atoms: C_12  and  C_13 
ROOT
HETATM    1  C   UNL     1       8.176  32.335  60.153  1.00  0.00     0.271 C 
HETATM    2  N   UNL     1       7.352  31.503  59.404  1.00  0.00    -0.243 N 
HETATM    3  O   UNL     1       9.275  32.757  59.809  1.00  0.00    -0.266 OA
HETATM    4  H   UNL     1       6.364  31.466  59.633  1.00  0.00     0.192 HD
ENDROOT
BRANCH   2   5
HETATM    5  N   UNL     1       7.634  30.994  58.160  1.00  0.00    -0.183 NA
HETATM    6  C   UNL     1       6.988  29.946  57.757  1.00  0.00     0.153 C 
BRANCH   6   7
HETATM    7  C   UNL     1       7.267  29.365  56.454  1.00  0.00     0.018 A 
HETATM    8  C   UNL     1       6.282  28.867  55.536  1.00  0.00     0.004 A 
HETATM    9  C   UNL     1       6.953  28.415  54.401  1.00  0.00     0.043 A 
HETATM   10  C   UNL     1       4.874  28.757  55.569  1.00  0.00     0.014 A 
HETATM   11  C   UNL     1       6.291  27.864  53.296  1.00  0.00     0.030 A 
HETATM   12  N   UNL     1       8.293  28.621  54.619  1.00  0.00    -0.358 N 
HETATM   13  C   UNL     1       4.899  27.771  53.353  1.00  0.00     0.002 A 
HETATM   14  C   UNL     1       4.197  28.208  54.472  1.00  0.00     0.001 A 
HETATM   15  H   UNL     1       9.018  28.382  53.957  1.00  0.00     0.166 HD
HETATM   16  C   UNL     1       8.507  29.194  55.848  1.00  0.00     0.018 A 
HETATM   17  C   UNL     1       9.879  29.523  56.313  1.00  0.00     0.069 C 
ENDBRANCH   6   7
ENDBRANCH   2   5
BRANCH   1  18
HETATM   18  C   UNL     1       7.631  32.754  61.477  1.00  0.00     0.033 A 
HETATM   19  C   UNL     1       6.413  33.432  61.603  1.00  0.00     0.019 A 
HETATM   20  C   UNL     1       5.915  33.759  62.872  1.00  0.00     0.030 A 
HETATM   21  C   UNL     1       6.619  33.411  64.027  1.00  0.00     0.034 A 
HETATM   22  C   UNL     1       7.839  32.735  63.895  1.00  0.00     0.030 A 
HETATM   23  C   UNL     1       8.338  32.402  62.631  1.00  0.00     0.019 A 
BRANCH  21  24
HETATM   24  N   UNL     1       6.173  33.679  65.336  1.00  0.00    -0.327 N 
HETATM   25  C   UNL     1       4.867  33.775  65.779  1.00  0.00     0.221 C 
HETATM   26  O   UNL     1       3.857  33.691  65.087  1.00  0.00    -0.273 OA
HETATM   27  H   UNL     1       6.899  33.782  66.034  1.00  0.00     0.169 HD
BRANCH  25  28
HETATM   28  C   UNL     1       4.755  34.049  67.271  1.00  0.00     0.098 C 
HETATM   29  C   UNL     1       6.040  34.580  67.883  1.00  0.00     0.014 C 
ENDBRANCH  25  28
ENDBRANCH  21  24
ENDBRANCH   1  18
TORSDOF 5
ENDMDL
MODEL 7
REMARK VINA RESULT:      -8.6      6.036     15.078
REMARK  5 active torsions:
REMARK  status: ('A' for Active; 'I' for Inactive)
REMARK    1  A    between atoms: C_2  and  C_3 
REMARK       I    between atoms: C_3  and  N_4 
REMARK    2  A    between atoms: N_4  and  C_5 
REMARK    3  A    between atoms: C_8  and  C_9 
REMARK       I    between atoms: C_9  and  N_10 
REMARK    4  A    between atoms: N_10  and  N_11 
REMARK    5  A    between atoms: C_12  and  C_13 
ROOT
HETATM    1  C   UNL     1       5.952  34.150  65.878  1.00  0.00     0.271 C 
HETATM    2  N   UNL     1       6.717  33.928  67.016  1.00  0.00    -0.243 N 
HETATM    3  O   UNL     1       4.985  34.901  65.796  1.00  0.00    -0.266 OA
HETATM    4  H   UNL     1       7.651  33.547  66.906  1.00  0.00     0.192 HD
ENDROOT
BRANCH   2   5
HETATM    5  N   UNL     1       6.510  34.494  68.251  1.00  0.00    -0.183 NA
HETATM    6  C   UNL     1       7.329  34.203  69.212  1.00  0.00     0.153 C 
BRANCH   6   7
HETATM    7  C   UNL     1       7.137  34.767  70.539  1.00  0.00     0.018 A 
HETATM    8  C   UNL     1       7.513  36.093  70.942  1.00  0.00     0.004 A 
HETATM    9  C   UNL     1       7.144  36.249  72.276  1.00  0.00     0.043 A 
HETATM   10  C   UNL     1       8.138  37.179  70.290  1.00  0.00     0.014 A 
HETATM   11  C   UNL     1       7.361  37.433  72.993  1.00  0.00     0.030 A 
HETATM   12  N   UNL     1       6.573  35.065  72.675  1.00  0.00    -0.358 N 
HETATM   13  C   UNL     1       7.977  38.493  72.323  1.00  0.00     0.002 A 
HETATM   14  C   UNL     1       8.364  38.370  70.991  1.00  0.00     0.001 A 
HETATM   15  H   UNL     1       6.214  34.894  73.604  1.00  0.00     0.166 HD
HETATM   16  C   UNL     1       6.556  34.158  71.645  1.00  0.00     0.018 A 
HETATM   17  C   UNL     1       5.979  32.800  71.827  1.00  0.00     0.069 C 
ENDBRANCH   6   7
ENDBRANCH   2   5
BRANCH   1  18
HETATM   18  C   UNL     1       6.392  33.415  64.657  1.00  0.00     0.033 A 
HETATM   19  C   UNL     1       7.742  33.255  64.327  1.00  0.00     0.019 A 
HETATM   20  C   UNL     1       8.109  32.511  63.197  1.00  0.00     0.030 A 
HETATM   21  C   UNL     1       7.139  31.913  62.389  1.00  0.00     0.034 A 
HETATM   22  C   UNL     1       5.789  32.078  62.723  1.00  0.00     0.030 A 
HETATM   23  C   UNL     1       5.417  32.816  63.852  1.00  0.00     0.019 A 
BRANCH  21  24
HETATM   24  N   UNL     1       7.428  31.128  61.255  1.00  0.00    -0.327 N 
HETATM   25  C   UNL     1       8.081  31.522  60.101  1.00  0.00     0.221 C 
HETATM   26  O   UNL     1       8.482  32.653  59.843  1.00  0.00    -0.273 OA
HETATM   27  H   UNL     1       7.150  30.157  61.312  1.00  0.00     0.169 HD
BRANCH  25  28
HETATM   28  C   UNL     1       8.245  30.399  59.089  1.00  0.00     0.098 C 
HETATM   29  C   UNL     1       9.593  30.414  58.387  1.00  0.00     0.014 C 
ENDBRANCH  25  28
ENDBRANCH  21  24
ENDBRANCH   1  18
TORSDOF 5
ENDMDL
MODEL 8
REMARK VINA RESULT:      -8.5      5.852      9.770
REMARK  5 active torsions:
REMARK  status: ('A' for Active; 'I' for Inactive)
REMARK    1  A    between atoms: C_2  and  C_3 
REMARK       I    between atoms: C_3  and  N_4 
REMARK    2  A    between atoms: N_4  and  C_5 
REMARK    3  A    between atoms: C_8  and  C_9 
REMARK       I    between atoms: C_9  and  N_10 
REMARK    4  A    between atoms: N_10  and  N_11 
REMARK    5  A    between atoms: C_12  and  C_13 
ROOT
HETATM    1  C   UNL     1       5.620  27.013  51.826  1.00  0.00     0.271 C 
HETATM    2  N   UNL     1       5.790  25.636  51.903  1.00  0.00    -0.243 N 
HETATM    3  O   UNL     1       6.226  27.849  52.488  1.00  0.00    -0.266 OA
HETATM    4  H   UNL     1       5.482  25.065  51.121  1.00  0.00     0.192 HD
ENDROOT
BRANCH   2   5
HETATM    5  N   UNL     1       6.648  24.973  52.747  1.00  0.00    -0.183 NA
HETATM    6  C   UNL     1       6.151  24.327  53.754  1.00  0.00     0.153 C 
BRANCH   6   7
HETATM    7  C   UNL     1       7.025  23.625  54.681  1.00  0.00     0.018 A 
HETATM    8  C   UNL     1       7.683  22.376  54.421  1.00  0.00     0.004 A 
HETATM    9  C   UNL     1       8.438  22.055  55.548  1.00  0.00     0.043 A 
HETATM   10  C   UNL     1       7.704  21.485  53.326  1.00  0.00     0.014 A 
HETATM   11  C   UNL     1       9.215  20.893  55.636  1.00  0.00     0.030 A 
HETATM   12  N   UNL     1       8.244  23.061  56.461  1.00  0.00    -0.358 N 
HETATM   13  C   UNL     1       9.222  20.031  54.536  1.00  0.00     0.002 A 
HETATM   14  C   UNL     1       8.476  20.318  53.397  1.00  0.00     0.001 A 
HETATM   15  H   UNL     1       8.671  23.087  57.376  1.00  0.00     0.166 HD
HETATM   16  C   UNL     1       7.398  24.020  55.961  1.00  0.00     0.018 A 
HETATM   17  C   UNL     1       7.038  25.219  56.761  1.00  0.00     0.069 C 
ENDBRANCH   6   7
ENDBRANCH   2   5
BRANCH   1  18
HETATM   18  C   UNL     1       4.626  27.481  50.818  1.00  0.00     0.033 A 
HETATM   19  C   UNL     1       3.771  28.562  51.058  1.00  0.00     0.019 A 
HETATM   20  C   UNL     1       2.888  28.999  50.060  1.00  0.00     0.030 A 
HETATM   21  C   UNL     1       2.852  28.370  48.814  1.00  0.00     0.034 A 
HETATM   22  C   UNL     1       3.708  27.286  48.579  1.00  0.00     0.030 A 
HETATM   23  C   UNL     1       4.593  26.849  49.570  1.00  0.00     0.019 A 
BRANCH  21  24
HETATM   24  N   UNL     1       2.014  28.766  47.751  1.00  0.00    -0.327 N 
HETATM   25  C   UNL     1       0.878  28.126  47.290  1.00  0.00     0.221 C 
HETATM   26  O   UNL     1       0.425  27.062  47.700  1.00  0.00    -0.273 OA
HETATM   27  H   UNL     1       2.262  29.636  47.299  1.00  0.00     0.169 HD
BRANCH  25  28
HETATM   28  C   UNL     1       0.202  28.855  46.139  1.00  0.00     0.098 C 
HETATM   29  C   UNL     1       0.660  30.296  45.987  1.00  0.00     0.014 C 
ENDBRANCH  25  28
ENDBRANCH  21  24
ENDBRANCH   1  18
TORSDOF 5
ENDMDL
MODEL 9
REMARK VINA RESULT:      -8.1      2.887     11.242
REMARK  5 active torsions:
REMARK  status: ('A' for Active; 'I' for Inactive)
REMARK    1  A    between atoms: C_2  and  C_3 
REMARK       I    between atoms: C_3  and  N_4 
REMARK    2  A    between atoms: N_4  and  C_5 
REMARK    3  A    between atoms: C_8  and  C_9 
REMARK       I    between atoms: C_9  and  N_10 
REMARK    4  A    between atoms: N_10  and  N_11 
REMARK    5  A    between atoms: C_12  and  C_13 
ROOT
HETATM    1  C   UNL     1       6.603  31.461  58.730  1.00  0.00     0.271 C 
HETATM    2  N   UNL     1       6.925  31.483  60.082  1.00  0.00    -0.243 N 
HETATM    3  O   UNL     1       6.304  32.435  58.046  1.00  0.00    -0.266 OA
HETATM    4  H   UNL     1       7.446  30.703  60.469  1.00  0.00     0.192 HD
ENDROOT
BRANCH   2   5
HETATM    5  N   UNL     1       6.944  32.594  60.890  1.00  0.00    -0.183 NA
HETATM    6  C   UNL     1       5.974  32.766  61.731  1.00  0.00     0.153 C 
BRANCH   6   7
HETATM    7  C   UNL     1       5.946  33.937  62.594  1.00  0.00     0.018 A 
HETATM    8  C   UNL     1       5.237  35.154  62.321  1.00  0.00     0.004 A 
HETATM    9  C   UNL     1       5.448  36.015  63.397  1.00  0.00     0.043 A 
HETATM   10  C   UNL     1       4.431  35.605  61.253  1.00  0.00     0.014 A 
HETATM   11  C   UNL     1       4.894  37.300  63.463  1.00  0.00     0.030 A 
HETATM   12  N   UNL     1       6.260  35.355  64.286  1.00  0.00    -0.358 N 
HETATM   13  C   UNL     1       4.097  37.719  62.394  1.00  0.00     0.002 A 
HETATM   14  C   UNL     1       3.869  36.887  61.302  1.00  0.00     0.001 A 
HETATM   15  H   UNL     1       6.579  35.746  65.161  1.00  0.00     0.166 HD
HETATM   16  C   UNL     1       6.572  34.100  63.824  1.00  0.00     0.018 A 
HETATM   17  C   UNL     1       7.435  33.183  64.615  1.00  0.00     0.069 C 
ENDBRANCH   6   7
ENDBRANCH   2   5
BRANCH   1  18
HETATM   18  C   UNL     1       6.664  30.121  58.079  1.00  0.00     0.033 A 
HETATM   19  C   UNL     1       7.790  29.296  58.171  1.00  0.00     0.019 A 
HETATM   20  C   UNL     1       7.782  28.022  57.586  1.00  0.00     0.030 A 
HETATM   21  C   UNL     1       6.654  27.554  56.910  1.00  0.00     0.034 A 
HETATM   22  C   UNL     1       5.530  28.385  56.817  1.00  0.00     0.030 A 
HETATM   23  C   UNL     1       5.531  29.655  57.403  1.00  0.00     0.019 A 
BRANCH  21  24
HETATM   24  N   UNL     1       6.557  26.278  56.319  1.00  0.00    -0.327 N 
HETATM   25  C   UNL     1       7.018  25.888  55.075  1.00  0.00     0.221 C 
HETATM   26  O   UNL     1       7.553  26.608  54.239  1.00  0.00    -0.273 OA
HETATM   27  H   UNL     1       6.127  25.562  56.891  1.00  0.00     0.169 HD
BRANCH  25  28
HETATM   28  C   UNL     1       6.766  24.418  54.773  1.00  0.00     0.098 C 
HETATM   29  C   UNL     1       7.508  23.477  55.707  1.00  0.00     0.014 C 
ENDBRANCH  25  28
ENDBRANCH  21  24
ENDBRANCH   1  18
TORSDOF 5
ENDMDL
MODEL 10
REMARK VINA RESULT:      -8.0      2.526      4.101
REMARK  5 active torsions:
REMARK  status: ('A' for Active; 'I' for Inactive)
REMARK    1  A    between atoms: C_2  and  C_3 
REMARK       I    between atoms: C_3  and  N_4 
REMARK    2  A    between atoms: N_4  and  C_5 
REMARK    3  A    between atoms: C_8  and  C_9 
REMARK       I    between atoms: C_9  and  N_10 
REMARK    4  A    between atoms: N_10  and  N_11 
REMARK    5  A    between atoms: C_12  and  C_13 
ROOT
HETATM    1  C   UNL     1       6.929  28.618  56.584  1.00  0.00     0.271 C 
HETATM    2  N   UNL     1       6.901  29.157  55.304  1.00  0.00    -0.243 N 
HETATM    3  O   UNL     1       6.810  27.430  56.867  1.00  0.00    -0.266 OA
HETATM    4  H   UNL     1       7.309  30.075  55.156  1.00  0.00     0.192 HD
ENDROOT
BRANCH   2   5
HETATM    5  N   UNL     1       6.713  28.458  54.137  1.00  0.00    -0.183 NA
HETATM    6  C   UNL     1       5.507  28.311  53.689  1.00  0.00     0.153 C 
BRANCH   6   7
HETATM    7  C   UNL     1       5.262  27.564  52.465  1.00  0.00     0.018 A 
HETATM    8  C   UNL     1       5.288  28.111  51.137  1.00  0.00     0.004 A 
HETATM    9  C   UNL     1       5.023  27.070  50.249  1.00  0.00     0.043 A 
HETATM   10  C   UNL     1       5.514  29.400  50.609  1.00  0.00     0.014 A 
HETATM   11  C   UNL     1       4.976  27.250  48.860  1.00  0.00     0.030 A 
HETATM   12  N   UNL     1       4.835  25.937  51.001  1.00  0.00    -0.358 N 
HETATM   13  C   UNL     1       5.207  28.535  48.364  1.00  0.00     0.002 A 
HETATM   14  C   UNL     1       5.470  29.598  49.223  1.00  0.00     0.001 A 
HETATM   15  H   UNL     1       4.623  25.028  50.615  1.00  0.00     0.166 HD
HETATM   16  C   UNL     1       4.975  26.210  52.340  1.00  0.00     0.018 A 
HETATM   17  C   UNL     1       4.825  25.141  53.361  1.00  0.00     0.069 C 
ENDBRANCH   6   7
ENDBRANCH   2   5
BRANCH   1  18
HETATM   18  C   UNL     1       7.156  29.596  57.687  1.00  0.00     0.033 A 
HETATM   19  C   UNL     1       6.285  30.663  57.930  1.00  0.00     0.019 A 
HETATM   20  C   UNL     1       6.510  31.527  59.011  1.00  0.00     0.030 A 
HETATM   21  C   UNL     1       7.599  31.334  59.864  1.00  0.00     0.034 A 
HETATM   22  C   UNL     1       8.470  30.266  59.615  1.00  0.00     0.030 A 
HETATM   23  C   UNL     1       8.247  29.399  58.540  1.00  0.00     0.019 A 
BRANCH  21  24
HETATM   24  N   UNL     1       7.878  32.140  60.986  1.00  0.00    -0.327 N 
HETATM   25  C   UNL     1       7.561  31.885  62.307  1.00  0.00     0.221 C 
HETATM   26  O   UNL     1       6.928  30.922  62.730  1.00  0.00    -0.273 OA
HETATM   27  H   UNL     1       8.398  32.987  60.798  1.00  0.00     0.169 HD
BRANCH  25  28
HETATM   28  C   UNL     1       8.043  32.965  63.263  1.00  0.00     0.098 C 
HETATM   29  C   UNL     1       7.201  33.074  64.523  1.00  0.00     0.014 C 
ENDBRANCH  25  28
ENDBRANCH  21  24
ENDBRANCH   1  18
TORSDOF 5
ENDMDL
