MODEL 1
REMARK VINA RESULT:     -10.9      0.000      0.000
REMARK  9 active torsions:
REMARK  status: ('A' for Active; 'I' for Inactive)
REMARK    1  A    between atoms: C_2  and  O_3 
REMARK    2  A    between atoms: O_3  and  C_4 
REMARK    3  A    between atoms: C_7  and  C_8 
REMARK    4  A    between atoms: C_9  and  C_10 
REMARK       I    between atoms: C_10  and  N_11 
REMARK    5  A    between atoms: N_11  and  C_12 
REMARK    6  A    between atoms: C_22  and  S_23 
REMARK    7  A    between atoms: S_23  and  C_24 
REMARK    8  A    between atoms: C_24  and  C_25 
REMARK       I    between atoms: C_25  and  N_26 
REMARK    9  A    between atoms: N_26  and  C_27 
ROOT
HETATM    1  C   UNL     1       7.429  26.824  54.875  1.00  0.00     0.106 C 
HETATM    2  C   UNL     1       6.487  25.881  55.605  1.00  0.00     0.046 C 
HETATM    3  C   UNL     1       5.775  26.299  56.676  1.00  0.00     0.019 C 
HETATM    4  C   UNL     1       4.896  25.417  57.526  1.00  0.00     0.069 C 
HETATM    5  N   UNL     1       5.880  27.620  57.081  1.00  0.00    -0.353 N 
HETATM    6  C   UNL     1       6.853  28.510  56.647  1.00  0.00     0.088 C 
HETATM    7  C   UNL     1       7.674  28.140  55.631  1.00  0.00     0.069 C 
HETATM    8  C   UNL     1       8.751  28.952  55.159  1.00  0.00     0.099 C 
HETATM    9  N   UNL     1       9.643  29.586  54.772  1.00  0.00    -0.192 NA
HETATM   10  H   UNL     1       5.297  27.919  57.855  1.00  0.00     0.166 HD
ENDROOT
BRANCH   1  11
HETATM   11  C   UNL     1       6.914  27.176  53.470  1.00  0.00    -0.044 A 
HETATM   12  C   UNL     1       6.988  26.243  52.419  1.00  0.00     0.011 A 
HETATM   13  C   UNL     1       6.317  26.467  51.216  1.00  0.00     0.037 A 
HETATM   14  C   UNL     1       5.553  27.621  51.053  1.00  0.00     0.068 A 
HETATM   15  C   UNL     1       5.546  28.594  52.051  1.00  0.00     0.037 A 
HETATM   16  C   UNL     1       6.216  28.372  53.258  1.00  0.00     0.011 A 
BRANCH  14  17
HETATM   17  O   UNL     1       4.783  27.879  49.951  1.00  0.00    -0.352 OA
BRANCH  17  18
HETATM   18  C   UNL     1       4.339  26.702  49.265  1.00  0.00     0.171 C 
HETATM   19  C   UNL     1       4.735  26.820  47.804  1.00  0.00     0.034 C 
ENDBRANCH  17  18
ENDBRANCH  14  17
ENDBRANCH   1  11
BRANCH   6  20
HETATM   20  S   UNL     1       6.949  30.148  57.267  1.00  0.00    -0.102 SA
BRANCH  20  21
HETATM   21  C   UNL     1       8.294  30.085  58.486  1.00  0.00     0.184 C 
BRANCH  21  22
HETATM   22  C   UNL     1       8.190  31.216  59.515  1.00  0.00     0.231 C 
HETATM   23  N   UNL     1       7.531  30.862  60.679  1.00  0.00    -0.327 N 
HETATM   24  H   UNL     1       7.093  29.946  60.662  1.00  0.00     0.169 HD
HETATM   25  O   UNL     1       8.747  32.290  59.300  1.00  0.00    -0.272 OA
BRANCH  23  26
HETATM   26  C   UNL     1       7.311  31.626  61.839  1.00  0.00     0.034 A 
HETATM   27  C   UNL     1       8.317  32.037  62.708  1.00  0.00     0.030 A 
HETATM   28  C   UNL     1       8.004  32.796  63.843  1.00  0.00     0.009 A 
HETATM   29  C   UNL     1       6.679  33.142  64.129  1.00  0.00    -0.062 A 
HETATM   30  C   UNL     1       6.343  33.980  65.327  1.00  0.00     0.048 C 
HETATM   31  C   UNL     1       5.671  32.739  63.250  1.00  0.00     0.009 A 
HETATM   32  C   UNL     1       5.985  31.986  62.116  1.00  0.00     0.030 A 
ENDBRANCH  23  26
ENDBRANCH  21  22
ENDBRANCH  20  21
ENDBRANCH   6  20
BRANCH   2  33
HETATM   33  C   UNL     1       6.494  24.472  55.125  1.00  0.00     0.255 C 
HETATM   34  N   UNL     1       7.596  23.766  55.557  1.00  0.00    -0.323 N 
HETATM   35  H   UNL     1       8.219  24.241  56.197  1.00  0.00     0.169 HD
HETATM   36  O   UNL     1       5.559  24.071  54.445  1.00  0.00    -0.268 OA
BRANCH  34  37
HETATM   37  C   UNL     1       7.971  22.457  55.192  1.00  0.00     0.035 A 
HETATM   38  C   UNL     1       8.125  21.406  56.097  1.00  0.00     0.029 A 
HETATM   39  C   UNL     1       8.469  20.127  55.647  1.00  0.00     0.002 A 
HETATM   40  C   UNL     1       8.659  19.888  54.289  1.00  0.00     0.000 A 
HETATM   41  C   UNL     1       8.510  20.928  53.377  1.00  0.00     0.002 A 
HETATM   42  C   UNL     1       8.170  22.207  53.826  1.00  0.00     0.029 A 
ENDBRANCH  34  37
ENDBRANCH   2  33
TORSDOF 9
ENDMDL
MODEL 2
REMARK VINA RESULT:     -10.6      3.613      9.164
REMARK  9 active torsions:
REMARK  status: ('A' for Active; 'I' for Inactive)
REMARK    1  A    between atoms: C_2  and  O_3 
REMARK    2  A    between atoms: O_3  and  C_4 
REMARK    3  A    between atoms: C_7  and  C_8 
REMARK    4  A    between atoms: C_9  and  C_10 
REMARK       I    between atoms: C_10  and  N_11 
REMARK    5  A    between atoms: N_11  and  C_12 
REMARK    6  A    between atoms: C_22  and  S_23 
REMARK    7  A    between atoms: S_23  and  C_24 
REMARK    8  A    between atoms: C_24  and  C_25 
REMARK       I    between atoms: C_25  and  N_26 
REMARK    9  A    between atoms: N_26  and  C_27 
ROOT
HETATM    1  C   UNL     1       5.582  27.008  55.320  1.00  0.00     0.106 C 
HETATM    2  C   UNL     1       5.610  25.787  54.415  1.00  0.00     0.046 C 
HETATM    3  C   UNL     1       5.048  25.819  53.186  1.00  0.00     0.019 C 
HETATM    4  C   UNL     1       4.933  24.636  52.259  1.00  0.00     0.069 C 
HETATM    5  N   UNL     1       4.478  26.999  52.736  1.00  0.00    -0.353 N 
HETATM    6  C   UNL     1       4.195  28.100  53.532  1.00  0.00     0.088 C 
HETATM    7  C   UNL     1       4.646  28.116  54.813  1.00  0.00     0.069 C 
HETATM    8  C   UNL     1       4.348  29.168  55.735  1.00  0.00     0.099 C 
HETATM    9  N   UNL     1       4.105  30.000  56.506  1.00  0.00    -0.192 NA
HETATM   10  H   UNL     1       4.110  27.009  51.791  1.00  0.00     0.166 HD
ENDROOT
BRANCH   1  11
HETATM   11  C   UNL     1       6.981  27.618  55.503  1.00  0.00    -0.044 A 
HETATM   12  C   UNL     1       7.692  28.138  54.404  1.00  0.00     0.011 A 
HETATM   13  C   UNL     1       8.848  28.896  54.595  1.00  0.00     0.037 A 
HETATM   14  C   UNL     1       9.301  29.156  55.887  1.00  0.00     0.068 A 
HETATM   15  C   UNL     1       8.659  28.572  56.977  1.00  0.00     0.037 A 
HETATM   16  C   UNL     1       7.500  27.812  56.790  1.00  0.00     0.011 A 
BRANCH  14  17
HETATM   17  O   UNL     1      10.364  29.969  56.175  1.00  0.00    -0.352 OA
BRANCH  17  18
HETATM   18  C   UNL     1      10.706  30.007  57.566  1.00  0.00     0.171 C 
HETATM   19  C   UNL     1      10.373  31.387  58.104  1.00  0.00     0.034 C 
ENDBRANCH  17  18
ENDBRANCH  14  17
ENDBRANCH   1  11
BRANCH   6  20
HETATM   20  S   UNL     1       3.409  29.529  52.887  1.00  0.00    -0.102 SA
BRANCH  20  21
HETATM   21  C   UNL     1       4.505  30.073  51.544  1.00  0.00     0.184 C 
BRANCH  21  22
HETATM   22  C   UNL     1       4.044  29.550  50.180  1.00  0.00     0.231 C 
HETATM   23  N   UNL     1       2.674  29.393  50.069  1.00  0.00    -0.327 N 
HETATM   24  H   UNL     1       2.156  29.523  50.933  1.00  0.00     0.169 HD
HETATM   25  O   UNL     1       4.864  29.395  49.277  1.00  0.00    -0.272 OA
BRANCH  23  26
HETATM   26  C   UNL     1       1.916  28.994  48.954  1.00  0.00     0.034 A 
HETATM   27  C   UNL     1       1.280  29.875  48.084  1.00  0.00     0.030 A 
HETATM   28  C   UNL     1       0.544  29.387  46.996  1.00  0.00     0.009 A 
HETATM   29  C   UNL     1       0.424  28.010  46.774  1.00  0.00    -0.062 A 
HETATM   30  C   UNL     1      -0.338  27.485  45.594  1.00  0.00     0.048 C 
HETATM   31  C   UNL     1       1.073  27.128  47.640  1.00  0.00     0.009 A 
HETATM   32  C   UNL     1       1.811  27.616  48.721  1.00  0.00     0.030 A 
ENDBRANCH  23  26
ENDBRANCH  21  22
ENDBRANCH  20  21
ENDBRANCH   6  20
BRANCH   2  33
HETATM   33  C   UNL     1       6.193  24.558  55.018  1.00  0.00     0.255 C 
HETATM   34  N   UNL     1       6.996  23.861  54.141  1.00  0.00    -0.323 N 
HETATM   35  H   UNL     1       7.161  24.287  53.238  1.00  0.00     0.169 HD
HETATM   36  O   UNL     1       5.946  24.294  56.187  1.00  0.00    -0.268 OA
BRANCH  34  37
HETATM   37  C   UNL     1       7.602  22.604  54.348  1.00  0.00     0.035 A 
HETATM   38  C   UNL     1       7.954  22.104  55.602  1.00  0.00     0.029 A 
HETATM   39  C   UNL     1       8.523  20.832  55.723  1.00  0.00     0.002 A 
HETATM   40  C   UNL     1       8.741  20.049  54.592  1.00  0.00     0.000 A 
HETATM   41  C   UNL     1       8.395  20.539  53.337  1.00  0.00     0.002 A 
HETATM   42  C   UNL     1       7.831  21.812  53.214  1.00  0.00     0.029 A 
ENDBRANCH  34  37
ENDBRANCH   2  33
TORSDOF 9
ENDMDL
MODEL 3
REMARK VINA RESULT:     -10.4      3.718      9.395
REMARK  9 active torsions:
REMARK  status: ('A' for Active; 'I' for Inactive)
REMARK    1  A    between atoms: C_2  and  O_3 
REMARK    2  A    between atoms: O_3  and  C_4 
REMARK    3  A    between atoms: C_7  and  C_8 
REMARK    4  A    between atoms: C_9  and  C_10 
REMARK       I    between atoms: C_10  and  N_11 
REMARK    5  A    between atoms: N_11  and  C_12 
REMARK    6  A    between atoms: C_22  and  S_23 
REMARK    7  A    between atoms: S_23  and  C_24 
REMARK    8  A    between atoms: C_24  and  C_25 
REMARK       I    between atoms: C_25  and  N_26 
REMARK    9  A    between atoms: N_26  and  C_27 
ROOT
HETATM    1  C   UNL     1       4.874  27.651  54.487  1.00  0.00     0.106 C 
HETATM    2  C   UNL     1       5.110  26.843  53.221  1.00  0.00     0.046 C 
HETATM    3  C   UNL     1       5.050  27.426  52.003  1.00  0.00     0.019 C 
HETATM    4  C   UNL     1       5.167  26.694  50.690  1.00  0.00     0.069 C 
HETATM    5  N   UNL     1       4.814  28.789  51.917  1.00  0.00    -0.353 N 
HETATM    6  C   UNL     1       4.370  29.585  52.964  1.00  0.00     0.088 C 
HETATM    7  C   UNL     1       4.313  29.055  54.213  1.00  0.00     0.069 C 
HETATM    8  C   UNL     1       3.805  29.768  55.343  1.00  0.00     0.099 C 
HETATM    9  N   UNL     1       3.379  30.320  56.271  1.00  0.00    -0.192 NA
HETATM   10  H   UNL     1       4.825  29.208  50.994  1.00  0.00     0.166 HD
ENDROOT
BRANCH   1  11
HETATM   11  C   UNL     1       6.161  27.810  55.313  1.00  0.00    -0.044 A 
HETATM   12  C   UNL     1       7.296  28.442  54.770  1.00  0.00     0.011 A 
HETATM   13  C   UNL     1       8.374  28.795  55.583  1.00  0.00     0.037 A 
HETATM   14  C   UNL     1       8.327  28.532  56.951  1.00  0.00     0.068 A 
HETATM   15  C   UNL     1       7.250  27.826  57.483  1.00  0.00     0.037 A 
HETATM   16  C   UNL     1       6.168  27.471  56.673  1.00  0.00     0.011 A 
BRANCH  14  17
HETATM   17  O   UNL     1       9.290  28.930  57.839  1.00  0.00    -0.352 OA
BRANCH  17  18
HETATM   18  C   UNL     1      10.314  29.745  57.258  1.00  0.00     0.171 C 
HETATM   19  C   UNL     1      10.329  31.081  57.979  1.00  0.00     0.034 C 
ENDBRANCH  17  18
ENDBRANCH  14  17
ENDBRANCH   1  11
BRANCH   6  20
HETATM   20  S   UNL     1       4.032  31.292  52.746  1.00  0.00    -0.102 SA
BRANCH  20  21
HETATM   21  C   UNL     1       4.176  31.551  50.953  1.00  0.00     0.184 C 
BRANCH  21  22
HETATM   22  C   UNL     1       2.947  31.035  50.198  1.00  0.00     0.231 C 
HETATM   23  N   UNL     1       3.231  30.070  49.248  1.00  0.00    -0.327 N 
HETATM   24  H   UNL     1       4.220  29.912  49.081  1.00  0.00     0.169 HD
HETATM   25  O   UNL     1       1.825  31.419  50.524  1.00  0.00    -0.272 OA
BRANCH  23  26
HETATM   26  C   UNL     1       2.346  29.350  48.426  1.00  0.00     0.034 A 
HETATM   27  C   UNL     1       1.950  28.037  48.664  1.00  0.00     0.030 A 
HETATM   28  C   UNL     1       1.063  27.396  47.789  1.00  0.00     0.009 A 
HETATM   29  C   UNL     1       0.573  28.057  46.657  1.00  0.00    -0.062 A 
HETATM   30  C   UNL     1      -0.399  27.385  45.734  1.00  0.00     0.048 C 
HETATM   31  C   UNL     1       0.962  29.378  46.426  1.00  0.00     0.009 A 
HETATM   32  C   UNL     1       1.843  30.018  47.302  1.00  0.00     0.030 A 
ENDBRANCH  23  26
ENDBRANCH  21  22
ENDBRANCH  20  21
ENDBRANCH   6  20
BRANCH   2  33
HETATM   33  C   UNL     1       5.297  25.381  53.422  1.00  0.00     0.255 C 
HETATM   34  N   UNL     1       6.586  25.052  53.783  1.00  0.00    -0.323 N 
HETATM   35  H   UNL     1       7.224  25.820  53.944  1.00  0.00     0.169 HD
HETATM   36  O   UNL     1       4.338  24.634  53.283  1.00  0.00    -0.268 OA
BRANCH  34  37
HETATM   37  C   UNL     1       7.130  23.759  53.933  1.00  0.00     0.035 A 
HETATM   38  C   UNL     1       7.662  23.009  52.884  1.00  0.00     0.029 A 
HETATM   39  C   UNL     1       8.211  21.745  53.124  1.00  0.00     0.002 A 
HETATM   40  C   UNL     1       8.234  21.222  54.415  1.00  0.00     0.000 A 
HETATM   41  C   UNL     1       7.705  21.961  55.468  1.00  0.00     0.002 A 
HETATM   42  C   UNL     1       7.152  23.222  55.229  1.00  0.00     0.029 A 
ENDBRANCH  34  37
ENDBRANCH   2  33
TORSDOF 9
ENDMDL
MODEL 4
REMARK VINA RESULT:     -10.3      2.106      5.551
REMARK  9 active torsions:
REMARK  status: ('A' for Active; 'I' for Inactive)
REMARK    1  A    between atoms: C_2  and  O_3 
REMARK    2  A    between atoms: O_3  and  C_4 
REMARK    3  A    between atoms: C_7  and  C_8 
REMARK    4  A    between atoms: C_9  and  C_10 
REMARK       I    between atoms: C_10  and  N_11 
REMARK    5  A    between atoms: N_11  and  C_12 
REMARK    6  A    between atoms: C_22  and  S_23 
REMARK    7  A    between atoms: S_23  and  C_24 
REMARK    8  A    between atoms: C_24  and  C_25 
REMARK       I    between atoms: C_25  and  N_26 
REMARK    9  A    between atoms: N_26  and  C_27 
ROOT
HETATM    1  C   UNL     1       4.505  27.440  54.066  1.00  0.00     0.106 C 
HETATM    2  C   UNL     1       4.293  28.605  53.113  1.00  0.00     0.046 C 
HETATM    3  C   UNL     1       4.758  29.839  53.408  1.00  0.00     0.019 C 
HETATM    4  C   UNL     1       4.511  31.075  52.581  1.00  0.00     0.069 C 
HETATM    5  N   UNL     1       5.476  30.027  54.579  1.00  0.00    -0.353 N 
HETATM    6  C   UNL     1       5.548  29.115  55.622  1.00  0.00     0.088 C 
HETATM    7  C   UNL     1       5.025  27.873  55.445  1.00  0.00     0.069 C 
HETATM    8  C   UNL     1       4.985  26.886  56.479  1.00  0.00     0.099 C 
HETATM    9  N   UNL     1       4.924  26.076  57.307  1.00  0.00    -0.192 NA
HETATM   10  H   UNL     1       5.857  30.951  54.750  1.00  0.00     0.166 HD
ENDROOT
BRANCH   1  11
HETATM   11  C   UNL     1       5.486  26.404  53.495  1.00  0.00    -0.044 A 
HETATM   12  C   UNL     1       6.845  26.722  53.306  1.00  0.00     0.011 A 
HETATM   13  C   UNL     1       7.777  25.726  53.013  1.00  0.00     0.037 A 
HETATM   14  C   UNL     1       7.367  24.397  52.918  1.00  0.00     0.068 A 
HETATM   15  C   UNL     1       6.012  24.083  53.012  1.00  0.00     0.037 A 
HETATM   16  C   UNL     1       5.075  25.077  53.306  1.00  0.00     0.011 A 
BRANCH  14  17
HETATM   17  O   UNL     1       8.222  23.344  52.733  1.00  0.00    -0.352 OA
BRANCH  17  18
HETATM   18  C   UNL     1       7.924  22.205  53.548  1.00  0.00     0.171 C 
HETATM   19  C   UNL     1       8.357  20.956  52.802  1.00  0.00     0.034 C 
ENDBRANCH  17  18
ENDBRANCH  14  17
ENDBRANCH   1  11
BRANCH   6  20
HETATM   20  S   UNL     1       6.427  29.467  57.098  1.00  0.00    -0.102 SA
BRANCH  20  21
HETATM   21  C   UNL     1       5.666  30.996  57.717  1.00  0.00     0.184 C 
BRANCH  21  22
HETATM   22  C   UNL     1       6.494  31.638  58.835  1.00  0.00     0.231 C 
HETATM   23  N   UNL     1       5.821  31.758  60.038  1.00  0.00    -0.327 N 
HETATM   24  H   UNL     1       4.833  31.524  60.003  1.00  0.00     0.169 HD
HETATM   25  O   UNL     1       7.676  31.911  58.639  1.00  0.00    -0.272 OA
BRANCH  23  26
HETATM   26  C   UNL     1       6.293  32.241  61.271  1.00  0.00     0.034 A 
HETATM   27  C   UNL     1       7.318  31.648  62.004  1.00  0.00     0.030 A 
HETATM   28  C   UNL     1       7.723  32.199  63.227  1.00  0.00     0.009 A 
HETATM   29  C   UNL     1       7.098  33.342  63.738  1.00  0.00    -0.062 A 
HETATM   30  C   UNL     1       7.549  33.951  65.032  1.00  0.00     0.048 C 
HETATM   31  C   UNL     1       6.078  33.943  62.996  1.00  0.00     0.009 A 
HETATM   32  C   UNL     1       5.678  33.395  61.775  1.00  0.00     0.030 A 
ENDBRANCH  23  26
ENDBRANCH  21  22
ENDBRANCH  20  21
ENDBRANCH   6  20
BRANCH   2  33
HETATM   33  C   UNL     1       3.461  28.307  51.915  1.00  0.00     0.255 C 
HETATM   34  N   UNL     1       4.191  27.768  50.878  1.00  0.00    -0.323 N 
HETATM   35  H   UNL     1       5.164  27.566  51.063  1.00  0.00     0.169 HD
HETATM   36  O   UNL     1       2.258  28.530  51.956  1.00  0.00    -0.268 OA
BRANCH  34  37
HETATM   37  C   UNL     1       3.741  27.484  49.572  1.00  0.00     0.035 A 
HETATM   38  C   UNL     1       3.207  28.438  48.704  1.00  0.00     0.029 A 
HETATM   39  C   UNL     1       2.813  28.079  47.412  1.00  0.00     0.002 A 
HETATM   40  C   UNL     1       2.952  26.764  46.974  1.00  0.00     0.000 A 
HETATM   41  C   UNL     1       3.482  25.804  47.831  1.00  0.00     0.002 A 
HETATM   42  C   UNL     1       3.872  26.161  49.125  1.00  0.00     0.029 A 
ENDBRANCH  34  37
ENDBRANCH   2  33
TORSDOF 9
ENDMDL
MODEL 5
REMARK VINA RESULT:     -10.2      3.415     10.507
REMARK  9 active torsions:
REMARK  status: ('A' for Active; 'I' for Inactive)
REMARK    1  A    between atoms: C_2  and  O_3 
REMARK    2  A    between atoms: O_3  and  C_4 
REMARK    3  A    between atoms: C_7  and  C_8 
REMARK    4  A    between atoms: C_9  and  C_10 
REMARK       I    between atoms: C_10  and  N_11 
REMARK    5  A    between atoms: N_11  and  C_12 
REMARK    6  A    between atoms: C_22  and  S_23 
REMARK    7  A    between atoms: S_23  and  C_24 
REMARK    8  A    between atoms: C_24  and  C_25 
REMARK       I    between atoms: C_25  and  N_26 
REMARK    9  A    between atoms: N_26  and  C_27 
ROOT
HETATM    1  C   UNL     1       5.437  31.476  58.238  1.00  0.00     0.106 C 
HETATM    2  C   UNL     1       6.900  31.271  58.593  1.00  0.00     0.046 C 
HETATM    3  C   UNL     1       7.681  30.436  57.873  1.00  0.00     0.019 C 
HETATM    4  C   UNL     1       9.110  30.089  58.205  1.00  0.00     0.069 C 
HETATM    5  N   UNL     1       7.143  29.793  56.769  1.00  0.00    -0.353 N 
HETATM    6  C   UNL     1       5.789  29.722  56.473  1.00  0.00     0.088 C 
HETATM    7  C   UNL     1       4.917  30.463  57.206  1.00  0.00     0.069 C 
HETATM    8  C   UNL     1       3.500  30.406  57.028  1.00  0.00     0.099 C 
HETATM    9  N   UNL     1       2.346  30.363  56.915  1.00  0.00    -0.192 NA
HETATM   10  H   UNL     1       7.765  29.213  56.217  1.00  0.00     0.166 HD
ENDROOT
BRANCH   1  11
HETATM   11  C   UNL     1       5.171  32.887  57.690  1.00  0.00    -0.044 A 
HETATM   12  C   UNL     1       5.262  33.156  56.311  1.00  0.00     0.011 A 
HETATM   13  C   UNL     1       4.799  34.363  55.786  1.00  0.00     0.037 A 
HETATM   14  C   UNL     1       4.228  35.313  56.631  1.00  0.00     0.068 A 
HETATM   15  C   UNL     1       4.216  35.097  58.008  1.00  0.00     0.037 A 
HETATM   16  C   UNL     1       4.678  33.889  58.537  1.00  0.00     0.011 A 
BRANCH  14  17
HETATM   17  O   UNL     1       3.658  36.479  56.196  1.00  0.00    -0.352 OA
BRANCH  17  18
HETATM   18  C   UNL     1       4.155  37.649  56.855  1.00  0.00     0.171 C 
HETATM   19  C   UNL     1       5.476  38.037  56.214  1.00  0.00     0.034 C 
ENDBRANCH  17  18
ENDBRANCH  14  17
ENDBRANCH   1  11
BRANCH   6  20
HETATM   20  S   UNL     1       5.192  28.828  55.088  1.00  0.00    -0.102 SA
BRANCH  20  21
HETATM   21  C   UNL     1       6.696  28.243  54.252  1.00  0.00     0.184 C 
BRANCH  21  22
HETATM   22  C   UNL     1       7.149  26.877  54.777  1.00  0.00     0.231 C 
HETATM   23  N   UNL     1       6.900  25.828  53.908  1.00  0.00    -0.327 N 
HETATM   24  H   UNL     1       6.343  26.068  53.094  1.00  0.00     0.169 HD
HETATM   25  O   UNL     1       7.760  26.803  55.841  1.00  0.00    -0.272 OA
BRANCH  23  26
HETATM   26  C   UNL     1       7.235  24.469  54.044  1.00  0.00     0.034 A 
HETATM   27  C   UNL     1       7.157  23.758  55.238  1.00  0.00     0.030 A 
HETATM   28  C   UNL     1       7.512  22.404  55.279  1.00  0.00     0.009 A 
HETATM   29  C   UNL     1       7.963  21.747  54.129  1.00  0.00    -0.062 A 
HETATM   30  C   UNL     1       8.317  20.290  54.163  1.00  0.00     0.048 C 
HETATM   31  C   UNL     1       8.030  22.458  52.929  1.00  0.00     0.009 A 
HETATM   32  C   UNL     1       7.670  23.808  52.888  1.00  0.00     0.030 A 
ENDBRANCH  23  26
ENDBRANCH  21  22
ENDBRANCH  20  21
ENDBRANCH   6  20
BRANCH   2  33
HETATM   33  C   UNL     1       7.360  31.962  59.829  1.00  0.00     0.255 C 
HETATM   34  N   UNL     1       6.619  31.621  60.940  1.00  0.00    -0.323 N 
HETATM   35  H   UNL     1       5.917  30.904  60.816  1.00  0.00     0.169 HD
HETATM   36  O   UNL     1       8.323  32.715  59.765  1.00  0.00    -0.268 OA
BRANCH  34  37
HETATM   37  C   UNL     1       6.710  32.177  62.233  1.00  0.00     0.035 A 
HETATM   38  C   UNL     1       7.914  32.437  62.888  1.00  0.00     0.029 A 
HETATM   39  C   UNL     1       7.917  33.019  64.160  1.00  0.00     0.002 A 
HETATM   40  C   UNL     1       6.717  33.349  64.785  1.00  0.00     0.000 A 
HETATM   41  C   UNL     1       5.511  33.092  64.142  1.00  0.00     0.002 A 
HETATM   42  C   UNL     1       5.506  32.506  62.873  1.00  0.00     0.029 A 
ENDBRANCH  34  37
ENDBRANCH   2  33
TORSDOF 9
ENDMDL
MODEL 6
REMARK VINA RESULT:     -10.1      2.889     11.637
REMARK  9 active torsions:
REMARK  status: ('A' for Active; 'I' for Inactive)
REMARK    1  A    between atoms: C_2  and  O_3 
REMARK    2  A    between atoms: O_3  and  C_4 
REMARK    3  A    between atoms: C_7  and  C_8 
REMARK    4  A    between atoms: C_9  and  C_10 
REMARK       I    between atoms: C_10  and  N_11 
REMARK    5  A    between atoms: N_11  and  C_12 
REMARK    6  A    between atoms: C_22  and  S_23 
REMARK    7  A    between atoms: S_23  and  C_24 
REMARK    8  A    between atoms: C_24  and  C_25 
REMARK       I    between atoms: C_25  and  N_26 
REMARK    9  A    between atoms: N_26  and  C_27 
ROOT
HETATM    1  C   UNL     1       7.178  31.581  58.479  1.00  0.00     0.106 C 
HETATM    2  C   UNL     1       5.689  31.788  58.253  1.00  0.00     0.046 C 
HETATM    3  C   UNL     1       4.891  30.760  57.888  1.00  0.00     0.019 C 
HETATM    4  C   UNL     1       3.429  30.883  57.542  1.00  0.00     0.069 C 
HETATM    5  N   UNL     1       5.438  29.493  57.760  1.00  0.00    -0.353 N 
HETATM    6  C   UNL     1       6.798  29.215  57.722  1.00  0.00     0.088 C 
HETATM    7  C   UNL     1       7.679  30.213  57.991  1.00  0.00     0.069 C 
HETATM    8  C   UNL     1       9.097  30.048  57.908  1.00  0.00     0.099 C 
HETATM    9  N   UNL     1      10.250  29.944  57.829  1.00  0.00    -0.192 NA
HETATM   10  H   UNL     1       4.808  28.732  57.535  1.00  0.00     0.166 HD
ENDROOT
BRANCH   1  11
HETATM   11  C   UNL     1       7.558  31.722  59.961  1.00  0.00    -0.044 A 
HETATM   12  C   UNL     1       8.732  32.399  60.345  1.00  0.00     0.011 A 
HETATM   13  C   UNL     1       8.960  32.730  61.681  1.00  0.00     0.037 A 
HETATM   14  C   UNL     1       8.013  32.402  62.650  1.00  0.00     0.068 A 
HETATM   15  C   UNL     1       6.893  31.652  62.295  1.00  0.00     0.037 A 
HETATM   16  C   UNL     1       6.660  31.318  60.958  1.00  0.00     0.011 A 
BRANCH  14  17
HETATM   17  O   UNL     1       8.103  32.772  63.964  1.00  0.00    -0.352 OA
BRANCH  17  18
HETATM   18  C   UNL     1       6.853  33.159  64.546  1.00  0.00     0.171 C 
HETATM   19  C   UNL     1       6.570  34.600  64.162  1.00  0.00     0.034 C 
ENDBRANCH  17  18
ENDBRANCH  14  17
ENDBRANCH   1  11
BRANCH   6  20
HETATM   20  S   UNL     1       7.400  27.585  57.490  1.00  0.00    -0.102 SA
BRANCH  20  21
HETATM   21  C   UNL     1       5.907  26.595  57.188  1.00  0.00     0.184 C 
BRANCH  21  22
HETATM   22  C   UNL     1       6.062  25.679  55.970  1.00  0.00     0.231 C 
HETATM   23  N   UNL     1       7.064  24.734  56.099  1.00  0.00    -0.327 N 
HETATM   24  H   UNL     1       7.650  24.839  56.921  1.00  0.00     0.169 HD
HETATM   25  O   UNL     1       5.270  25.768  55.035  1.00  0.00    -0.272 OA
BRANCH  23  26
HETATM   26  C   UNL     1       7.435  23.710  55.209  1.00  0.00     0.034 A 
HETATM   27  C   UNL     1       7.746  23.913  53.867  1.00  0.00     0.030 A 
HETATM   28  C   UNL     1       8.105  22.831  53.053  1.00  0.00     0.009 A 
HETATM   29  C   UNL     1       8.143  21.530  53.568  1.00  0.00    -0.062 A 
HETATM   30  C   UNL     1       8.554  20.374  52.706  1.00  0.00     0.048 C 
HETATM   31  C   UNL     1       7.842  21.329  54.916  1.00  0.00     0.009 A 
HETATM   32  C   UNL     1       7.489  22.410  55.729  1.00  0.00     0.030 A 
ENDBRANCH  23  26
ENDBRANCH  21  22
ENDBRANCH  20  21
ENDBRANCH   6  20
BRANCH   2  33
HETATM   33  C   UNL     1       5.216  33.195  58.359  1.00  0.00     0.255 C 
HETATM   34  N   UNL     1       4.679  33.487  59.595  1.00  0.00    -0.323 N 
HETATM   35  H   UNL     1       4.733  32.762  60.298  1.00  0.00     0.169 HD
HETATM   36  O   UNL     1       5.359  33.944  57.402  1.00  0.00    -0.268 OA
BRANCH  34  37
HETATM   37  C   UNL     1       4.037  34.679  59.989  1.00  0.00     0.035 A 
HETATM   38  C   UNL     1       2.878  35.177  59.391  1.00  0.00     0.029 A 
HETATM   39  C   UNL     1       2.286  36.352  59.863  1.00  0.00     0.002 A 
HETATM   40  C   UNL     1       2.845  37.038  60.939  1.00  0.00     0.000 A 
HETATM   41  C   UNL     1       4.001  36.552  61.541  1.00  0.00     0.002 A 
HETATM   42  C   UNL     1       4.596  35.380  61.067  1.00  0.00     0.029 A 
ENDBRANCH  34  37
ENDBRANCH   2  33
TORSDOF 9
ENDMDL
MODEL 7
REMARK VINA RESULT:     -10.1      4.151      8.821
REMARK  9 active torsions:
REMARK  status: ('A' for Active; 'I' for Inactive)
REMARK    1  A    between atoms: C_2  and  O_3 
REMARK    2  A    between atoms: O_3  and  C_4 
REMARK    3  A    between atoms: C_7  and  C_8 
REMARK    4  A    between atoms: C_9  and  C_10 
REMARK       I    between atoms: C_10  and  N_11 
REMARK    5  A    between atoms: N_11  and  C_12 
REMARK    6  A    between atoms: C_22  and  S_23 
REMARK    7  A    between atoms: S_23  and  C_24 
REMARK    8  A    between atoms: C_24  and  C_25 
REMARK       I    between atoms: C_25  and  N_26 
REMARK    9  A    between atoms: N_26  and  C_27 
ROOT
HETATM    1  C   UNL     1       4.950  27.575  54.447  1.00  0.00     0.106 C 
HETATM    2  C   UNL     1       5.188  26.725  53.210  1.00  0.00     0.046 C 
HETATM    3  C   UNL     1       5.143  27.268  51.973  1.00  0.00     0.019 C 
HETATM    4  C   UNL     1       5.262  26.494  50.685  1.00  0.00     0.069 C 
HETATM    5  N   UNL     1       4.918  28.630  51.842  1.00  0.00    -0.353 N 
HETATM    6  C   UNL     1       4.475  29.463  52.859  1.00  0.00     0.088 C 
HETATM    7  C   UNL     1       4.404  28.975  54.124  1.00  0.00     0.069 C 
HETATM    8  C   UNL     1       3.894  29.728  55.227  1.00  0.00     0.099 C 
HETATM    9  N   UNL     1       3.467  30.313  56.133  1.00  0.00    -0.192 NA
HETATM   10  H   UNL     1       4.941  29.019  50.906  1.00  0.00     0.166 HD
ENDROOT
BRANCH   1  11
HETATM   11  C   UNL     1       6.232  27.749  55.278  1.00  0.00    -0.044 A 
HETATM   12  C   UNL     1       7.364  28.386  54.735  1.00  0.00     0.011 A 
HETATM   13  C   UNL     1       8.437  28.753  55.550  1.00  0.00     0.037 A 
HETATM   14  C   UNL     1       8.386  28.499  56.919  1.00  0.00     0.068 A 
HETATM   15  C   UNL     1       7.312  27.788  57.452  1.00  0.00     0.037 A 
HETATM   16  C   UNL     1       6.236  27.420  56.640  1.00  0.00     0.011 A 
BRANCH  14  17
HETATM   17  O   UNL     1       9.342  28.910  57.809  1.00  0.00    -0.352 OA
BRANCH  17  18
HETATM   18  C   UNL     1      10.249  29.883  57.278  1.00  0.00     0.171 C 
HETATM   19  C   UNL     1      10.170  31.131  58.139  1.00  0.00     0.034 C 
ENDBRANCH  17  18
ENDBRANCH  14  17
ENDBRANCH   1  11
BRANCH   6  20
HETATM   20  S   UNL     1       4.154  31.165  52.584  1.00  0.00    -0.102 SA
BRANCH  20  21
HETATM   21  C   UNL     1       3.843  31.278  50.797  1.00  0.00     0.184 C 
BRANCH  21  22
HETATM   22  C   UNL     1       5.087  31.730  50.025  1.00  0.00     0.231 C 
HETATM   23  N   UNL     1       4.889  32.858  49.248  1.00  0.00    -0.327 N 
HETATM   24  H   UNL     1       3.926  33.173  49.186  1.00  0.00     0.169 HD
HETATM   25  O   UNL     1       6.158  31.154  50.201  1.00  0.00    -0.272 OA
BRANCH  23  26
HETATM   26  C   UNL     1       5.818  33.569  48.468  1.00  0.00     0.034 A 
HETATM   27  C   UNL     1       6.672  34.550  48.966  1.00  0.00     0.030 A 
HETATM   28  C   UNL     1       7.566  35.208  48.112  1.00  0.00     0.009 A 
HETATM   29  C   UNL     1       7.609  34.903  46.747  1.00  0.00    -0.062 A 
HETATM   30  C   UNL     1       8.586  35.584  45.837  1.00  0.00     0.048 C 
HETATM   31  C   UNL     1       6.761  33.910  46.251  1.00  0.00     0.009 A 
HETATM   32  C   UNL     1       5.873  33.250  47.105  1.00  0.00     0.030 A 
ENDBRANCH  23  26
ENDBRANCH  21  22
ENDBRANCH  20  21
ENDBRANCH   6  20
BRANCH   2  33
HETATM   33  C   UNL     1       5.361  25.268  53.459  1.00  0.00     0.255 C 
HETATM   34  N   UNL     1       6.665  24.926  53.748  1.00  0.00    -0.323 N 
HETATM   35  H   UNL     1       7.326  25.686  53.834  1.00  0.00     0.169 HD
HETATM   36  O   UNL     1       4.381  24.537  53.416  1.00  0.00    -0.268 OA
BRANCH  34  37
HETATM   37  C   UNL     1       7.192  23.629  53.916  1.00  0.00     0.035 A 
HETATM   38  C   UNL     1       7.679  22.842  52.871  1.00  0.00     0.029 A 
HETATM   39  C   UNL     1       8.215  21.576  53.128  1.00  0.00     0.002 A 
HETATM   40  C   UNL     1       8.272  21.088  54.431  1.00  0.00     0.000 A 
HETATM   41  C   UNL     1       7.789  21.864  55.480  1.00  0.00     0.002 A 
HETATM   42  C   UNL     1       7.248  23.127  55.224  1.00  0.00     0.029 A 
ENDBRANCH  34  37
ENDBRANCH   2  33
TORSDOF 9
ENDMDL
MODEL 8
REMARK VINA RESULT:      -9.6      3.824      9.503
REMARK  9 active torsions:
REMARK  status: ('A' for Active; 'I' for Inactive)
REMARK    1  A    between atoms: C_2  and  O_3 
REMARK    2  A    between atoms: O_3  and  C_4 
REMARK    3  A    between atoms: C_7  and  C_8 
REMARK    4  A    between atoms: C_9  and  C_10 
REMARK       I    between atoms: C_10  and  N_11 
REMARK    5  A    between atoms: N_11  and  C_12 
REMARK    6  A    between atoms: C_22  and  S_23 
REMARK    7  A    between atoms: S_23  and  C_24 
REMARK    8  A    between atoms: C_24  and  C_25 
REMARK       I    between atoms: C_25  and  N_26 
REMARK    9  A    between atoms: N_26  and  C_27 
ROOT
HETATM    1  C   UNL     1       4.914  27.552  54.244  1.00  0.00     0.106 C 
HETATM    2  C   UNL     1       5.188  26.681  53.029  1.00  0.00     0.046 C 
HETATM    3  C   UNL     1       5.192  27.204  51.783  1.00  0.00     0.019 C 
HETATM    4  C   UNL     1       5.350  26.409  50.513  1.00  0.00     0.069 C 
HETATM    5  N   UNL     1       4.984  28.566  51.623  1.00  0.00    -0.353 N 
HETATM    6  C   UNL     1       4.511  29.419  52.611  1.00  0.00     0.088 C 
HETATM    7  C   UNL     1       4.391  28.951  53.880  1.00  0.00     0.069 C 
HETATM    8  C   UNL     1       3.849  29.725  54.952  1.00  0.00     0.099 C 
HETATM    9  N   UNL     1       3.394  30.328  55.833  1.00  0.00    -0.192 NA
HETATM   10  H   UNL     1       5.043  28.940  50.682  1.00  0.00     0.166 HD
ENDROOT
BRANCH   1  11
HETATM   11  C   UNL     1       6.167  27.730  55.117  1.00  0.00    -0.044 A 
HETATM   12  C   UNL     1       7.298  28.412  54.629  1.00  0.00     0.011 A 
HETATM   13  C   UNL     1       8.337  28.777  55.486  1.00  0.00     0.037 A 
HETATM   14  C   UNL     1       8.254  28.476  56.844  1.00  0.00     0.068 A 
HETATM   15  C   UNL     1       7.184  27.722  57.322  1.00  0.00     0.037 A 
HETATM   16  C   UNL     1       6.141  27.355  56.467  1.00  0.00     0.011 A 
BRANCH  14  17
HETATM   17  O   UNL     1       9.173  28.880  57.774  1.00  0.00    -0.352 OA
BRANCH  17  18
HETATM   18  C   UNL     1       9.789  30.138  57.474  1.00  0.00     0.171 C 
HETATM   19  C   UNL     1      11.277  29.910  57.282  1.00  0.00     0.034 C 
ENDBRANCH  17  18
ENDBRANCH  14  17
ENDBRANCH   1  11
BRANCH   6  20
HETATM   20  S   UNL     1       4.214  31.119  52.297  1.00  0.00    -0.102 SA
BRANCH  20  21
HETATM   21  C   UNL     1       2.681  31.132  51.323  1.00  0.00     0.184 C 
BRANCH  21  22
HETATM   22  C   UNL     1       2.923  30.725  49.866  1.00  0.00     0.231 C 
HETATM   23  N   UNL     1       3.170  31.790  49.017  1.00  0.00    -0.327 N 
HETATM   24  H   UNL     1       3.041  32.708  49.431  1.00  0.00     0.169 HD
HETATM   25  O   UNL     1       2.973  29.535  49.564  1.00  0.00    -0.272 OA
BRANCH  23  26
HETATM   26  C   UNL     1       3.487  31.773  47.647  1.00  0.00     0.034 A 
HETATM   27  C   UNL     1       4.781  31.859  47.141  1.00  0.00     0.030 A 
HETATM   28  C   UNL     1       5.003  31.836  45.758  1.00  0.00     0.009 A 
HETATM   29  C   UNL     1       3.931  31.742  44.864  1.00  0.00    -0.062 A 
HETATM   30  C   UNL     1       4.167  31.687  43.384  1.00  0.00     0.048 C 
HETATM   31  C   UNL     1       2.634  31.644  45.372  1.00  0.00     0.009 A 
HETATM   32  C   UNL     1       2.415  31.662  46.752  1.00  0.00     0.030 A 
ENDBRANCH  23  26
ENDBRANCH  21  22
ENDBRANCH  20  21
ENDBRANCH   6  20
BRANCH   2  33
HETATM   33  C   UNL     1       5.340  25.227  53.307  1.00  0.00     0.255 C 
HETATM   34  N   UNL     1       6.628  24.881  53.659  1.00  0.00    -0.323 N 
HETATM   35  H   UNL     1       7.290  25.638  53.763  1.00  0.00     0.169 HD
HETATM   36  O   UNL     1       4.358  24.501  53.231  1.00  0.00    -0.268 OA
BRANCH  34  37
HETATM   37  C   UNL     1       7.139  23.584  53.869  1.00  0.00     0.035 A 
HETATM   38  C   UNL     1       7.622  22.760  52.851  1.00  0.00     0.029 A 
HETATM   39  C   UNL     1       8.141  21.496  53.150  1.00  0.00     0.002 A 
HETATM   40  C   UNL     1       8.185  21.047  54.467  1.00  0.00     0.000 A 
HETATM   41  C   UNL     1       7.703  21.859  55.489  1.00  0.00     0.002 A 
HETATM   42  C   UNL     1       7.180  23.120  55.192  1.00  0.00     0.029 A 
ENDBRANCH  34  37
ENDBRANCH   2  33
TORSDOF 9
ENDMDL
MODEL 9
REMARK VINA RESULT:      -9.5      3.714     11.280
REMARK  9 active torsions:
REMARK  status: ('A' for Active; 'I' for Inactive)
REMARK    1  A    between atoms: C_2  and  O_3 
REMARK    2  A    between atoms: O_3  and  C_4 
REMARK    3  A    between atoms: C_7  and  C_8 
REMARK    4  A    between atoms: C_9  and  C_10 
REMARK       I    between atoms: C_10  and  N_11 
REMARK    5  A    between atoms: N_11  and  C_12 
REMARK    6  A    between atoms: C_22  and  S_23 
REMARK    7  A    between atoms: S_23  and  C_24 
REMARK    8  A    between atoms: C_24  and  C_25 
REMARK       I    between atoms: C_25  and  N_26 
REMARK    9  A    between atoms: N_26  and  C_27 
ROOT
HETATM    1  C   UNL     1       4.737  32.300  59.206  1.00  0.00     0.106 C 
HETATM    2  C   UNL     1       6.011  32.608  59.975  1.00  0.00     0.046 C 
HETATM    3  C   UNL     1       7.196  32.077  59.600  1.00  0.00     0.019 C 
HETATM    4  C   UNL     1       8.491  32.239  60.354  1.00  0.00     0.069 C 
HETATM    5  N   UNL     1       7.248  31.274  58.471  1.00  0.00    -0.353 N 
HETATM    6  C   UNL     1       6.142  30.744  57.821  1.00  0.00     0.088 C 
HETATM    7  C   UNL     1       4.902  31.156  58.193  1.00  0.00     0.069 C 
HETATM    8  C   UNL     1       3.700  30.620  57.637  1.00  0.00     0.099 C 
HETATM    9  N   UNL     1       2.710  30.187  57.213  1.00  0.00    -0.192 NA
HETATM   10  H   UNL     1       8.158  30.931  58.184  1.00  0.00     0.166 HD
ENDROOT
BRANCH   1  11
HETATM   11  C   UNL     1       4.212  33.530  58.448  1.00  0.00    -0.044 A 
HETATM   12  C   UNL     1       3.028  34.176  58.850  1.00  0.00     0.011 A 
HETATM   13  C   UNL     1       2.675  35.417  58.318  1.00  0.00     0.037 A 
HETATM   14  C   UNL     1       3.509  36.035  57.387  1.00  0.00     0.068 A 
HETATM   15  C   UNL     1       4.636  35.365  56.915  1.00  0.00     0.037 A 
HETATM   16  C   UNL     1       4.992  34.122  57.445  1.00  0.00     0.011 A 
BRANCH  14  17
HETATM   17  O   UNL     1       3.298  37.292  56.887  1.00  0.00    -0.352 OA
BRANCH  17  18
HETATM   18  C   UNL     1       3.947  38.329  57.632  1.00  0.00     0.171 C 
HETATM   19  C   UNL     1       3.118  39.596  57.511  1.00  0.00     0.034 C 
ENDBRANCH  17  18
ENDBRANCH  14  17
ENDBRANCH   1  11
BRANCH   6  20
HETATM   20  S   UNL     1       6.307  29.681  56.436  1.00  0.00    -0.102 SA
BRANCH  20  21
HETATM   21  C   UNL     1       6.730  28.069  57.159  1.00  0.00     0.184 C 
BRANCH  21  22
HETATM   22  C   UNL     1       6.445  26.914  56.194  1.00  0.00     0.231 C 
HETATM   23  N   UNL     1       7.548  26.126  55.915  1.00  0.00    -0.327 N 
HETATM   24  H   UNL     1       8.428  26.475  56.281  1.00  0.00     0.169 HD
HETATM   25  O   UNL     1       5.295  26.707  55.812  1.00  0.00    -0.272 OA
BRANCH  23  26
HETATM   26  C   UNL     1       7.629  24.964  55.127  1.00  0.00     0.034 A 
HETATM   27  C   UNL     1       7.694  24.964  53.736  1.00  0.00     0.030 A 
HETATM   28  C   UNL     1       7.772  23.756  53.032  1.00  0.00     0.009 A 
HETATM   29  C   UNL     1       7.772  22.532  53.710  1.00  0.00    -0.062 A 
HETATM   30  C   UNL     1       7.885  21.237  52.961  1.00  0.00     0.048 C 
HETATM   31  C   UNL     1       7.719  22.533  55.106  1.00  0.00     0.009 A 
HETATM   32  C   UNL     1       7.646  23.739  55.807  1.00  0.00     0.030 A 
ENDBRANCH  23  26
ENDBRANCH  21  22
ENDBRANCH  20  21
ENDBRANCH   6  20
BRANCH   2  33
HETATM   33  C   UNL     1       5.833  33.432  61.202  1.00  0.00     0.255 C 
HETATM   34  N   UNL     1       6.123  32.738  62.358  1.00  0.00    -0.323 N 
HETATM   35  H   UNL     1       6.488  31.802  62.247  1.00  0.00     0.169 HD
HETATM   36  O   UNL     1       5.489  34.600  61.089  1.00  0.00    -0.268 OA
BRANCH  34  37
HETATM   37  C   UNL     1       5.947  33.177  63.686  1.00  0.00     0.035 A 
HETATM   38  C   UNL     1       4.702  33.385  64.282  1.00  0.00     0.029 A 
HETATM   39  C   UNL     1       4.615  33.792  65.617  1.00  0.00     0.002 A 
HETATM   40  C   UNL     1       5.770  33.992  66.368  1.00  0.00     0.000 A 
HETATM   41  C   UNL     1       7.017  33.789  65.784  1.00  0.00     0.002 A 
HETATM   42  C   UNL     1       7.105  33.387  64.448  1.00  0.00     0.029 A 
ENDBRANCH  34  37
ENDBRANCH   2  33
TORSDOF 9
ENDMDL
MODEL 10
REMARK VINA RESULT:      -9.2      5.589      9.722
REMARK  9 active torsions:
REMARK  status: ('A' for Active; 'I' for Inactive)
REMARK    1  A    between atoms: C_2  and  O_3 
REMARK    2  A    between atoms: O_3  and  C_4 
REMARK    3  A    between atoms: C_7  and  C_8 
REMARK    4  A    between atoms: C_9  and  C_10 
REMARK       I    between atoms: C_10  and  N_11 
REMARK    5  A    between atoms: N_11  and  C_12 
REMARK    6  A    between atoms: C_22  and  S_23 
REMARK    7  A    between atoms: S_23  and  C_24 
REMARK    8  A    between atoms: C_24  and  C_25 
REMARK       I    between atoms: C_25  and  N_26 
REMARK    9  A    between atoms: N_26  and  C_27 
ROOT
HETATM    1  C   UNL     1       3.031  34.112  58.636  1.00  0.00     0.106 C 
HETATM    2  C   UNL     1       4.065  34.277  57.534  1.00  0.00     0.046 C 
HETATM    3  C   UNL     1       4.373  35.500  57.047  1.00  0.00     0.019 C 
HETATM    4  C   UNL     1       5.304  35.759  55.890  1.00  0.00     0.069 C 
HETATM    5  N   UNL     1       3.764  36.618  57.596  1.00  0.00    -0.353 N 
HETATM    6  C   UNL     1       2.661  36.589  58.437  1.00  0.00     0.088 C 
HETATM    7  C   UNL     1       2.225  35.391  58.907  1.00  0.00     0.069 C 
HETATM    8  C   UNL     1       1.058  35.247  59.720  1.00  0.00     0.099 C 
HETATM    9  N   UNL     1       0.104  35.103  60.364  1.00  0.00    -0.192 NA
HETATM   10  H   UNL     1       4.052  37.525  57.246  1.00  0.00     0.166 HD
ENDROOT
BRANCH   1  11
HETATM   11  C   UNL     1       3.672  33.668  59.961  1.00  0.00    -0.044 A 
HETATM   12  C   UNL     1       3.192  32.541  60.655  1.00  0.00     0.011 A 
HETATM   13  C   UNL     1       3.909  32.000  61.723  1.00  0.00     0.037 A 
HETATM   14  C   UNL     1       5.121  32.572  62.105  1.00  0.00     0.068 A 
HETATM   15  C   UNL     1       5.560  33.741  61.486  1.00  0.00     0.037 A 
HETATM   16  C   UNL     1       4.846  34.285  60.415  1.00  0.00     0.011 A 
BRANCH  14  17
HETATM   17  O   UNL     1       5.940  32.054  63.072  1.00  0.00    -0.352 OA
BRANCH  17  18
HETATM   18  C   UNL     1       7.309  32.457  62.951  1.00  0.00     0.171 C 
HETATM   19  C   UNL     1       7.727  33.130  64.247  1.00  0.00     0.034 C 
ENDBRANCH  17  18
ENDBRANCH  14  17
ENDBRANCH   1  11
BRANCH   6  20
HETATM   20  S   UNL     1       1.914  38.060  59.031  1.00  0.00    -0.102 SA
BRANCH  20  21
HETATM   21  C   UNL     1       3.267  38.946  59.858  1.00  0.00     0.184 C 
BRANCH  21  22
HETATM   22  C   UNL     1       4.034  38.043  60.830  1.00  0.00     0.231 C 
HETATM   23  N   UNL     1       3.279  37.596  61.901  1.00  0.00    -0.327 N 
HETATM   24  H   UNL     1       2.357  38.014  61.979  1.00  0.00     0.169 HD
HETATM   25  O   UNL     1       5.188  37.709  60.572  1.00  0.00    -0.272 OA
BRANCH  23  26
HETATM   26  C   UNL     1       3.644  36.717  62.935  1.00  0.00     0.034 A 
HETATM   27  C   UNL     1       4.737  36.909  63.777  1.00  0.00     0.030 A 
HETATM   28  C   UNL     1       5.027  35.978  64.782  1.00  0.00     0.009 A 
HETATM   29  C   UNL     1       4.235  34.836  64.950  1.00  0.00    -0.062 A 
HETATM   30  C   UNL     1       4.525  33.852  66.044  1.00  0.00     0.048 C 
HETATM   31  C   UNL     1       3.132  34.651  64.113  1.00  0.00     0.009 A 
HETATM   32  C   UNL     1       2.841  35.583  63.114  1.00  0.00     0.030 A 
ENDBRANCH  23  26
ENDBRANCH  21  22
ENDBRANCH  20  21
ENDBRANCH   6  20
BRANCH   2  33
HETATM   33  C   UNL     1       4.614  33.011  56.978  1.00  0.00     0.255 C 
HETATM   34  N   UNL     1       3.717  32.350  56.166  1.00  0.00    -0.323 N 
HETATM   35  H   UNL     1       2.841  32.820  55.980  1.00  0.00     0.169 HD
HETATM   36  O   UNL     1       5.763  32.691  57.250  1.00  0.00    -0.268 OA
BRANCH  34  37
HETATM   37  C   UNL     1       3.869  31.077  55.580  1.00  0.00     0.035 A 
HETATM   38  C   UNL     1       4.038  29.897  56.307  1.00  0.00     0.029 A 
HETATM   39  C   UNL     1       4.152  28.669  55.649  1.00  0.00     0.002 A 
HETATM   40  C   UNL     1       4.094  28.609  54.258  1.00  0.00     0.000 A 
HETATM   41  C   UNL     1       3.928  29.779  53.524  1.00  0.00     0.002 A 
HETATM   42  C   UNL     1       3.819  31.007  54.181  1.00  0.00     0.029 A 
ENDBRANCH  34  37
ENDBRANCH   2  33
TORSDOF 9
ENDMDL
