MODEL 1
REMARK VINA RESULT:      -9.7      0.000      0.000
REMARK  8 active torsions:
REMARK  status: ('A' for Active; 'I' for Inactive)
REMARK    1  A    between atoms: C_2  and  C_3 
REMARK    2  A    between atoms: C_3  and  N_4 
REMARK    3  A    between atoms: C_12  and  C_13 
REMARK    4  A    between atoms: C_13  and  N_14 
REMARK    5  A    between atoms: C_22  and  C_23 
REMARK    6  A    between atoms: C_23  and  C_24 
REMARK    7  A    between atoms: C_24  and  N_25 
REMARK       I    between atoms: N_25  and  C_26 
REMARK    8  A    between atoms: C_26  and  C_27 
ROOT
HETATM    1  N   UNL     1       4.808  28.916  56.062  1.00  0.00    -0.065 N 
HETATM    2  H   UNL     1       3.803  28.788  56.250  1.00  0.00     0.280 HD
HETATM    3  C   UNL     1       5.517  28.564  57.368  1.00  0.00     0.255 C 
HETATM    4  C   UNL     1       6.891  29.210  57.498  1.00  0.00     0.159 C 
HETATM    5  N   UNL     1       6.819  30.561  58.007  1.00  0.00    -0.319 N 
HETATM    6  C   UNL     1       5.898  31.520  57.652  1.00  0.00     0.131 A 
HETATM    7  C   UNL     1       4.736  31.358  56.735  1.00  0.00     0.108 C 
HETATM    8  C   UNL     1       4.963  30.366  55.603  1.00  0.00     0.243 C 
HETATM    9  C   UNL     1       7.634  31.145  58.947  1.00  0.00     0.131 A 
HETATM   10  N   UNL     1       7.257  32.397  59.100  1.00  0.00    -0.135 NA
HETATM   11  N   UNL     1       6.171  32.625  58.304  1.00  0.00    -0.135 NA
ENDROOT
BRANCH   1  12
HETATM   12  C   UNL     1       5.110  27.958  54.921  1.00  0.00     0.280 C 
BRANCH  12  13
HETATM   13  C   UNL     1       5.739  26.660  55.347  1.00  0.00     0.009 A 
HETATM   14  S   UNL     1       7.235  26.140  54.688  1.00  0.00    -0.096 SA
HETATM   15  C   UNL     1       7.291  24.745  55.689  1.00  0.00     0.009 A 
HETATM   16  C   UNL     1       6.174  24.674  56.499  1.00  0.00     0.017 A 
HETATM   17  C   UNL     1       5.279  25.767  56.295  1.00  0.00     0.017 A 
BRANCH  15  18
HETATM   18  C   UNL     1       8.483  23.827  55.640  1.00  0.00     0.280 C 
BRANCH  18  19
HETATM   19  N   UNL     1       8.215  22.507  54.943  1.00  0.00    -0.067 N 
HETATM   20  H   UNL     1       7.268  22.217  55.212  1.00  0.00     0.280 HD
HETATM   21  C   UNL     1       8.256  22.618  53.436  1.00  0.00     0.235 C 
HETATM   22  C   UNL     1       7.857  21.287  52.817  1.00  0.00     0.028 C 
HETATM   23  C   UNL     1       8.743  20.149  53.310  1.00  0.00     0.003 C 
HETATM   24  C   UNL     1       8.766  20.090  54.832  1.00  0.00     0.028 C 
HETATM   25  C   UNL     1       9.156  21.428  55.444  1.00  0.00     0.235 C 
ENDBRANCH  18  19
ENDBRANCH  15  18
ENDBRANCH  12  13
ENDBRANCH   1  12
BRANCH   9  26
HETATM   26  C   UNL     1       8.749  30.485  59.685  1.00  0.00     0.100 C 
BRANCH  26  27
HETATM   27  C   UNL     1       8.706  30.750  61.191  1.00  0.00     0.130 C 
BRANCH  27  28
HETATM   28  N   UNL     1       7.410  31.035  61.799  1.00  0.00    -0.360 N 
HETATM   29  C   UNL     1       7.171  31.877  62.858  1.00  0.00     0.222 C 
HETATM   30  O   UNL     1       8.053  32.380  63.550  1.00  0.00    -0.273 OA
HETATM   31  H   UNL     1       6.611  30.727  61.256  1.00  0.00     0.162 HD
BRANCH  29  32
HETATM   32  C   UNL     1       5.677  32.083  63.138  1.00  0.00     0.082 C 
HETATM   33  C   UNL     1       5.456  33.102  64.260  1.00  0.00     0.040 C 
HETATM   34  C   UNL     1       5.765  34.514  63.781  1.00  0.00     0.168 C 
HETATM   35  O   UNL     1       4.997  34.858  62.627  1.00  0.00    -0.391 OA
HETATM   36  C   UNL     1       5.192  33.976  61.527  1.00  0.00     0.168 C 
HETATM   37  C   UNL     1       4.912  32.523  61.886  1.00  0.00     0.040 C 
ENDBRANCH  29  32
ENDBRANCH  27  28
ENDBRANCH  26  27
ENDBRANCH   9  26
TORSDOF 8
ENDMDL
MODEL 2
REMARK VINA RESULT:      -9.5      4.344      6.599
REMARK  8 active torsions:
REMARK  status: ('A' for Active; 'I' for Inactive)
REMARK    1  A    between atoms: C_2  and  C_3 
REMARK    2  A    between atoms: C_3  and  N_4 
REMARK    3  A    between atoms: C_12  and  C_13 
REMARK    4  A    between atoms: C_13  and  N_14 
REMARK    5  A    between atoms: C_22  and  C_23 
REMARK    6  A    between atoms: C_23  and  C_24 
REMARK    7  A    between atoms: C_24  and  N_25 
REMARK       I    between atoms: N_25  and  C_26 
REMARK    8  A    between atoms: C_26  and  C_27 
ROOT
HETATM    1  N   UNL     1       6.678  31.603  60.696  1.00  0.00    -0.065 N 
HETATM    2  H   UNL     1       6.351  30.665  60.419  1.00  0.00     0.280 HD
HETATM    3  C   UNL     1       7.188  31.452  62.127  1.00  0.00     0.255 C 
HETATM    4  C   UNL     1       7.179  32.760  62.908  1.00  0.00     0.159 C 
HETATM    5  N   UNL     1       5.888  33.043  63.495  1.00  0.00    -0.319 N 
HETATM    6  C   UNL     1       4.662  32.863  62.897  1.00  0.00     0.131 A 
HETATM    7  C   UNL     1       4.390  32.269  61.559  1.00  0.00     0.108 C 
HETATM    8  C   UNL     1       5.474  32.530  60.524  1.00  0.00     0.243 C 
HETATM    9  C   UNL     1       5.631  33.525  64.756  1.00  0.00     0.131 A 
HETATM   10  N   UNL     1       4.329  33.679  64.881  1.00  0.00    -0.135 NA
HETATM   11  N   UNL     1       3.728  33.255  63.731  1.00  0.00    -0.135 NA
ENDROOT
BRANCH   1  12
HETATM   12  C   UNL     1       7.764  31.943  59.688  1.00  0.00     0.280 C 
BRANCH  12  13
HETATM   13  C   UNL     1       8.040  30.862  58.679  1.00  0.00     0.009 A 
HETATM   14  S   UNL     1       6.840  30.371  57.556  1.00  0.00    -0.096 SA
HETATM   15  C   UNL     1       7.901  29.270  56.773  1.00  0.00     0.009 A 
HETATM   16  C   UNL     1       9.144  29.270  57.374  1.00  0.00     0.017 A 
HETATM   17  C   UNL     1       9.221  30.176  58.475  1.00  0.00     0.017 A 
BRANCH  15  18
HETATM   18  C   UNL     1       7.436  28.504  55.562  1.00  0.00     0.280 C 
BRANCH  18  19
HETATM   19  N   UNL     1       7.562  26.999  55.699  1.00  0.00    -0.067 N 
HETATM   20  H   UNL     1       8.532  26.807  55.975  1.00  0.00     0.280 HD
HETATM   21  C   UNL     1       6.655  26.428  56.766  1.00  0.00     0.235 C 
HETATM   22  C   UNL     1       6.931  24.940  56.924  1.00  0.00     0.028 C 
HETATM   23  C   UNL     1       6.768  24.195  55.605  1.00  0.00     0.003 C 
HETATM   24  C   UNL     1       7.621  24.822  54.509  1.00  0.00     0.028 C 
HETATM   25  C   UNL     1       7.347  26.312  54.364  1.00  0.00     0.235 C 
ENDBRANCH  18  19
ENDBRANCH  15  18
ENDBRANCH  12  13
ENDBRANCH   1  12
BRANCH   9  26
HETATM   26  C   UNL     1       6.639  33.818  65.815  1.00  0.00     0.100 C 
BRANCH  26  27
HETATM   27  C   UNL     1       6.024  34.460  67.061  1.00  0.00     0.130 C 
BRANCH  27  28
HETATM   28  N   UNL     1       6.796  34.428  68.299  1.00  0.00    -0.360 N 
HETATM   29  C   UNL     1       6.409  33.865  69.490  1.00  0.00     0.222 C 
HETATM   30  O   UNL     1       5.274  33.453  69.720  1.00  0.00    -0.273 OA
HETATM   31  H   UNL     1       7.774  34.677  68.194  1.00  0.00     0.162 HD
BRANCH  29  32
HETATM   32  C   UNL     1       7.525  33.854  70.542  1.00  0.00     0.082 C 
HETATM   33  C   UNL     1       8.520  34.996  70.310  1.00  0.00     0.040 C 
HETATM   34  C   UNL     1       7.906  36.338  70.685  1.00  0.00     0.168 C 
HETATM   35  O   UNL     1       7.437  36.343  72.035  1.00  0.00    -0.391 OA
HETATM   36  C   UNL     1       6.471  35.334  72.307  1.00  0.00     0.168 C 
HETATM   37  C   UNL     1       6.973  33.937  71.968  1.00  0.00     0.040 C 
ENDBRANCH  29  32
ENDBRANCH  27  28
ENDBRANCH  26  27
ENDBRANCH   9  26
TORSDOF 8
ENDMDL
MODEL 3
REMARK VINA RESULT:      -9.4      1.611      2.615
REMARK  8 active torsions:
REMARK  status: ('A' for Active; 'I' for Inactive)
REMARK    1  A    between atoms: C_2  and  C_3 
REMARK    2  A    between atoms: C_3  and  N_4 
REMARK    3  A    between atoms: C_12  and  C_13 
REMARK    4  A    between atoms: C_13  and  N_14 
REMARK    5  A    between atoms: C_22  and  C_23 
REMARK    6  A    between atoms: C_23  and  C_24 
REMARK    7  A    between atoms: C_24  and  N_25 
REMARK       I    between atoms: N_25  and  C_26 
REMARK    8  A    between atoms: C_26  and  C_27 
ROOT
HETATM    1  N   UNL     1       5.447  29.385  56.318  1.00  0.00    -0.065 N 
HETATM    2  H   UNL     1       5.977  29.511  55.443  1.00  0.00     0.280 HD
HETATM    3  C   UNL     1       4.652  30.676  56.503  1.00  0.00     0.255 C 
HETATM    4  C   UNL     1       4.267  30.941  57.953  1.00  0.00     0.159 C 
HETATM    5  N   UNL     1       5.324  31.593  58.695  1.00  0.00    -0.319 N 
HETATM    6  C   UNL     1       6.668  31.303  58.627  1.00  0.00     0.131 A 
HETATM    7  C   UNL     1       7.333  30.320  57.728  1.00  0.00     0.108 C 
HETATM    8  C   UNL     1       6.489  29.097  57.399  1.00  0.00     0.243 C 
HETATM    9  C   UNL     1       5.202  32.629  59.588  1.00  0.00     0.131 A 
HETATM   10  N   UNL     1       6.397  32.902  60.070  1.00  0.00    -0.135 NA
HETATM   11  N   UNL     1       7.308  32.085  59.463  1.00  0.00    -0.135 NA
ENDROOT
BRANCH   1  12
HETATM   12  C   UNL     1       4.581  28.161  56.069  1.00  0.00     0.280 C 
BRANCH  12  13
HETATM   13  C   UNL     1       5.350  26.883  55.874  1.00  0.00     0.009 A 
HETATM   14  S   UNL     1       6.402  26.676  54.535  1.00  0.00    -0.096 SA
HETATM   15  C   UNL     1       6.916  25.125  55.067  1.00  0.00     0.009 A 
HETATM   16  C   UNL     1       6.278  24.770  56.240  1.00  0.00     0.017 A 
HETATM   17  C   UNL     1       5.372  25.774  56.698  1.00  0.00     0.017 A 
BRANCH  15  18
HETATM   18  C   UNL     1       7.972  24.375  54.300  1.00  0.00     0.280 C 
BRANCH  18  19
HETATM   19  N   UNL     1       7.868  22.868  54.423  1.00  0.00    -0.067 N 
HETATM   20  H   UNL     1       6.911  22.660  54.731  1.00  0.00     0.280 HD
HETATM   21  C   UNL     1       8.098  22.152  53.111  1.00  0.00     0.235 C 
HETATM   22  C   UNL     1       7.855  20.662  53.295  1.00  0.00     0.028 C 
HETATM   23  C   UNL     1       8.730  20.081  54.400  1.00  0.00     0.003 C 
HETATM   24  C   UNL     1       8.559  20.855  55.701  1.00  0.00     0.028 C 
HETATM   25  C   UNL     1       8.793  22.346  55.507  1.00  0.00     0.235 C 
ENDBRANCH  18  19
ENDBRANCH  15  18
ENDBRANCH  12  13
ENDBRANCH   1  12
BRANCH   9  26
HETATM   26  C   UNL     1       3.944  33.340  59.953  1.00  0.00     0.100 C 
BRANCH  26  27
HETATM   27  C   UNL     1       3.621  33.253  61.447  1.00  0.00     0.130 C 
BRANCH  27  28
HETATM   28  N   UNL     1       4.539  33.893  62.384  1.00  0.00    -0.360 N 
HETATM   29  C   UNL     1       5.197  33.287  63.427  1.00  0.00     0.222 C 
HETATM   30  O   UNL     1       4.966  32.145  63.815  1.00  0.00    -0.273 OA
HETATM   31  H   UNL     1       4.852  34.816  62.105  1.00  0.00     0.162 HD
BRANCH  29  32
HETATM   32  C   UNL     1       6.218  34.207  64.109  1.00  0.00     0.082 C 
HETATM   33  C   UNL     1       5.790  35.675  64.021  1.00  0.00     0.040 C 
HETATM   34  C   UNL     1       4.617  35.957  64.950  1.00  0.00     0.168 C 
HETATM   35  O   UNL     1       4.916  35.597  66.300  1.00  0.00    -0.391 OA
HETATM   36  C   UNL     1       5.276  34.230  66.460  1.00  0.00     0.168 C 
HETATM   37  C   UNL     1       6.447  33.826  65.574  1.00  0.00     0.040 C 
ENDBRANCH  29  32
ENDBRANCH  27  28
ENDBRANCH  26  27
ENDBRANCH   9  26
TORSDOF 8
ENDMDL
MODEL 4
REMARK VINA RESULT:      -9.4      2.961      4.717
REMARK  8 active torsions:
REMARK  status: ('A' for Active; 'I' for Inactive)
REMARK    1  A    between atoms: C_2  and  C_3 
REMARK    2  A    between atoms: C_3  and  N_4 
REMARK    3  A    between atoms: C_12  and  C_13 
REMARK    4  A    between atoms: C_13  and  N_14 
REMARK    5  A    between atoms: C_22  and  C_23 
REMARK    6  A    between atoms: C_23  and  C_24 
REMARK    7  A    between atoms: C_24  and  N_25 
REMARK       I    between atoms: N_25  and  C_26 
REMARK    8  A    between atoms: C_26  and  C_27 
ROOT
HETATM    1  N   UNL     1       4.313  28.754  52.284  1.00  0.00    -0.065 N 
HETATM    2  H   UNL     1       3.610  28.329  51.663  1.00  0.00     0.280 HD
HETATM    3  C   UNL     1       3.903  28.356  53.700  1.00  0.00     0.255 C 
HETATM    4  C   UNL     1       4.433  29.306  54.767  1.00  0.00     0.159 C 
HETATM    5  N   UNL     1       3.584  30.464  54.945  1.00  0.00    -0.319 N 
HETATM    6  C   UNL     1       2.978  31.193  53.947  1.00  0.00     0.131 A 
HETATM    7  C   UNL     1       2.996  30.909  52.486  1.00  0.00     0.108 C 
HETATM    8  C   UNL     1       4.276  30.254  51.989  1.00  0.00     0.243 C 
HETATM    9  C   UNL     1       3.204  31.048  56.129  1.00  0.00     0.131 A 
HETATM   10  N   UNL     1       2.463  32.100  55.851  1.00  0.00    -0.135 NA
HETATM   11  N   UNL     1       2.313  32.182  54.496  1.00  0.00    -0.135 NA
ENDROOT
BRANCH   1  12
HETATM   12  C   UNL     1       5.636  28.153  51.835  1.00  0.00     0.280 C 
BRANCH  12  13
HETATM   13  C   UNL     1       5.966  26.830  52.470  1.00  0.00     0.009 A 
HETATM   14  S   UNL     1       7.258  26.681  53.589  1.00  0.00    -0.096 SA
HETATM   15  C   UNL     1       6.924  25.023  53.886  1.00  0.00     0.009 A 
HETATM   16  C   UNL     1       5.853  24.591  53.128  1.00  0.00     0.017 A 
HETATM   17  C   UNL     1       5.311  25.626  52.307  1.00  0.00     0.017 A 
BRANCH  15  18
HETATM   18  C   UNL     1       7.727  24.262  54.907  1.00  0.00     0.280 C 
BRANCH  18  19
HETATM   19  N   UNL     1       7.705  22.758  54.712  1.00  0.00    -0.067 N 
HETATM   20  H   UNL     1       6.741  22.506  54.465  1.00  0.00     0.280 HD
HETATM   21  C   UNL     1       8.607  22.297  53.589  1.00  0.00     0.235 C 
HETATM   22  C   UNL     1       8.432  20.800  53.379  1.00  0.00     0.028 C 
HETATM   23  C   UNL     1       8.702  20.018  54.659  1.00  0.00     0.003 C 
HETATM   24  C   UNL     1       7.851  20.538  55.811  1.00  0.00     0.028 C 
HETATM   25  C   UNL     1       8.023  22.037  56.008  1.00  0.00     0.235 C 
ENDBRANCH  18  19
ENDBRANCH  15  18
ENDBRANCH  12  13
ENDBRANCH   1  12
BRANCH   9  26
HETATM   26  C   UNL     1       3.553  30.578  57.501  1.00  0.00     0.100 C 
BRANCH  26  27
HETATM   27  C   UNL     1       4.793  31.272  58.070  1.00  0.00     0.130 C 
BRANCH  27  28
HETATM   28  N   UNL     1       6.019  30.490  58.195  1.00  0.00    -0.360 N 
HETATM   29  C   UNL     1       7.249  30.955  58.592  1.00  0.00     0.222 C 
HETATM   30  O   UNL     1       7.521  32.145  58.736  1.00  0.00    -0.273 OA
HETATM   31  H   UNL     1       5.884  29.485  58.169  1.00  0.00     0.162 HD
BRANCH  29  32
HETATM   32  C   UNL     1       8.282  29.838  58.781  1.00  0.00     0.082 C 
HETATM   33  C   UNL     1       8.130  28.752  57.711  1.00  0.00     0.040 C 
HETATM   34  C   UNL     1       8.619  29.248  56.357  1.00  0.00     0.168 C 
HETATM   35  O   UNL     1       9.970  29.707  56.422  1.00  0.00    -0.391 OA
HETATM   36  C   UNL     1      10.173  30.752  57.366  1.00  0.00     0.168 C 
HETATM   37  C   UNL     1       9.717  30.372  58.768  1.00  0.00     0.040 C 
ENDBRANCH  29  32
ENDBRANCH  27  28
ENDBRANCH  26  27
ENDBRANCH   9  26
TORSDOF 8
ENDMDL
MODEL 5
REMARK VINA RESULT:      -9.3      3.264      4.725
REMARK  8 active torsions:
REMARK  status: ('A' for Active; 'I' for Inactive)
REMARK    1  A    between atoms: C_2  and  C_3 
REMARK    2  A    between atoms: C_3  and  N_4 
REMARK    3  A    between atoms: C_12  and  C_13 
REMARK    4  A    between atoms: C_13  and  N_14 
REMARK    5  A    between atoms: C_22  and  C_23 
REMARK    6  A    between atoms: C_23  and  C_24 
REMARK    7  A    between atoms: C_24  and  N_25 
REMARK       I    between atoms: N_25  and  C_26 
REMARK    8  A    between atoms: C_26  and  C_27 
ROOT
HETATM    1  N   UNL     1       8.234  28.826  56.078  1.00  0.00    -0.065 N 
HETATM    2  H   UNL     1       8.415  29.079  55.095  1.00  0.00     0.280 HD
HETATM    3  C   UNL     1       7.237  29.863  56.590  1.00  0.00     0.255 C 
HETATM    4  C   UNL     1       7.271  30.031  58.104  1.00  0.00     0.159 C 
HETATM    5  N   UNL     1       8.305  30.945  58.536  1.00  0.00    -0.319 N 
HETATM    6  C   UNL     1       9.587  31.019  58.042  1.00  0.00     0.131 A 
HETATM    7  C   UNL     1      10.165  30.239  56.913  1.00  0.00     0.108 C 
HETATM    8  C   UNL     1       9.600  28.834  56.767  1.00  0.00     0.243 C 
HETATM    9  C   UNL     1       8.210  31.921  59.498  1.00  0.00     0.131 A 
HETATM   10  N   UNL     1       9.384  32.504  59.612  1.00  0.00    -0.135 NA
HETATM   11  N   UNL     1      10.236  31.951  58.699  1.00  0.00    -0.135 NA
ENDROOT
BRANCH   1  12
HETATM   12  C   UNL     1       7.674  27.414  56.014  1.00  0.00     0.280 C 
BRANCH  12  13
HETATM   13  C   UNL     1       6.725  27.171  54.874  1.00  0.00     0.009 A 
HETATM   14  S   UNL     1       7.271  26.504  53.391  1.00  0.00    -0.096 SA
HETATM   15  C   UNL     1       5.688  26.461  52.726  1.00  0.00     0.009 A 
HETATM   16  C   UNL     1       4.763  26.965  53.620  1.00  0.00     0.017 A 
HETATM   17  C   UNL     1       5.360  27.381  54.849  1.00  0.00     0.017 A 
BRANCH  15  18
HETATM   18  C   UNL     1       5.458  25.874  51.359  1.00  0.00     0.280 C 
BRANCH  18  19
HETATM   19  N   UNL     1       5.574  26.880  50.229  1.00  0.00    -0.067 N 
HETATM   20  H   UNL     1       6.546  26.846  49.901  1.00  0.00     0.280 HD
HETATM   21  C   UNL     1       4.678  26.553  49.056  1.00  0.00     0.235 C 
HETATM   22  C   UNL     1       4.944  27.534  47.924  1.00  0.00     0.028 C 
HETATM   23  C   UNL     1       4.757  28.978  48.376  1.00  0.00     0.003 C 
HETATM   24  C   UNL     1       5.600  29.282  49.608  1.00  0.00     0.028 C 
HETATM   25  C   UNL     1       5.335  28.291  50.732  1.00  0.00     0.235 C 
ENDBRANCH  18  19
ENDBRANCH  15  18
ENDBRANCH  12  13
ENDBRANCH   1  12
BRANCH   9  26
HETATM   26  C   UNL     1       6.991  32.279  60.279  1.00  0.00     0.100 C 
BRANCH  26  27
HETATM   27  C   UNL     1       7.042  31.778  61.725  1.00  0.00     0.130 C 
BRANCH  27  28
HETATM   28  N   UNL     1       6.749  32.732  62.790  1.00  0.00    -0.360 N 
HETATM   29  C   UNL     1       5.730  32.647  63.707  1.00  0.00     0.222 C 
HETATM   30  O   UNL     1       4.815  31.829  63.645  1.00  0.00    -0.273 OA
HETATM   31  H   UNL     1       7.487  33.404  62.971  1.00  0.00     0.162 HD
BRANCH  29  32
HETATM   32  C   UNL     1       5.808  33.724  64.796  1.00  0.00     0.082 C 
HETATM   33  C   UNL     1       6.134  35.097  64.198  1.00  0.00     0.040 C 
HETATM   34  C   UNL     1       4.937  35.662  63.446  1.00  0.00     0.168 C 
HETATM   35  O   UNL     1       3.779  35.735  64.279  1.00  0.00    -0.391 OA
HETATM   36  C   UNL     1       3.392  34.482  64.831  1.00  0.00     0.168 C 
HETATM   37  C   UNL     1       4.515  33.814  65.611  1.00  0.00     0.040 C 
ENDBRANCH  29  32
ENDBRANCH  27  28
ENDBRANCH  26  27
ENDBRANCH   9  26
TORSDOF 8
ENDMDL
MODEL 6
REMARK VINA RESULT:      -9.2      4.153     11.007
REMARK  8 active torsions:
REMARK  status: ('A' for Active; 'I' for Inactive)
REMARK    1  A    between atoms: C_2  and  C_3 
REMARK    2  A    between atoms: C_3  and  N_4 
REMARK    3  A    between atoms: C_12  and  C_13 
REMARK    4  A    between atoms: C_13  and  N_14 
REMARK    5  A    between atoms: C_22  and  C_23 
REMARK    6  A    between atoms: C_23  and  C_24 
REMARK    7  A    between atoms: C_24  and  N_25 
REMARK       I    between atoms: N_25  and  C_26 
REMARK    8  A    between atoms: C_26  and  C_27 
ROOT
HETATM    1  N   UNL     1       9.636  30.671  58.884  1.00  0.00    -0.065 N 
HETATM    2  H   UNL     1      10.283  30.081  59.427  1.00  0.00     0.280 HD
HETATM    3  C   UNL     1       8.318  29.901  58.840  1.00  0.00     0.255 C 
HETATM    4  C   UNL     1       7.438  30.287  57.657  1.00  0.00     0.159 C 
HETATM    5  N   UNL     1       7.790  29.572  56.450  1.00  0.00    -0.319 N 
HETATM    6  C   UNL     1       9.064  29.307  56.001  1.00  0.00     0.131 A 
HETATM    7  C   UNL     1      10.346  29.623  56.689  1.00  0.00     0.108 C 
HETATM    8  C   UNL     1      10.312  30.891  57.530  1.00  0.00     0.243 C 
HETATM    9  C   UNL     1       6.937  29.007  55.534  1.00  0.00     0.131 A 
HETATM   10  N   UNL     1       7.659  28.487  54.564  1.00  0.00    -0.135 NA
HETATM   11  N   UNL     1       8.980  28.663  54.861  1.00  0.00    -0.135 NA
ENDROOT
BRANCH   1  12
HETATM   12  C   UNL     1       9.561  31.975  59.662  1.00  0.00     0.280 C 
BRANCH  12  13
HETATM   13  C   UNL     1       8.656  31.933  60.863  1.00  0.00     0.009 A 
HETATM   14  S   UNL     1       7.024  32.451  60.763  1.00  0.00    -0.096 SA
HETATM   15  C   UNL     1       6.696  32.019  62.394  1.00  0.00     0.009 A 
HETATM   16  C   UNL     1       7.823  31.504  63.004  1.00  0.00     0.017 A 
HETATM   17  C   UNL     1       8.950  31.464  62.128  1.00  0.00     0.017 A 
BRANCH  15  18
HETATM   18  C   UNL     1       5.306  32.176  62.952  1.00  0.00     0.280 C 
BRANCH  18  19
HETATM   19  N   UNL     1       5.045  33.530  63.582  1.00  0.00    -0.067 N 
HETATM   20  H   UNL     1       5.736  34.179  63.187  1.00  0.00     0.280 HD
HETATM   21  C   UNL     1       3.669  34.070  63.265  1.00  0.00     0.235 C 
HETATM   22  C   UNL     1       3.534  35.478  63.827  1.00  0.00     0.028 C 
HETATM   23  C   UNL     1       3.809  35.514  65.326  1.00  0.00     0.003 C 
HETATM   24  C   UNL     1       5.162  34.894  65.651  1.00  0.00     0.028 C 
HETATM   25  C   UNL     1       5.294  33.491  65.077  1.00  0.00     0.235 C 
ENDBRANCH  18  19
ENDBRANCH  15  18
ENDBRANCH  12  13
ENDBRANCH   1  12
BRANCH   9  26
HETATM   26  C   UNL     1       5.448  28.971  55.614  1.00  0.00     0.100 C 
BRANCH  26  27
HETATM   27  C   UNL     1       4.916  27.666  56.210  1.00  0.00     0.130 C 
BRANCH  27  28
HETATM   28  N   UNL     1       5.012  26.455  55.401  1.00  0.00    -0.360 N 
HETATM   29  C   UNL     1       4.752  26.347  54.056  1.00  0.00     0.222 C 
HETATM   30  O   UNL     1       4.234  27.235  53.382  1.00  0.00    -0.273 OA
HETATM   31  H   UNL     1       5.499  25.685  55.847  1.00  0.00     0.162 HD
BRANCH  29  32
HETATM   32  C   UNL     1       5.115  24.972  53.481  1.00  0.00     0.082 C 
HETATM   33  C   UNL     1       5.172  25.006  51.951  1.00  0.00     0.040 C 
HETATM   34  C   UNL     1       6.406  25.756  51.468  1.00  0.00     0.168 C 
HETATM   35  O   UNL     1       7.606  25.197  52.006  1.00  0.00    -0.391 OA
HETATM   36  C   UNL     1       7.639  25.178  53.429  1.00  0.00     0.168 C 
HETATM   37  C   UNL     1       6.445  24.451  54.032  1.00  0.00     0.040 C 
ENDBRANCH  29  32
ENDBRANCH  27  28
ENDBRANCH  26  27
ENDBRANCH   9  26
TORSDOF 8
ENDMDL
MODEL 7
REMARK VINA RESULT:      -9.2      1.768      2.622
REMARK  8 active torsions:
REMARK  status: ('A' for Active; 'I' for Inactive)
REMARK    1  A    between atoms: C_2  and  C_3 
REMARK    2  A    between atoms: C_3  and  N_4 
REMARK    3  A    between atoms: C_12  and  C_13 
REMARK    4  A    between atoms: C_13  and  N_14 
REMARK    5  A    between atoms: C_22  and  C_23 
REMARK    6  A    between atoms: C_23  and  C_24 
REMARK    7  A    between atoms: C_24  and  N_25 
REMARK       I    between atoms: N_25  and  C_26 
REMARK    8  A    between atoms: C_26  and  C_27 
ROOT
HETATM    1  N   UNL     1       7.270  28.720  56.496  1.00  0.00    -0.065 N 
HETATM    2  H   UNL     1       7.340  28.836  55.474  1.00  0.00     0.280 HD
HETATM    3  C   UNL     1       6.575  29.981  57.004  1.00  0.00     0.255 C 
HETATM    4  C   UNL     1       6.873  30.283  58.467  1.00  0.00     0.159 C 
HETATM    5  N   UNL     1       8.113  31.007  58.640  1.00  0.00    -0.319 N 
HETATM    6  C   UNL     1       9.295  30.773  57.974  1.00  0.00     0.131 A 
HETATM    7  C   UNL     1       9.535  29.787  56.885  1.00  0.00     0.108 C 
HETATM    8  C   UNL     1       8.703  28.518  56.990  1.00  0.00     0.243 C 
HETATM    9  C   UNL     1       8.352  32.069  59.478  1.00  0.00     0.131 A 
HETATM   10  N   UNL     1       9.617  32.411  59.362  1.00  0.00    -0.135 NA
HETATM   11  N   UNL     1      10.199  31.613  58.419  1.00  0.00    -0.135 NA
ENDROOT
BRANCH   1  12
HETATM   12  C   UNL     1       6.455  27.451  56.684  1.00  0.00     0.280 C 
BRANCH  12  13
HETATM   13  C   UNL     1       6.387  26.568  55.468  1.00  0.00     0.009 A 
HETATM   14  S   UNL     1       7.627  25.433  55.125  1.00  0.00    -0.096 SA
HETATM   15  C   UNL     1       6.805  24.820  53.747  1.00  0.00     0.009 A 
HETATM   16  C   UNL     1       5.611  25.486  53.547  1.00  0.00     0.017 A 
HETATM   17  C   UNL     1       5.377  26.496  54.529  1.00  0.00     0.017 A 
BRANCH  15  18
HETATM   18  C   UNL     1       7.384  23.665  52.973  1.00  0.00     0.280 C 
BRANCH  18  19
HETATM   19  N   UNL     1       8.016  22.597  53.843  1.00  0.00    -0.067 N 
HETATM   20  H   UNL     1       8.973  22.908  54.048  1.00  0.00     0.280 HD
HETATM   21  C   UNL     1       7.299  22.411  55.161  1.00  0.00     0.235 C 
HETATM   22  C   UNL     1       8.064  21.415  56.021  1.00  0.00     0.028 C 
HETATM   23  C   UNL     1       8.255  20.084  55.304  1.00  0.00     0.003 C 
HETATM   24  C   UNL     1       8.905  20.281  53.940  1.00  0.00     0.028 C 
HETATM   25  C   UNL     1       8.139  21.286  53.090  1.00  0.00     0.235 C 
ENDBRANCH  18  19
ENDBRANCH  15  18
ENDBRANCH  12  13
ENDBRANCH   1  12
BRANCH   9  26
HETATM   26  C   UNL     1       7.356  32.738  60.364  1.00  0.00     0.100 C 
BRANCH  26  27
HETATM   27  C   UNL     1       7.311  32.136  61.770  1.00  0.00     0.130 C 
BRANCH  27  28
HETATM   28  N   UNL     1       6.912  33.003  62.874  1.00  0.00    -0.360 N 
HETATM   29  C   UNL     1       5.874  32.790  63.748  1.00  0.00     0.222 C 
HETATM   30  O   UNL     1       5.027  31.911  63.609  1.00  0.00    -0.273 OA
HETATM   31  H   UNL     1       7.591  33.717  63.118  1.00  0.00     0.162 HD
BRANCH  29  32
HETATM   32  C   UNL     1       5.835  33.807  64.896  1.00  0.00     0.082 C 
HETATM   33  C   UNL     1       6.108  35.227  64.391  1.00  0.00     0.040 C 
HETATM   34  C   UNL     1       4.917  35.765  63.608  1.00  0.00     0.168 C 
HETATM   35  O   UNL     1       3.717  35.726  64.383  1.00  0.00    -0.391 OA
HETATM   36  C   UNL     1       3.379  34.423  64.846  1.00  0.00     0.168 C 
HETATM   37  C   UNL     1       4.501  33.777  65.647  1.00  0.00     0.040 C 
ENDBRANCH  29  32
ENDBRANCH  27  28
ENDBRANCH  26  27
ENDBRANCH   9  26
TORSDOF 8
ENDMDL
MODEL 8
REMARK VINA RESULT:      -9.2      1.713      2.428
REMARK  8 active torsions:
REMARK  status: ('A' for Active; 'I' for Inactive)
REMARK    1  A    between atoms: C_2  and  C_3 
REMARK    2  A    between atoms: C_3  and  N_4 
REMARK    3  A    between atoms: C_12  and  C_13 
REMARK    4  A    between atoms: C_13  and  N_14 
REMARK    5  A    between atoms: C_22  and  C_23 
REMARK    6  A    between atoms: C_23  and  C_24 
REMARK    7  A    between atoms: C_24  and  N_25 
REMARK       I    between atoms: N_25  and  C_26 
REMARK    8  A    between atoms: C_26  and  C_27 
ROOT
HETATM    1  N   UNL     1       6.695  29.451  56.776  1.00  0.00    -0.065 N 
HETATM    2  H   UNL     1       6.896  29.601  55.777  1.00  0.00     0.280 HD
HETATM    3  C   UNL     1       6.234  30.806  57.309  1.00  0.00     0.255 C 
HETATM    4  C   UNL     1       6.433  30.959  58.812  1.00  0.00     0.159 C 
HETATM    5  N   UNL     1       7.773  31.383  59.152  1.00  0.00    -0.319 N 
HETATM    6  C   UNL     1       8.942  30.930  58.582  1.00  0.00     0.131 A 
HETATM    7  C   UNL     1       9.081  29.973  57.450  1.00  0.00     0.108 C 
HETATM    8  C   UNL     1       7.991  28.914  57.385  1.00  0.00     0.243 C 
HETATM    9  C   UNL     1       8.143  32.322  60.084  1.00  0.00     0.131 A 
HETATM   10  N   UNL     1       9.457  32.384  60.110  1.00  0.00    -0.135 NA
HETATM   11  N   UNL     1       9.952  31.527  59.169  1.00  0.00    -0.135 NA
ENDROOT
BRANCH   1  12
HETATM   12  C   UNL     1       5.612  28.384  56.794  1.00  0.00     0.280 C 
BRANCH  12  13
HETATM   13  C   UNL     1       6.060  27.034  56.303  1.00  0.00     0.009 A 
HETATM   14  S   UNL     1       6.963  26.873  54.854  1.00  0.00    -0.096 SA
HETATM   15  C   UNL     1       7.140  25.175  55.051  1.00  0.00     0.009 A 
HETATM   16  C   UNL     1       6.503  24.743  56.198  1.00  0.00     0.017 A 
HETATM   17  C   UNL     1       5.874  25.808  56.911  1.00  0.00     0.017 A 
BRANCH  15  18
HETATM   18  C   UNL     1       7.956  24.381  54.066  1.00  0.00     0.280 C 
BRANCH  18  19
HETATM   19  N   UNL     1       7.955  22.888  54.328  1.00  0.00    -0.067 N 
HETATM   20  H   UNL     1       7.098  22.679  54.854  1.00  0.00     0.280 HD
HETATM   21  C   UNL     1       7.931  22.067  53.059  1.00  0.00     0.235 C 
HETATM   22  C   UNL     1       7.807  20.591  53.410  1.00  0.00     0.028 C 
HETATM   23  C   UNL     1       8.927  20.138  54.338  1.00  0.00     0.003 C 
HETATM   24  C   UNL     1       9.003  21.018  55.580  1.00  0.00     0.028 C 
HETATM   25  C   UNL     1       9.117  22.493  55.221  1.00  0.00     0.235 C 
ENDBRANCH  18  19
ENDBRANCH  15  18
ENDBRANCH  12  13
ENDBRANCH   1  12
BRANCH   9  26
HETATM   26  C   UNL     1       7.225  33.147  60.921  1.00  0.00     0.100 C 
BRANCH  26  27
HETATM   27  C   UNL     1       7.360  32.856  62.417  1.00  0.00     0.130 C 
BRANCH  27  28
HETATM   28  N   UNL     1       6.158  32.933  63.241  1.00  0.00    -0.360 N 
HETATM   29  C   UNL     1       6.086  33.359  64.545  1.00  0.00     0.222 C 
HETATM   30  O   UNL     1       7.067  33.577  65.253  1.00  0.00    -0.273 OA
HETATM   31  H   UNL     1       5.287  32.845  62.728  1.00  0.00     0.162 HD
BRANCH  29  32
HETATM   32  C   UNL     1       4.646  33.479  65.061  1.00  0.00     0.082 C 
HETATM   33  C   UNL     1       4.613  33.983  66.507  1.00  0.00     0.040 C 
HETATM   34  C   UNL     1       4.974  35.461  66.577  1.00  0.00     0.168 C 
HETATM   35  O   UNL     1       4.120  36.250  65.747  1.00  0.00    -0.391 OA
HETATM   36  C   UNL     1       4.140  35.865  64.378  1.00  0.00     0.168 C 
HETATM   37  C   UNL     1       3.794  34.396  64.179  1.00  0.00     0.040 C 
ENDBRANCH  29  32
ENDBRANCH  27  28
ENDBRANCH  26  27
ENDBRANCH   9  26
TORSDOF 8
ENDMDL
MODEL 9
REMARK VINA RESULT:      -9.1      5.390     11.650
REMARK  8 active torsions:
REMARK  status: ('A' for Active; 'I' for Inactive)
REMARK    1  A    between atoms: C_2  and  C_3 
REMARK    2  A    between atoms: C_3  and  N_4 
REMARK    3  A    between atoms: C_12  and  C_13 
REMARK    4  A    between atoms: C_13  and  N_14 
REMARK    5  A    between atoms: C_22  and  C_23 
REMARK    6  A    between atoms: C_23  and  C_24 
REMARK    7  A    between atoms: C_24  and  N_25 
REMARK       I    between atoms: N_25  and  C_26 
REMARK    8  A    between atoms: C_26  and  C_27 
ROOT
HETATM    1  N   UNL     1       7.729  28.158  56.771  1.00  0.00    -0.065 N 
HETATM    2  H   UNL     1       7.018  28.395  57.478  1.00  0.00     0.280 HD
HETATM    3  C   UNL     1       6.987  28.131  55.437  1.00  0.00     0.255 C 
HETATM    4  C   UNL     1       7.678  27.274  54.384  1.00  0.00     0.159 C 
HETATM    5  N   UNL     1       7.335  25.874  54.499  1.00  0.00    -0.319 N 
HETATM    6  C   UNL     1       7.221  25.155  55.667  1.00  0.00     0.131 A 
HETATM    7  C   UNL     1       7.347  25.669  57.058  1.00  0.00     0.108 C 
HETATM    8  C   UNL     1       8.327  26.822  57.215  1.00  0.00     0.243 C 
HETATM    9  C   UNL     1       7.039  24.999  53.482  1.00  0.00     0.131 A 
HETATM   10  N   UNL     1       6.820  23.813  54.008  1.00  0.00    -0.135 NA
HETATM   11  N   UNL     1       6.921  23.913  55.366  1.00  0.00    -0.135 NA
ENDROOT
BRANCH   1  12
HETATM   12  C   UNL     1       8.762  29.269  56.878  1.00  0.00     0.280 C 
BRANCH  12  13
HETATM   13  C   UNL     1       8.439  30.323  57.901  1.00  0.00     0.009 A 
HETATM   14  S   UNL     1       6.815  30.717  58.288  1.00  0.00    -0.096 SA
HETATM   15  C   UNL     1       7.284  31.835  59.504  1.00  0.00     0.009 A 
HETATM   16  C   UNL     1       8.660  31.915  59.598  1.00  0.00     0.017 A 
HETATM   17  C   UNL     1       9.323  31.054  58.671  1.00  0.00     0.017 A 
BRANCH  15  18
HETATM   18  C   UNL     1       6.239  32.533  60.333  1.00  0.00     0.280 C 
BRANCH  18  19
HETATM   19  N   UNL     1       6.769  33.118  61.628  1.00  0.00    -0.067 N 
HETATM   20  H   UNL     1       7.571  33.709  61.380  1.00  0.00     0.280 HD
HETATM   21  C   UNL     1       5.757  33.987  62.339  1.00  0.00     0.235 C 
HETATM   22  C   UNL     1       6.405  34.630  63.556  1.00  0.00     0.028 C 
HETATM   23  C   UNL     1       6.993  33.587  64.498  1.00  0.00     0.003 C 
HETATM   24  C   UNL     1       7.952  32.660  63.761  1.00  0.00     0.028 C 
HETATM   25  C   UNL     1       7.300  32.028  62.539  1.00  0.00     0.235 C 
ENDBRANCH  18  19
ENDBRANCH  15  18
ENDBRANCH  12  13
ENDBRANCH   1  12
BRANCH   9  26
HETATM   26  C   UNL     1       6.964  25.323  52.028  1.00  0.00     0.100 C 
BRANCH  26  27
HETATM   27  C   UNL     1       5.660  26.023  51.641  1.00  0.00     0.130 C 
BRANCH  27  28
HETATM   28  N   UNL     1       5.497  26.449  50.254  1.00  0.00    -0.360 N 
HETATM   29  C   UNL     1       4.770  27.526  49.809  1.00  0.00     0.222 C 
HETATM   30  O   UNL     1       4.013  28.186  50.519  1.00  0.00    -0.273 OA
HETATM   31  H   UNL     1       6.139  26.014  49.600  1.00  0.00     0.162 HD
BRANCH  29  32
HETATM   32  C   UNL     1       4.947  27.794  48.310  1.00  0.00     0.082 C 
HETATM   33  C   UNL     1       4.828  26.501  47.496  1.00  0.00     0.040 C 
HETATM   34  C   UNL     1       3.384  26.022  47.443  1.00  0.00     0.168 C 
HETATM   35  O   UNL     1       2.514  27.029  46.923  1.00  0.00    -0.391 OA
HETATM   36  C   UNL     1       2.540  28.244  47.663  1.00  0.00     0.168 C 
HETATM   37  C   UNL     1       3.943  28.824  47.786  1.00  0.00     0.040 C 
ENDBRANCH  29  32
ENDBRANCH  27  28
ENDBRANCH  26  27
ENDBRANCH   9  26
TORSDOF 8
ENDMDL
MODEL 10
REMARK VINA RESULT:      -9.0      5.101     12.295
REMARK  8 active torsions:
REMARK  status: ('A' for Active; 'I' for Inactive)
REMARK    1  A    between atoms: C_2  and  C_3 
REMARK    2  A    between atoms: C_3  and  N_4 
REMARK    3  A    between atoms: C_12  and  C_13 
REMARK    4  A    between atoms: C_13  and  N_14 
REMARK    5  A    between atoms: C_22  and  C_23 
REMARK    6  A    between atoms: C_23  and  C_24 
REMARK    7  A    between atoms: C_24  and  N_25 
REMARK       I    between atoms: N_25  and  C_26 
REMARK    8  A    between atoms: C_26  and  C_27 
ROOT
HETATM    1  N   UNL     1       6.658  32.790  63.714  1.00  0.00    -0.065 N 
HETATM    2  H   UNL     1       6.486  32.123  64.480  1.00  0.00     0.280 HD
HETATM    3  C   UNL     1       5.618  32.462  62.645  1.00  0.00     0.255 C 
HETATM    4  C   UNL     1       6.032  32.907  61.248  1.00  0.00     0.159 C 
HETATM    5  N   UNL     1       6.881  31.939  60.589  1.00  0.00    -0.319 N 
HETATM    6  C   UNL     1       7.911  31.231  61.165  1.00  0.00     0.131 A 
HETATM    7  C   UNL     1       8.326  31.245  62.595  1.00  0.00     0.108 C 
HETATM    8  C   UNL     1       8.114  32.577  63.298  1.00  0.00     0.243 C 
HETATM    9  C   UNL     1       6.819  31.525  59.280  1.00  0.00     0.131 A 
HETATM   10  N   UNL     1       7.792  30.664  59.073  1.00  0.00    -0.135 NA
HETATM   11  N   UNL     1       8.463  30.473  60.247  1.00  0.00    -0.135 NA
ENDROOT
BRANCH   1  12
HETATM   12  C   UNL     1       6.477  34.159  64.348  1.00  0.00     0.280 C 
BRANCH  12  13
HETATM   13  C   UNL     1       5.867  34.134  65.723  1.00  0.00     0.009 A 
HETATM   14  S   UNL     1       6.817  34.429  67.120  1.00  0.00    -0.096 SA
HETATM   15  C   UNL     1       5.461  34.325  68.170  1.00  0.00     0.009 A 
HETATM   16  C   UNL     1       4.307  34.052  67.461  1.00  0.00     0.017 A 
HETATM   17  C   UNL     1       4.542  33.933  66.058  1.00  0.00     0.017 A 
BRANCH  15  18
HETATM   18  C   UNL     1       5.627  34.575  69.646  1.00  0.00     0.280 C 
BRANCH  18  19
HETATM   19  N   UNL     1       6.625  33.653  70.318  1.00  0.00    -0.067 N 
HETATM   20  H   UNL     1       7.330  33.412  69.611  1.00  0.00     0.280 HD
HETATM   21  C   UNL     1       7.341  34.305  71.479  1.00  0.00     0.235 C 
HETATM   22  C   UNL     1       8.406  33.361  72.016  1.00  0.00     0.028 C 
HETATM   23  C   UNL     1       7.814  32.016  72.419  1.00  0.00     0.003 C 
HETATM   24  C   UNL     1       7.024  31.397  71.273  1.00  0.00     0.028 C 
HETATM   25  C   UNL     1       5.968  32.351  70.734  1.00  0.00     0.235 C 
ENDBRANCH  18  19
ENDBRANCH  15  18
ENDBRANCH  12  13
ENDBRANCH   1  12
BRANCH   9  26
HETATM   26  C   UNL     1       5.819  31.958  58.262  1.00  0.00     0.100 C 
BRANCH  26  27
HETATM   27  C   UNL     1       4.670  30.961  58.093  1.00  0.00     0.130 C 
BRANCH  27  28
HETATM   28  N   UNL     1       5.009  29.559  57.871  1.00  0.00    -0.360 N 
HETATM   29  C   UNL     1       4.727  28.817  56.749  1.00  0.00     0.222 C 
HETATM   30  O   UNL     1       3.995  29.198  55.839  1.00  0.00    -0.273 OA
HETATM   31  H   UNL     1       5.676  29.175  58.531  1.00  0.00     0.162 HD
BRANCH  29  32
HETATM   32  C   UNL     1       5.373  27.426  56.770  1.00  0.00     0.082 C 
HETATM   33  C   UNL     1       5.420  26.814  55.366  1.00  0.00     0.040 C 
HETATM   34  C   UNL     1       6.469  27.507  54.505  1.00  0.00     0.168 C 
HETATM   35  O   UNL     1       7.759  27.470  55.117  1.00  0.00    -0.391 OA
HETATM   36  C   UNL     1       7.796  28.067  56.408  1.00  0.00     0.168 C 
HETATM   37  C   UNL     1       6.783  27.454  57.365  1.00  0.00     0.040 C 
ENDBRANCH  29  32
ENDBRANCH  27  28
ENDBRANCH  26  27
ENDBRANCH   9  26
TORSDOF 8
ENDMDL
