MODEL 1
REMARK VINA RESULT:      -9.6      0.000      0.000
REMARK  5 active torsions:
REMARK  status: ('A' for Active; 'I' for Inactive)
REMARK    1  A    between atoms: C_4  and  C_5 
REMARK    2  A    between atoms: C_5  and  C_6 
REMARK    3  A    between atoms: C_10  and  C_11 
REMARK       I    between atoms: C_11  and  N_12 
REMARK    4  A    between atoms: N_12  and  N_13 
REMARK    5  A    between atoms: N_13  and  C_14 
ROOT
HETATM    1  C   UNL     1       9.105  30.194  58.163  1.00  0.00     0.033 A 
HETATM    2  C   UNL     1       9.915  29.491  57.289  1.00  0.00     0.104 A 
HETATM    3  N   UNL     1       9.187  28.461  56.755  1.00  0.00    -0.360 N 
HETATM    4  H   UNL     1       9.519  27.785  56.077  1.00  0.00     0.165 HD
HETATM    5  C   UNL     1       7.908  28.462  57.265  1.00  0.00     0.102 A 
HETATM    6  C   UNL     1       7.849  29.513  58.166  1.00  0.00     0.052 A 
ENDROOT
BRANCH   5   7
HETATM    7  C   UNL     1       6.923  27.494  56.835  1.00  0.00     0.282 C 
HETATM    8  N   UNL     1       7.376  26.526  55.959  1.00  0.00    -0.280 N 
HETATM    9  H   UNL     1       8.202  26.686  55.383  1.00  0.00     0.184 HD
HETATM   10  O   UNL     1       5.753  27.526  57.222  1.00  0.00    -0.265 OA
BRANCH   8  11
HETATM   11  N   UNL     1       6.401  25.679  55.369  1.00  0.00    -0.186 NA
HETATM   12  H   UNL     1       5.845  26.204  54.686  1.00  0.00     0.154 HD
BRANCH  11  13
HETATM   13  C   UNL     1       6.997  24.548  54.755  1.00  0.00     0.122 A 
HETATM   14  N   UNL     1       7.091  23.386  55.441  1.00  0.00    -0.223 NA
HETATM   15  C   UNL     1       7.622  22.332  54.789  1.00  0.00     0.128 A 
HETATM   16 CL   UNL     1       7.725  20.898  55.725  1.00  0.00    -0.062 Cl
HETATM   17  C   UNL     1       8.058  22.353  53.476  1.00  0.00     0.044 A 
HETATM   18  C   UNL     1       7.938  23.547  52.778  1.00  0.00     0.007 A 
HETATM   19  C   UNL     1       7.398  24.657  53.422  1.00  0.00     0.046 A 
ENDBRANCH  11  13
ENDBRANCH   8  11
ENDBRANCH   5   7
BRANCH   1  20
HETATM   20  C   UNL     1       9.450  31.363  58.971  1.00  0.00     0.193 C 
HETATM   21  O   UNL     1      10.202  32.237  58.545  1.00  0.00    -0.287 OA
BRANCH  20  22
HETATM   22  C   UNL     1       8.897  31.511  60.344  1.00  0.00     0.015 A 
HETATM   23  C   UNL     1       8.088  32.619  60.623  1.00  0.00     0.015 A 
HETATM   24  C   UNL     1       7.580  32.811  61.910  1.00  0.00     0.001 A 
HETATM   25  C   UNL     1       7.891  31.904  62.923  1.00  0.00     0.000 A 
HETATM   26  C   UNL     1       8.714  30.810  62.657  1.00  0.00     0.001 A 
HETATM   27  C   UNL     1       9.224  30.615  61.372  1.00  0.00     0.015 A 
ENDBRANCH  20  22
ENDBRANCH   1  20
TORSDOF 5
ENDMDL
MODEL 2
REMARK VINA RESULT:      -9.5      1.329      1.879
REMARK  5 active torsions:
REMARK  status: ('A' for Active; 'I' for Inactive)
REMARK    1  A    between atoms: C_4  and  C_5 
REMARK    2  A    between atoms: C_5  and  C_6 
REMARK    3  A    between atoms: C_10  and  C_11 
REMARK       I    between atoms: C_11  and  N_12 
REMARK    4  A    between atoms: N_12  and  N_13 
REMARK    5  A    between atoms: N_13  and  C_14 
ROOT
HETATM    1  C   UNL     1       9.093  30.111  58.218  1.00  0.00     0.033 A 
HETATM    2  C   UNL     1       9.836  29.429  57.271  1.00  0.00     0.104 A 
HETATM    3  N   UNL     1       9.117  28.339  56.857  1.00  0.00    -0.360 N 
HETATM    4  H   UNL     1       9.409  27.662  56.162  1.00  0.00     0.165 HD
HETATM    5  C   UNL     1       7.911  28.280  57.518  1.00  0.00     0.102 A 
HETATM    6  C   UNL     1       7.892  29.356  58.390  1.00  0.00     0.052 A 
ENDROOT
BRANCH   5   7
HETATM    7  C   UNL     1       6.946  27.240  57.236  1.00  0.00     0.282 C 
HETATM    8  N   UNL     1       7.428  25.946  57.281  1.00  0.00    -0.280 N 
HETATM    9  H   UNL     1       8.421  25.752  57.153  1.00  0.00     0.184 HD
HETATM   10  O   UNL     1       5.768  27.487  56.971  1.00  0.00    -0.265 OA
BRANCH   8  11
HETATM   11  N   UNL     1       6.563  24.916  56.825  1.00  0.00    -0.186 NA
HETATM   12  H   UNL     1       5.640  25.302  56.606  1.00  0.00     0.154 HD
BRANCH  11  13
HETATM   13  C   UNL     1       7.099  24.248  55.695  1.00  0.00     0.122 A 
HETATM   14  N   UNL     1       7.199  24.903  54.516  1.00  0.00    -0.223 NA
HETATM   15  C   UNL     1       7.762  24.233  53.490  1.00  0.00     0.128 A 
HETATM   16 CL   UNL     1       7.841  25.119  52.023  1.00  0.00    -0.062 Cl
HETATM   17  C   UNL     1       8.252  22.942  53.563  1.00  0.00     0.044 A 
HETATM   18  C   UNL     1       8.159  22.287  54.784  1.00  0.00     0.007 A 
HETATM   19  C   UNL     1       7.580  22.948  55.864  1.00  0.00     0.046 A 
ENDBRANCH  11  13
ENDBRANCH   8  11
ENDBRANCH   5   7
BRANCH   1  20
HETATM   20  C   UNL     1       9.455  31.326  58.946  1.00  0.00     0.193 C 
HETATM   21  O   UNL     1      10.195  32.173  58.452  1.00  0.00    -0.287 OA
BRANCH  20  22
HETATM   22  C   UNL     1       8.936  31.554  60.321  1.00  0.00     0.015 A 
HETATM   23  C   UNL     1       9.257  30.626  61.320  1.00  0.00     0.015 A 
HETATM   24  C   UNL     1       8.759  30.786  62.614  1.00  0.00     0.001 A 
HETATM   25  C   UNL     1       7.928  31.867  62.911  1.00  0.00     0.000 A 
HETATM   26  C   UNL     1       7.586  32.782  61.916  1.00  0.00     0.001 A 
HETATM   27  C   UNL     1       8.083  32.625  60.621  1.00  0.00     0.015 A 
ENDBRANCH  20  22
ENDBRANCH   1  20
TORSDOF 5
ENDMDL
MODEL 3
REMARK VINA RESULT:      -9.5      3.103      8.943
REMARK  5 active torsions:
REMARK  status: ('A' for Active; 'I' for Inactive)
REMARK    1  A    between atoms: C_4  and  C_5 
REMARK    2  A    between atoms: C_5  and  C_6 
REMARK    3  A    between atoms: C_10  and  C_11 
REMARK       I    between atoms: C_11  and  N_12 
REMARK    4  A    between atoms: N_12  and  N_13 
REMARK    5  A    between atoms: N_13  and  C_14 
ROOT
HETATM    1  C   UNL     1       6.691  25.253  54.045  1.00  0.00     0.033 A 
HETATM    2  C   UNL     1       5.310  25.265  53.949  1.00  0.00     0.104 A 
HETATM    3  N   UNL     1       4.828  26.266  54.749  1.00  0.00    -0.360 N 
HETATM    4  H   UNL     1       3.853  26.514  54.871  1.00  0.00     0.165 HD
HETATM    5  C   UNL     1       5.864  26.916  55.383  1.00  0.00     0.102 A 
HETATM    6  C   UNL     1       7.027  26.280  54.981  1.00  0.00     0.052 A 
ENDROOT
BRANCH   5   7
HETATM    7  C   UNL     1       5.625  28.041  56.260  1.00  0.00     0.282 C 
HETATM    8  N   UNL     1       6.706  28.453  57.014  1.00  0.00    -0.280 N 
HETATM    9  H   UNL     1       7.475  27.817  57.219  1.00  0.00     0.184 HD
HETATM   10  O   UNL     1       4.529  28.599  56.334  1.00  0.00    -0.265 OA
BRANCH   8  11
HETATM   11  N   UNL     1       6.462  29.425  58.020  1.00  0.00    -0.186 NA
HETATM   12  H   UNL     1       6.072  28.977  58.856  1.00  0.00     0.154 HD
BRANCH  11  13
HETATM   13  C   UNL     1       7.640  30.142  58.350  1.00  0.00     0.122 A 
HETATM   14  N   UNL     1       8.817  29.791  57.783  1.00  0.00    -0.223 NA
HETATM   15  C   UNL     1       9.894  30.539  58.095  1.00  0.00     0.128 A 
HETATM   16 CL   UNL     1      11.354  30.027  57.354  1.00  0.00    -0.062 Cl
HETATM   17  C   UNL     1       9.875  31.639  58.935  1.00  0.00     0.044 A 
HETATM   18  C   UNL     1       8.657  31.999  59.495  1.00  0.00     0.007 A 
HETATM   19  C   UNL     1       7.525  31.246  59.197  1.00  0.00     0.046 A 
ENDBRANCH  11  13
ENDBRANCH   8  11
ENDBRANCH   5   7
BRANCH   1  20
HETATM   20  C   UNL     1       7.635  24.355  53.379  1.00  0.00     0.193 C 
HETATM   21  O   UNL     1       8.295  24.724  52.411  1.00  0.00    -0.287 OA
BRANCH  20  22
HETATM   22  C   UNL     1       7.803  22.959  53.863  1.00  0.00     0.015 A 
HETATM   23  C   UNL     1       7.992  21.943  52.918  1.00  0.00     0.015 A 
HETATM   24  C   UNL     1       8.118  20.615  53.331  1.00  0.00     0.001 A 
HETATM   25  C   UNL     1       8.042  20.297  54.687  1.00  0.00     0.000 A 
HETATM   26  C   UNL     1       7.833  21.302  55.631  1.00  0.00     0.001 A 
HETATM   27  C   UNL     1       7.706  22.631  55.222  1.00  0.00     0.015 A 
ENDBRANCH  20  22
ENDBRANCH   1  20
TORSDOF 5
ENDMDL
MODEL 4
REMARK VINA RESULT:      -9.3      3.526      9.151
REMARK  5 active torsions:
REMARK  status: ('A' for Active; 'I' for Inactive)
REMARK    1  A    between atoms: C_4  and  C_5 
REMARK    2  A    between atoms: C_5  and  C_6 
REMARK    3  A    between atoms: C_10  and  C_11 
REMARK       I    between atoms: C_11  and  N_12 
REMARK    4  A    between atoms: N_12  and  N_13 
REMARK    5  A    between atoms: N_13  and  C_14 
ROOT
HETATM    1  C   UNL     1       6.862  25.196  56.660  1.00  0.00     0.033 A 
HETATM    2  C   UNL     1       5.500  25.178  56.418  1.00  0.00     0.104 A 
HETATM    3  N   UNL     1       4.998  26.426  56.672  1.00  0.00    -0.360 N 
HETATM    4  H   UNL     1       4.030  26.711  56.572  1.00  0.00     0.165 HD
HETATM    5  C   UNL     1       6.001  27.274  57.086  1.00  0.00     0.102 A 
HETATM    6  C   UNL     1       7.162  26.517  57.115  1.00  0.00     0.052 A 
ENDROOT
BRANCH   5   7
HETATM    7  C   UNL     1       5.740  28.665  57.384  1.00  0.00     0.282 C 
HETATM    8  N   UNL     1       6.732  29.325  58.083  1.00  0.00    -0.280 N 
HETATM    9  H   UNL     1       7.401  28.810  58.655  1.00  0.00     0.184 HD
HETATM   10  O   UNL     1       4.701  29.230  57.039  1.00  0.00    -0.265 OA
BRANCH   8  11
HETATM   11  N   UNL     1       6.432  30.629  58.558  1.00  0.00    -0.186 NA
HETATM   12  H   UNL     1       5.575  30.611  59.120  1.00  0.00     0.154 HD
BRANCH  11  13
HETATM   13  C   UNL     1       7.505  31.168  59.312  1.00  0.00     0.122 A 
HETATM   14  N   UNL     1       7.316  31.480  60.615  1.00  0.00    -0.223 NA
HETATM   15  C   UNL     1       8.385  31.942  61.294  1.00  0.00     0.128 A 
HETATM   16 CL   UNL     1       8.069  32.333  62.934  1.00  0.00    -0.062 Cl
HETATM   17  C   UNL     1       9.651  32.104  60.760  1.00  0.00     0.044 A 
HETATM   18  C   UNL     1       9.836  31.763  59.427  1.00  0.00     0.007 A 
HETATM   19  C   UNL     1       8.752  31.286  58.695  1.00  0.00     0.046 A 
ENDBRANCH  11  13
ENDBRANCH   8  11
ENDBRANCH   5   7
BRANCH   1  20
HETATM   20  C   UNL     1       7.816  24.094  56.536  1.00  0.00     0.193 C 
HETATM   21  O   UNL     1       8.637  23.855  57.419  1.00  0.00    -0.287 OA
BRANCH  20  22
HETATM   22  C   UNL     1       7.816  23.241  55.317  1.00  0.00     0.015 A 
HETATM   23  C   UNL     1       7.778  21.850  55.475  1.00  0.00     0.015 A 
HETATM   24  C   UNL     1       7.813  21.016  54.356  1.00  0.00     0.001 A 
HETATM   25  C   UNL     1       7.900  21.569  53.078  1.00  0.00     0.000 A 
HETATM   26  C   UNL     1       7.960  22.952  52.916  1.00  0.00     0.001 A 
HETATM   27  C   UNL     1       7.925  23.790  54.032  1.00  0.00     0.015 A 
ENDBRANCH  20  22
ENDBRANCH   1  20
TORSDOF 5
ENDMDL
MODEL 5
REMARK VINA RESULT:      -9.3      3.505      9.078
REMARK  5 active torsions:
REMARK  status: ('A' for Active; 'I' for Inactive)
REMARK    1  A    between atoms: C_4  and  C_5 
REMARK    2  A    between atoms: C_5  and  C_6 
REMARK    3  A    between atoms: C_10  and  C_11 
REMARK       I    between atoms: C_11  and  N_12 
REMARK    4  A    between atoms: N_12  and  N_13 
REMARK    5  A    between atoms: N_13  and  C_14 
ROOT
HETATM    1  C   UNL     1       6.607  24.904  53.871  1.00  0.00     0.033 A 
HETATM    2  C   UNL     1       5.233  25.042  53.799  1.00  0.00     0.104 A 
HETATM    3  N   UNL     1       4.850  26.032  54.665  1.00  0.00    -0.360 N 
HETATM    4  H   UNL     1       3.902  26.357  54.817  1.00  0.00     0.165 HD
HETATM    5  C   UNL     1       5.946  26.549  55.319  1.00  0.00     0.102 A 
HETATM    6  C   UNL     1       7.043  25.838  54.861  1.00  0.00     0.052 A 
ENDROOT
BRANCH   5   7
HETATM    7  C   UNL     1       5.818  27.635  56.265  1.00  0.00     0.282 C 
HETATM    8  N   UNL     1       6.967  27.967  56.957  1.00  0.00    -0.280 N 
HETATM    9  H   UNL     1       7.722  27.292  57.072  1.00  0.00     0.184 HD
HETATM   10  O   UNL     1       4.754  28.229  56.448  1.00  0.00    -0.265 OA
BRANCH   8  11
HETATM   11  N   UNL     1       6.836  28.894  58.024  1.00  0.00    -0.186 NA
HETATM   12  H   UNL     1       6.667  28.396  58.904  1.00  0.00     0.154 HD
BRANCH  11  13
HETATM   13  C   UNL     1       7.981  29.722  58.139  1.00  0.00     0.122 A 
HETATM   14  N   UNL     1       8.063  30.614  59.153  1.00  0.00    -0.223 NA
HETATM   15  C   UNL     1       9.196  31.339  59.240  1.00  0.00     0.128 A 
HETATM   16 CL   UNL     1       9.223  32.460  60.538  1.00  0.00    -0.062 Cl
HETATM   17  C   UNL     1      10.275  31.225  58.382  1.00  0.00     0.044 A 
HETATM   18  C   UNL     1      10.185  30.293  57.356  1.00  0.00     0.007 A 
HETATM   19  C   UNL     1       9.027  29.529  57.235  1.00  0.00     0.046 A 
ENDBRANCH  11  13
ENDBRANCH   8  11
ENDBRANCH   5   7
BRANCH   1  20
HETATM   20  C   UNL     1       7.460  23.969  53.138  1.00  0.00     0.193 C 
HETATM   21  O   UNL     1       7.957  24.269  52.055  1.00  0.00    -0.287 OA
BRANCH  20  22
HETATM   22  C   UNL     1       7.734  22.616  53.693  1.00  0.00     0.015 A 
HETATM   23  C   UNL     1       7.647  22.432  55.079  1.00  0.00     0.015 A 
HETATM   24  C   UNL     1       7.932  21.186  55.640  1.00  0.00     0.001 A 
HETATM   25  C   UNL     1       8.318  20.125  54.821  1.00  0.00     0.000 A 
HETATM   26  C   UNL     1       8.428  20.308  53.443  1.00  0.00     0.001 A 
HETATM   27  C   UNL     1       8.144  21.553  52.878  1.00  0.00     0.015 A 
ENDBRANCH  20  22
ENDBRANCH   1  20
TORSDOF 5
ENDMDL
MODEL 6
REMARK VINA RESULT:      -9.1      7.433      9.967
REMARK  5 active torsions:
REMARK  status: ('A' for Active; 'I' for Inactive)
REMARK    1  A    between atoms: C_4  and  C_5 
REMARK    2  A    between atoms: C_5  and  C_6 
REMARK    3  A    between atoms: C_10  and  C_11 
REMARK       I    between atoms: C_11  and  N_12 
REMARK    4  A    between atoms: N_12  and  N_13 
REMARK    5  A    between atoms: N_13  and  C_14 
ROOT
HETATM    1  C   UNL     1       6.319  25.027  53.289  1.00  0.00     0.033 A 
HETATM    2  C   UNL     1       4.951  24.864  53.165  1.00  0.00     0.104 A 
HETATM    3  N   UNL     1       4.519  25.610  52.101  1.00  0.00    -0.360 N 
HETATM    4  H   UNL     1       3.564  25.676  51.768  1.00  0.00     0.165 HD
HETATM    5  C   UNL     1       5.576  26.273  51.518  1.00  0.00     0.102 A 
HETATM    6  C   UNL     1       6.698  25.948  52.263  1.00  0.00     0.052 A 
ENDROOT
BRANCH   5   7
HETATM    7  C   UNL     1       5.393  27.104  50.349  1.00  0.00     0.282 C 
HETATM    8  N   UNL     1       5.070  26.436  49.183  1.00  0.00    -0.280 N 
HETATM    9  H   UNL     1       5.301  25.451  49.063  1.00  0.00     0.184 HD
HETATM   10  O   UNL     1       5.518  28.330  50.384  1.00  0.00    -0.265 OA
BRANCH   8  11
HETATM   11  N   UNL     1       5.070  27.193  47.982  1.00  0.00    -0.186 NA
HETATM   12  H   UNL     1       5.545  26.671  47.237  1.00  0.00     0.154 HD
BRANCH  11  13
HETATM   13  C   UNL     1       3.754  27.535  47.581  1.00  0.00     0.122 A 
HETATM   14  N   UNL     1       3.450  28.827  47.320  1.00  0.00    -0.223 NA
HETATM   15  C   UNL     1       2.197  29.086  46.896  1.00  0.00     0.128 A 
HETATM   16 CL   UNL     1       1.876  30.746  46.600  1.00  0.00    -0.062 Cl
HETATM   17  C   UNL     1       1.216  28.131  46.697  1.00  0.00     0.044 A 
HETATM   18  C   UNL     1       1.547  26.807  46.951  1.00  0.00     0.007 A 
HETATM   19  C   UNL     1       2.832  26.504  47.394  1.00  0.00     0.046 A 
ENDBRANCH  11  13
ENDBRANCH   8  11
ENDBRANCH   5   7
BRANCH   1  20
HETATM   20  C   UNL     1       7.213  24.436  54.284  1.00  0.00     0.193 C 
HETATM   21  O   UNL     1       7.725  25.116  55.170  1.00  0.00    -0.287 OA
BRANCH  20  22
HETATM   22  C   UNL     1       7.530  22.984  54.232  1.00  0.00     0.015 A 
HETATM   23  C   UNL     1       7.571  22.265  55.434  1.00  0.00     0.015 A 
HETATM   24  C   UNL     1       7.900  20.908  55.429  1.00  0.00     0.001 A 
HETATM   25  C   UNL     1       8.204  20.269  54.226  1.00  0.00     0.000 A 
HETATM   26  C   UNL     1       8.187  20.985  53.029  1.00  0.00     0.001 A 
HETATM   27  C   UNL     1       7.858  22.342  53.030  1.00  0.00     0.015 A 
ENDBRANCH  20  22
ENDBRANCH   1  20
TORSDOF 5
ENDMDL
MODEL 7
REMARK VINA RESULT:      -9.0      5.905      8.384
REMARK  5 active torsions:
REMARK  status: ('A' for Active; 'I' for Inactive)
REMARK    1  A    between atoms: C_4  and  C_5 
REMARK    2  A    between atoms: C_5  and  C_6 
REMARK    3  A    between atoms: C_10  and  C_11 
REMARK       I    between atoms: C_11  and  N_12 
REMARK    4  A    between atoms: N_12  and  N_13 
REMARK    5  A    between atoms: N_13  and  C_14 
ROOT
HETATM    1  C   UNL     1       6.749  25.029  55.875  1.00  0.00     0.033 A 
HETATM    2  C   UNL     1       5.693  25.202  56.752  1.00  0.00     0.104 A 
HETATM    3  N   UNL     1       4.869  26.175  56.253  1.00  0.00    -0.360 N 
HETATM    4  H   UNL     1       4.011  26.506  56.679  1.00  0.00     0.165 HD
HETATM    5  C   UNL     1       5.362  26.658  55.062  1.00  0.00     0.102 A 
HETATM    6  C   UNL     1       6.547  25.979  54.827  1.00  0.00     0.052 A 
ENDROOT
BRANCH   5   7
HETATM    7  C   UNL     1       4.658  27.672  54.309  1.00  0.00     0.282 C 
HETATM    8  N   UNL     1       3.913  27.215  53.239  1.00  0.00    -0.280 N 
HETATM    9  H   UNL     1       4.127  26.323  52.794  1.00  0.00     0.184 HD
HETATM   10  O   UNL     1       4.716  28.869  54.597  1.00  0.00    -0.265 OA
BRANCH   8  11
HETATM   11  N   UNL     1       3.365  28.192  52.366  1.00  0.00    -0.186 NA
HETATM   12  H   UNL     1       3.251  29.082  52.861  1.00  0.00     0.154 HD
BRANCH  11  13
HETATM   13  C   UNL     1       4.168  28.368  51.211  1.00  0.00     0.122 A 
HETATM   14  N   UNL     1       4.124  27.450  50.219  1.00  0.00    -0.223 NA
HETATM   15  C   UNL     1       4.871  27.695  49.124  1.00  0.00     0.128 A 
HETATM   16 CL   UNL     1       4.779  26.482  47.915  1.00  0.00    -0.062 Cl
HETATM   17  C   UNL     1       5.661  28.816  48.942  1.00  0.00     0.044 A 
HETATM   18  C   UNL     1       5.683  29.760  49.960  1.00  0.00     0.007 A 
HETATM   19  C   UNL     1       4.925  29.536  51.106  1.00  0.00     0.046 A 
ENDBRANCH  11  13
ENDBRANCH   8  11
ENDBRANCH   5   7
BRANCH   1  20
HETATM   20  C   UNL     1       7.880  24.108  55.994  1.00  0.00     0.193 C 
HETATM   21  O   UNL     1       8.812  24.335  56.761  1.00  0.00    -0.287 OA
BRANCH  20  22
HETATM   22  C   UNL     1       7.926  22.873  55.167  1.00  0.00     0.015 A 
HETATM   23  C   UNL     1       7.912  23.002  53.772  1.00  0.00     0.015 A 
HETATM   24  C   UNL     1       7.918  21.864  52.962  1.00  0.00     0.001 A 
HETATM   25  C   UNL     1       7.924  20.596  53.544  1.00  0.00     0.000 A 
HETATM   26  C   UNL     1       7.916  20.461  54.932  1.00  0.00     0.001 A 
HETATM   27  C   UNL     1       7.910  21.596  55.744  1.00  0.00     0.015 A 
ENDBRANCH  20  22
ENDBRANCH   1  20
TORSDOF 5
ENDMDL
MODEL 8
REMARK VINA RESULT:      -8.9      1.510      2.104
REMARK  5 active torsions:
REMARK  status: ('A' for Active; 'I' for Inactive)
REMARK    1  A    between atoms: C_4  and  C_5 
REMARK    2  A    between atoms: C_5  and  C_6 
REMARK    3  A    between atoms: C_10  and  C_11 
REMARK       I    between atoms: C_11  and  N_12 
REMARK    4  A    between atoms: N_12  and  N_13 
REMARK    5  A    between atoms: N_13  and  C_14 
ROOT
HETATM    1  C   UNL     1       8.567  30.439  57.973  1.00  0.00     0.033 A 
HETATM    2  C   UNL     1       7.243  30.054  58.094  1.00  0.00     0.104 A 
HETATM    3  N   UNL     1       6.936  29.224  57.049  1.00  0.00    -0.360 N 
HETATM    4  H   UNL     1       6.039  28.781  56.883  1.00  0.00     0.165 HD
HETATM    5  C   UNL     1       8.030  29.055  56.230  1.00  0.00     0.102 A 
HETATM    6  C   UNL     1       9.044  29.828  56.773  1.00  0.00     0.052 A 
ENDROOT
BRANCH   5   7
HETATM    7  C   UNL     1       7.980  28.193  55.071  1.00  0.00     0.282 C 
HETATM    8  N   UNL     1       7.368  26.968  55.260  1.00  0.00    -0.280 N 
HETATM    9  H   UNL     1       7.295  26.557  56.189  1.00  0.00     0.184 HD
HETATM   10  O   UNL     1       8.452  28.523  53.981  1.00  0.00    -0.265 OA
BRANCH   8  11
HETATM   11  N   UNL     1       7.468  26.024  54.204  1.00  0.00    -0.186 NA
HETATM   12  H   UNL     1       8.225  26.288  53.565  1.00  0.00     0.154 HD
BRANCH  11  13
HETATM   13  C   UNL     1       7.675  24.711  54.697  1.00  0.00     0.122 A 
HETATM   14  N   UNL     1       7.653  23.664  53.842  1.00  0.00    -0.223 NA
HETATM   15  C   UNL     1       7.905  22.445  54.360  1.00  0.00     0.128 A 
HETATM   16 CL   UNL     1       7.843  21.163  53.222  1.00  0.00    -0.062 Cl
HETATM   17  C   UNL     1       8.198  22.196  55.689  1.00  0.00     0.044 A 
HETATM   18  C   UNL     1       8.236  23.282  56.553  1.00  0.00     0.007 A 
HETATM   19  C   UNL     1       7.976  24.555  56.052  1.00  0.00     0.046 A 
ENDBRANCH  11  13
ENDBRANCH   8  11
ENDBRANCH   5   7
BRANCH   1  20
HETATM   20  C   UNL     1       9.333  31.326  58.848  1.00  0.00     0.193 C 
HETATM   21  O   UNL     1      10.336  31.911  58.447  1.00  0.00    -0.287 OA
BRANCH  20  22
HETATM   22  C   UNL     1       8.910  31.528  60.260  1.00  0.00     0.015 A 
HETATM   23  C   UNL     1       9.231  30.541  61.201  1.00  0.00     0.015 A 
HETATM   24  C   UNL     1       8.820  30.678  62.528  1.00  0.00     0.001 A 
HETATM   25  C   UNL     1       8.077  31.793  62.916  1.00  0.00     0.000 A 
HETATM   26  C   UNL     1       7.737  32.768  61.979  1.00  0.00     0.001 A 
HETATM   27  C   UNL     1       8.145  32.635  60.651  1.00  0.00     0.015 A 
ENDBRANCH  20  22
ENDBRANCH   1  20
TORSDOF 5
ENDMDL
MODEL 9
REMARK VINA RESULT:      -8.8      3.643      8.941
REMARK  5 active torsions:
REMARK  status: ('A' for Active; 'I' for Inactive)
REMARK    1  A    between atoms: C_4  and  C_5 
REMARK    2  A    between atoms: C_5  and  C_6 
REMARK    3  A    between atoms: C_10  and  C_11 
REMARK       I    between atoms: C_11  and  N_12 
REMARK    4  A    between atoms: N_12  and  N_13 
REMARK    5  A    between atoms: N_13  and  C_14 
ROOT
HETATM    1  C   UNL     1       6.600  26.631  54.315  1.00  0.00     0.033 A 
HETATM    2  C   UNL     1       7.555  27.490  53.800  1.00  0.00     0.104 A 
HETATM    3  N   UNL     1       7.468  28.684  54.465  1.00  0.00    -0.360 N 
HETATM    4  H   UNL     1       8.050  29.499  54.306  1.00  0.00     0.165 HD
HETATM    5  C   UNL     1       6.467  28.637  55.410  1.00  0.00     0.102 A 
HETATM    6  C   UNL     1       5.896  27.379  55.309  1.00  0.00     0.052 A 
ENDROOT
BRANCH   5   7
HETATM    7  C   UNL     1       6.193  29.762  56.276  1.00  0.00     0.282 C 
HETATM    8  N   UNL     1       6.784  29.715  57.524  1.00  0.00    -0.280 N 
HETATM    9  H   UNL     1       7.069  28.828  57.936  1.00  0.00     0.184 HD
HETATM   10  O   UNL     1       5.478  30.704  55.929  1.00  0.00    -0.265 OA
BRANCH   8  11
HETATM   11  N   UNL     1       6.387  30.701  58.467  1.00  0.00    -0.186 NA
HETATM   12  H   UNL     1       5.671  30.321  59.094  1.00  0.00     0.154 HD
BRANCH  11  13
HETATM   13  C   UNL     1       7.492  31.182  59.213  1.00  0.00     0.122 A 
HETATM   14  N   UNL     1       7.323  31.527  60.510  1.00  0.00    -0.223 NA
HETATM   15  C   UNL     1       8.419  31.931  61.184  1.00  0.00     0.128 A 
HETATM   16 CL   UNL     1       8.128  32.368  62.817  1.00  0.00    -0.062 Cl
HETATM   17  C   UNL     1       9.693  32.002  60.649  1.00  0.00     0.044 A 
HETATM   18  C   UNL     1       9.856  31.628  59.322  1.00  0.00     0.007 A 
HETATM   19  C   UNL     1       8.744  31.209  58.596  1.00  0.00     0.046 A 
ENDBRANCH  11  13
ENDBRANCH   8  11
ENDBRANCH   5   7
BRANCH   1  20
HETATM   20  C   UNL     1       6.312  25.255  53.911  1.00  0.00     0.193 C 
HETATM   21  O   UNL     1       5.238  24.949  53.399  1.00  0.00    -0.287 OA
BRANCH  20  22
HETATM   22  C   UNL     1       7.324  24.187  54.129  1.00  0.00     0.015 A 
HETATM   23  C   UNL     1       7.476  23.200  53.146  1.00  0.00     0.015 A 
HETATM   24  C   UNL     1       8.390  22.161  53.331  1.00  0.00     0.001 A 
HETATM   25  C   UNL     1       9.144  22.097  54.504  1.00  0.00     0.000 A 
HETATM   26  C   UNL     1       8.981  23.064  55.495  1.00  0.00     0.001 A 
HETATM   27  C   UNL     1       8.068  24.105  55.314  1.00  0.00     0.015 A 
ENDBRANCH  20  22
ENDBRANCH   1  20
TORSDOF 5
ENDMDL
MODEL 10
REMARK VINA RESULT:      -8.8      3.544      9.148
REMARK  5 active torsions:
REMARK  status: ('A' for Active; 'I' for Inactive)
REMARK    1  A    between atoms: C_4  and  C_5 
REMARK    2  A    between atoms: C_5  and  C_6 
REMARK    3  A    between atoms: C_10  and  C_11 
REMARK       I    between atoms: C_11  and  N_12 
REMARK    4  A    between atoms: N_12  and  N_13 
REMARK    5  A    between atoms: N_13  and  C_14 
ROOT
HETATM    1  C   UNL     1       7.312  26.960  55.014  1.00  0.00     0.033 A 
HETATM    2  C   UNL     1       7.688  27.984  54.163  1.00  0.00     0.104 A 
HETATM    3  N   UNL     1       8.412  28.899  54.878  1.00  0.00    -0.360 N 
HETATM    4  H   UNL     1       8.825  29.750  54.513  1.00  0.00     0.165 HD
HETATM    5  C   UNL     1       8.520  28.506  56.194  1.00  0.00     0.102 A 
HETATM    6  C   UNL     1       7.815  27.318  56.303  1.00  0.00     0.052 A 
ENDROOT
BRANCH   5   7
HETATM    7  C   UNL     1       9.270  29.283  57.156  1.00  0.00     0.282 C 
HETATM    8  N   UNL     1       8.601  29.599  58.323  1.00  0.00    -0.280 N 
HETATM    9  H   UNL     1       7.583  29.615  58.356  1.00  0.00     0.184 HD
HETATM   10  O   UNL     1      10.430  29.644  56.952  1.00  0.00    -0.265 OA
BRANCH   8  11
HETATM   11  N   UNL     1       9.234  30.516  59.203  1.00  0.00    -0.186 NA
HETATM   12  H   UNL     1       9.830  31.160  58.673  1.00  0.00     0.154 HD
BRANCH  11  13
HETATM   13  C   UNL     1       8.286  31.241  59.969  1.00  0.00     0.122 A 
HETATM   14  N   UNL     1       8.562  31.551  61.256  1.00  0.00    -0.223 NA
HETATM   15  C   UNL     1       7.645  32.284  61.919  1.00  0.00     0.128 A 
HETATM   16 CL   UNL     1       8.053  32.624  63.551  1.00  0.00    -0.062 Cl
HETATM   17  C   UNL     1       6.461  32.749  61.375  1.00  0.00     0.044 A 
HETATM   18  C   UNL     1       6.198  32.440  60.047  1.00  0.00     0.007 A 
HETATM   19  C   UNL     1       7.123  31.681  59.334  1.00  0.00     0.046 A 
ENDBRANCH  11  13
ENDBRANCH   8  11
ENDBRANCH   5   7
BRANCH   1  20
HETATM   20  C   UNL     1       6.522  25.770  54.701  1.00  0.00     0.193 C 
HETATM   21  O   UNL     1       5.293  25.799  54.702  1.00  0.00    -0.287 OA
BRANCH  20  22
HETATM   22  C   UNL     1       7.200  24.484  54.386  1.00  0.00     0.015 A 
HETATM   23  C   UNL     1       7.908  23.834  55.405  1.00  0.00     0.015 A 
HETATM   24  C   UNL     1       8.588  22.644  55.138  1.00  0.00     0.001 A 
HETATM   25  C   UNL     1       8.574  22.109  53.850  1.00  0.00     0.000 A 
HETATM   26  C   UNL     1       7.890  22.763  52.826  1.00  0.00     0.001 A 
HETATM   27  C   UNL     1       7.209  23.953  53.089  1.00  0.00     0.015 A 
ENDBRANCH  20  22
ENDBRANCH   1  20
TORSDOF 5
ENDMDL
