MODEL 1
REMARK VINA RESULT:      -9.4      0.000      0.000
REMARK  5 active torsions:
REMARK  status: ('A' for Active; 'I' for Inactive)
REMARK    1  A    between atoms: C_9  and  C_10 
REMARK    2  A    between atoms: C_13  and  O_14 
REMARK    3  A    between atoms: O_14  and  C_15 
REMARK    4  A    between atoms: C_20  and  C_21 
REMARK       I    between atoms: C_21  and  N_22 
REMARK    5  A    between atoms: N_22  and  C_23 
ROOT
HETATM    1  C   UNL     1       4.600  25.081  57.405  1.00  0.00     0.070 C 
HETATM    2  C   UNL     1       5.106  26.356  56.774  1.00  0.00     0.037 C 
HETATM    3  N   UNL     1       4.168  27.382  56.660  1.00  0.00    -0.192 N 
HETATM    4  C   UNL     1       4.375  28.466  55.887  1.00  0.00     0.725 A 
HETATM    5  N   UNL     1       5.628  28.701  55.396  1.00  0.00    -0.084 N 
HETATM    6  N   UNL     1       5.646  29.759  54.559  1.00  0.00    -0.149 NA
HETATM    7  C   UNL     1       4.368  30.149  54.639  1.00  0.00     0.275 A 
HETATM    8  N   UNL     1       3.557  29.385  55.440  1.00  0.00    -0.054 NA
HETATM    9  C   UNL     1       6.797  27.883  55.727  1.00  0.00     0.202 C 
HETATM   10  C   UNL     1       6.374  26.540  56.319  1.00  0.00     0.062 C 
HETATM   11  H   UNL     1       3.205  27.151  56.900  1.00  0.00     0.184 HD
ENDROOT
BRANCH   9  12
HETATM   12  C   UNL     1       7.711  28.695  56.651  1.00  0.00    -0.028 A 
HETATM   13  C   UNL     1       7.342  29.009  57.968  1.00  0.00     0.012 A 
HETATM   14  C   UNL     1       8.186  29.768  58.781  1.00  0.00     0.037 A 
HETATM   15  C   UNL     1       9.407  30.242  58.301  1.00  0.00     0.074 A 
HETATM   16  C   UNL     1       9.777  29.953  56.988  1.00  0.00     0.037 A 
HETATM   17  C   UNL     1       8.936  29.186  56.170  1.00  0.00     0.012 A 
BRANCH  15  18
HETATM   18  O   UNL     1      10.117  30.985  59.201  1.00  0.00    -0.290 OA
BRANCH  18  19
HETATM   19  C   UNL     1       9.386  31.615  60.238  1.00  0.00     0.505 C 
HETATM   20  F   UNL     1      10.238  31.994  61.222  1.00  0.00    -0.184 F 
HETATM   21  F   UNL     1       8.854  32.753  59.726  1.00  0.00    -0.184 F 
ENDBRANCH  18  19
ENDBRANCH  15  18
ENDBRANCH   9  12
BRANCH  10  22
HETATM   22  C   UNL     1       7.308  25.380  56.176  1.00  0.00     0.256 C 
HETATM   23  N   UNL     1       6.915  24.430  55.259  1.00  0.00    -0.323 N 
HETATM   24  H   UNL     1       6.089  24.606  54.704  1.00  0.00     0.169 HD
HETATM   25  O   UNL     1       8.298  25.320  56.897  1.00  0.00    -0.267 OA
BRANCH  23  26
HETATM   26  C   UNL     1       7.543  23.192  54.991  1.00  0.00     0.035 A 
HETATM   27  C   UNL     1       7.655  22.151  55.915  1.00  0.00     0.029 A 
HETATM   28  C   UNL     1       8.284  20.953  55.562  1.00  0.00     0.002 A 
HETATM   29  C   UNL     1       8.799  20.780  54.280  1.00  0.00     0.000 A 
HETATM   30  C   UNL     1       8.693  21.811  53.350  1.00  0.00     0.002 A 
HETATM   31  C   UNL     1       8.075  23.013  53.706  1.00  0.00     0.029 A 
ENDBRANCH  23  26
ENDBRANCH  10  22
TORSDOF 5
ENDMDL
MODEL 2
REMARK VINA RESULT:      -9.3      5.306      7.541
REMARK  5 active torsions:
REMARK  status: ('A' for Active; 'I' for Inactive)
REMARK    1  A    between atoms: C_9  and  C_10 
REMARK    2  A    between atoms: C_13  and  O_14 
REMARK    3  A    between atoms: O_14  and  C_15 
REMARK    4  A    between atoms: C_20  and  C_21 
REMARK       I    between atoms: C_21  and  N_22 
REMARK    5  A    between atoms: N_22  and  C_23 
ROOT
HETATM    1  C   UNL     1       3.471  29.655  53.774  1.00  0.00     0.070 C 
HETATM    2  C   UNL     1       4.855  29.140  54.092  1.00  0.00     0.037 C 
HETATM    3  N   UNL     1       5.268  29.308  55.414  1.00  0.00    -0.192 N 
HETATM    4  C   UNL     1       6.553  29.157  55.793  1.00  0.00     0.725 A 
HETATM    5  N   UNL     1       7.437  28.582  54.924  1.00  0.00    -0.084 N 
HETATM    6  N   UNL     1       8.696  28.600  55.408  1.00  0.00    -0.149 NA
HETATM    7  C   UNL     1       8.483  29.156  56.608  1.00  0.00     0.275 A 
HETATM    8  N   UNL     1       7.187  29.512  56.882  1.00  0.00    -0.054 NA
HETATM    9  C   UNL     1       7.056  28.036  53.620  1.00  0.00     0.202 C 
HETATM   10  C   UNL     1       5.686  28.556  53.188  1.00  0.00     0.062 C 
HETATM   11  H   UNL     1       4.660  29.860  56.017  1.00  0.00     0.184 HD
ENDROOT
BRANCH   9  12
HETATM   12  C   UNL     1       7.131  26.507  53.692  1.00  0.00    -0.028 A 
HETATM   13  C   UNL     1       6.607  25.791  54.780  1.00  0.00     0.012 A 
HETATM   14  C   UNL     1       6.708  24.399  54.831  1.00  0.00     0.037 A 
HETATM   15  C   UNL     1       7.342  23.690  53.810  1.00  0.00     0.074 A 
HETATM   16  C   UNL     1       7.883  24.391  52.733  1.00  0.00     0.037 A 
HETATM   17  C   UNL     1       7.779  25.787  52.675  1.00  0.00     0.012 A 
BRANCH  15  18
HETATM   18  O   UNL     1       7.381  22.339  54.003  1.00  0.00    -0.290 OA
BRANCH  18  19
HETATM   19  C   UNL     1       8.017  21.561  53.003  1.00  0.00     0.505 C 
HETATM   20  F   UNL     1       9.310  21.351  53.351  1.00  0.00    -0.184 F 
HETATM   21  F   UNL     1       7.415  20.345  52.992  1.00  0.00    -0.184 F 
ENDBRANCH  18  19
ENDBRANCH  15  18
ENDBRANCH   9  12
BRANCH  10  22
HETATM   22  C   UNL     1       5.382  28.615  51.725  1.00  0.00     0.256 C 
HETATM   23  N   UNL     1       4.505  27.651  51.276  1.00  0.00    -0.323 N 
HETATM   24  H   UNL     1       4.077  27.034  51.953  1.00  0.00     0.169 HD
HETATM   25  O   UNL     1       5.953  29.449  51.031  1.00  0.00    -0.267 OA
BRANCH  23  26
HETATM   26  C   UNL     1       4.119  27.406  49.939  1.00  0.00     0.035 A 
HETATM   27  C   UNL     1       4.696  26.434  49.119  1.00  0.00     0.029 A 
HETATM   28  C   UNL     1       4.244  26.251  47.808  1.00  0.00     0.002 A 
HETATM   29  C   UNL     1       3.205  27.031  47.307  1.00  0.00     0.000 A 
HETATM   30  C   UNL     1       2.622  28.004  48.115  1.00  0.00     0.002 A 
HETATM   31  C   UNL     1       3.081  28.195  49.421  1.00  0.00     0.029 A 
ENDBRANCH  23  26
ENDBRANCH  10  22
TORSDOF 5
ENDMDL
MODEL 3
REMARK VINA RESULT:      -9.0      4.596      6.115
REMARK  5 active torsions:
REMARK  status: ('A' for Active; 'I' for Inactive)
REMARK    1  A    between atoms: C_9  and  C_10 
REMARK    2  A    between atoms: C_13  and  O_14 
REMARK    3  A    between atoms: O_14  and  C_15 
REMARK    4  A    between atoms: C_20  and  C_21 
REMARK       I    between atoms: C_21  and  N_22 
REMARK    5  A    between atoms: N_22  and  C_23 
ROOT
HETATM    1  C   UNL     1       8.771  27.569  57.058  1.00  0.00     0.070 C 
HETATM    2  C   UNL     1       7.391  27.822  56.498  1.00  0.00     0.037 C 
HETATM    3  N   UNL     1       6.902  29.117  56.674  1.00  0.00    -0.192 N 
HETATM    4  C   UNL     1       5.605  29.429  56.482  1.00  0.00     0.725 A 
HETATM    5  N   UNL     1       4.790  28.525  55.860  1.00  0.00    -0.084 N 
HETATM    6  N   UNL     1       3.507  28.942  55.841  1.00  0.00    -0.149 NA
HETATM    7  C   UNL     1       3.634  30.140  56.424  1.00  0.00     0.275 A 
HETATM    8  N   UNL     1       4.901  30.476  56.832  1.00  0.00    -0.054 NA
HETATM    9  C   UNL     1       5.259  27.254  55.307  1.00  0.00     0.202 C 
HETATM   10  C   UNL     1       6.632  26.886  55.869  1.00  0.00     0.062 C 
HETATM   11  H   UNL     1       7.456  29.741  57.258  1.00  0.00     0.184 HD
ENDROOT
BRANCH   9  12
HETATM   12  C   UNL     1       5.235  27.352  53.778  1.00  0.00    -0.028 A 
HETATM   13  C   UNL     1       4.922  26.246  52.971  1.00  0.00     0.012 A 
HETATM   14  C   UNL     1       4.928  26.358  51.578  1.00  0.00     0.037 A 
HETATM   15  C   UNL     1       5.257  27.564  50.958  1.00  0.00     0.074 A 
HETATM   16  C   UNL     1       5.588  28.664  51.749  1.00  0.00     0.037 A 
HETATM   17  C   UNL     1       5.577  28.559  53.146  1.00  0.00     0.012 A 
BRANCH  15  18
HETATM   18  O   UNL     1       5.239  27.520  49.594  1.00  0.00    -0.290 OA
BRANCH  18  19
HETATM   19  C   UNL     1       4.453  26.509  48.989  1.00  0.00     0.505 C 
HETATM   20  F   UNL     1       3.192  26.970  48.803  1.00  0.00    -0.184 F 
HETATM   21  F   UNL     1       4.969  26.278  47.756  1.00  0.00    -0.184 F 
ENDBRANCH  18  19
ENDBRANCH  15  18
ENDBRANCH   9  12
BRANCH  10  22
HETATM   22  C   UNL     1       7.012  25.440  55.914  1.00  0.00     0.256 C 
HETATM   23  N   UNL     1       7.713  24.992  54.816  1.00  0.00    -0.323 N 
HETATM   24  H   UNL     1       7.985  25.661  54.109  1.00  0.00     0.169 HD
HETATM   25  O   UNL     1       6.641  24.756  56.862  1.00  0.00    -0.267 OA
BRANCH  23  26
HETATM   26  C   UNL     1       8.111  23.663  54.544  1.00  0.00     0.035 A 
HETATM   27  C   UNL     1       8.990  22.926  55.342  1.00  0.00     0.029 A 
HETATM   28  C   UNL     1       9.322  21.610  55.004  1.00  0.00     0.002 A 
HETATM   29  C   UNL     1       8.771  21.014  53.872  1.00  0.00     0.000 A 
HETATM   30  C   UNL     1       7.894  21.739  53.070  1.00  0.00     0.002 A 
HETATM   31  C   UNL     1       7.572  23.057  53.400  1.00  0.00     0.029 A 
ENDBRANCH  23  26
ENDBRANCH  10  22
TORSDOF 5
ENDMDL
MODEL 4
REMARK VINA RESULT:      -8.4      2.770      6.632
REMARK  5 active torsions:
REMARK  status: ('A' for Active; 'I' for Inactive)
REMARK    1  A    between atoms: C_9  and  C_10 
REMARK    2  A    between atoms: C_13  and  O_14 
REMARK    3  A    between atoms: O_14  and  C_15 
REMARK    4  A    between atoms: C_20  and  C_21 
REMARK       I    between atoms: C_21  and  N_22 
REMARK    5  A    between atoms: N_22  and  C_23 
ROOT
HETATM    1  C   UNL     1       5.492  27.561  50.567  1.00  0.00     0.070 C 
HETATM    2  C   UNL     1       5.891  26.846  51.836  1.00  0.00     0.037 C 
HETATM    3  N   UNL     1       6.746  25.757  51.668  1.00  0.00    -0.192 N 
HETATM    4  C   UNL     1       6.974  24.861  52.648  1.00  0.00     0.725 A 
HETATM    5  N   UNL     1       6.563  25.149  53.919  1.00  0.00    -0.084 N 
HETATM    6  N   UNL     1       6.768  24.112  54.756  1.00  0.00    -0.149 NA
HETATM    7  C   UNL     1       7.363  23.246  53.925  1.00  0.00     0.275 A 
HETATM    8  N   UNL     1       7.507  23.665  52.627  1.00  0.00    -0.054 NA
HETATM    9  C   UNL     1       5.955  26.423  54.307  1.00  0.00     0.202 C 
HETATM   10  C   UNL     1       5.465  27.191  53.081  1.00  0.00     0.062 C 
HETATM   11  H   UNL     1       6.934  25.467  50.709  1.00  0.00     0.184 HD
ENDROOT
BRANCH   9  12
HETATM   12  C   UNL     1       6.966  27.206  55.151  1.00  0.00    -0.028 A 
HETATM   13  C   UNL     1       7.048  27.049  56.543  1.00  0.00     0.012 A 
HETATM   14  C   UNL     1       7.965  27.792  57.291  1.00  0.00     0.037 A 
HETATM   15  C   UNL     1       8.810  28.714  56.674  1.00  0.00     0.074 A 
HETATM   16  C   UNL     1       8.725  28.894  55.293  1.00  0.00     0.037 A 
HETATM   17  C   UNL     1       7.812  28.146  54.539  1.00  0.00     0.012 A 
BRANCH  15  18
HETATM   18  O   UNL     1       9.639  29.380  57.530  1.00  0.00    -0.290 OA
BRANCH  18  19
HETATM   19  C   UNL     1      10.605  30.244  56.956  1.00  0.00     0.505 C 
HETATM   20  F   UNL     1      10.607  31.423  57.624  1.00  0.00    -0.184 F 
HETATM   21  F   UNL     1      11.823  29.681  57.158  1.00  0.00    -0.184 F 
ENDBRANCH  18  19
ENDBRANCH  15  18
ENDBRANCH   9  12
BRANCH  10  22
HETATM   22  C   UNL     1       4.344  28.165  53.259  1.00  0.00     0.256 C 
HETATM   23  N   UNL     1       4.736  29.449  53.571  1.00  0.00    -0.323 N 
HETATM   24  H   UNL     1       5.723  29.663  53.584  1.00  0.00     0.169 HD
HETATM   25  O   UNL     1       3.187  27.765  53.178  1.00  0.00    -0.267 OA
BRANCH  23  26
HETATM   26  C   UNL     1       3.899  30.542  53.892  1.00  0.00     0.035 A 
HETATM   27  C   UNL     1       3.467  31.498  52.970  1.00  0.00     0.029 A 
HETATM   28  C   UNL     1       2.629  32.543  53.370  1.00  0.00     0.002 A 
HETATM   29  C   UNL     1       2.205  32.637  54.694  1.00  0.00     0.000 A 
HETATM   30  C   UNL     1       2.629  31.689  55.621  1.00  0.00     0.002 A 
HETATM   31  C   UNL     1       3.477  30.652  55.224  1.00  0.00     0.029 A 
ENDBRANCH  23  26
ENDBRANCH  10  22
TORSDOF 5
ENDMDL
MODEL 5
REMARK VINA RESULT:      -8.2      4.283      6.952
REMARK  5 active torsions:
REMARK  status: ('A' for Active; 'I' for Inactive)
REMARK    1  A    between atoms: C_9  and  C_10 
REMARK    2  A    between atoms: C_13  and  O_14 
REMARK    3  A    between atoms: O_14  and  C_15 
REMARK    4  A    between atoms: C_20  and  C_21 
REMARK       I    between atoms: C_21  and  N_22 
REMARK    5  A    between atoms: N_22  and  C_23 
ROOT
HETATM    1  C   UNL     1       3.848  29.347  56.379  1.00  0.00     0.070 C 
HETATM    2  C   UNL     1       5.309  28.971  56.454  1.00  0.00     0.037 C 
HETATM    3  N   UNL     1       5.984  29.411  57.593  1.00  0.00    -0.192 N 
HETATM    4  C   UNL     1       7.328  29.399  57.684  1.00  0.00     0.725 A 
HETATM    5  N   UNL     1       8.050  28.710  56.750  1.00  0.00    -0.084 N 
HETATM    6  N   UNL     1       9.377  28.883  56.919  1.00  0.00    -0.149 NA
HETATM    7  C   UNL     1       9.382  29.649  58.018  1.00  0.00     0.275 A 
HETATM    8  N   UNL     1       8.150  29.987  58.517  1.00  0.00    -0.054 NA
HETATM    9  C   UNL     1       7.446  27.905  55.687  1.00  0.00     0.202 C 
HETATM   10  C   UNL     1       5.972  28.265  55.500  1.00  0.00     0.062 C 
HETATM   11  H   UNL     1       5.474  30.039  58.213  1.00  0.00     0.184 HD
ENDROOT
BRANCH   9  12
HETATM   12  C   UNL     1       7.674  26.425  56.010  1.00  0.00    -0.028 A 
HETATM   13  C   UNL     1       7.940  25.984  57.316  1.00  0.00     0.012 A 
HETATM   14  C   UNL     1       8.165  24.631  57.578  1.00  0.00     0.037 A 
HETATM   15  C   UNL     1       8.144  23.689  56.549  1.00  0.00     0.074 A 
HETATM   16  C   UNL     1       7.900  24.117  55.244  1.00  0.00     0.037 A 
HETATM   17  C   UNL     1       7.667  25.473  54.977  1.00  0.00     0.012 A 
BRANCH  15  18
HETATM   18  O   UNL     1       8.399  22.410  56.950  1.00  0.00    -0.290 OA
BRANCH  18  19
HETATM   19  C   UNL     1       8.472  21.418  55.941  1.00  0.00     0.505 C 
HETATM   20  F   UNL     1       9.494  20.570  56.216  1.00  0.00    -0.184 F 
HETATM   21  F   UNL     1       7.331  20.686  56.008  1.00  0.00    -0.184 F 
ENDBRANCH  18  19
ENDBRANCH  15  18
ENDBRANCH   9  12
BRANCH  10  22
HETATM   22  C   UNL     1       5.352  28.026  54.160  1.00  0.00     0.256 C 
HETATM   23  N   UNL     1       5.446  29.084  53.281  1.00  0.00    -0.323 N 
HETATM   24  H   UNL     1       5.975  29.898  53.560  1.00  0.00     0.169 HD
HETATM   25  O   UNL     1       4.771  26.966  53.953  1.00  0.00    -0.267 OA
BRANCH  23  26
HETATM   26  C   UNL     1       4.868  29.176  51.994  1.00  0.00     0.035 A 
HETATM   27  C   UNL     1       3.633  29.772  51.728  1.00  0.00     0.029 A 
HETATM   28  C   UNL     1       3.140  29.831  50.421  1.00  0.00     0.002 A 
HETATM   29  C   UNL     1       3.881  29.303  49.366  1.00  0.00     0.000 A 
HETATM   30  C   UNL     1       5.113  28.707  49.619  1.00  0.00     0.002 A 
HETATM   31  C   UNL     1       5.600  28.637  50.927  1.00  0.00     0.029 A 
ENDBRANCH  23  26
ENDBRANCH  10  22
TORSDOF 5
ENDMDL
MODEL 6
REMARK VINA RESULT:      -8.2      5.455      8.575
REMARK  5 active torsions:
REMARK  status: ('A' for Active; 'I' for Inactive)
REMARK    1  A    between atoms: C_9  and  C_10 
REMARK    2  A    between atoms: C_13  and  O_14 
REMARK    3  A    between atoms: O_14  and  C_15 
REMARK    4  A    between atoms: C_20  and  C_21 
REMARK       I    between atoms: C_21  and  N_22 
REMARK    5  A    between atoms: N_22  and  C_23 
ROOT
HETATM    1  C   UNL     1       5.761  30.918  50.245  1.00  0.00     0.070 C 
HETATM    2  C   UNL     1       5.322  29.477  50.143  1.00  0.00     0.037 C 
HETATM    3  N   UNL     1       5.598  28.851  48.927  1.00  0.00    -0.192 N 
HETATM    4  C   UNL     1       5.038  27.675  48.579  1.00  0.00     0.725 A 
HETATM    5  N   UNL     1       4.382  26.946  49.529  1.00  0.00    -0.084 N 
HETATM    6  N   UNL     1       3.791  25.854  49.000  1.00  0.00    -0.149 NA
HETATM    7  C   UNL     1       4.185  25.962  47.725  1.00  0.00     0.275 A 
HETATM    8  N   UNL     1       4.949  27.062  47.425  1.00  0.00    -0.054 NA
HETATM    9  C   UNL     1       4.315  27.324  50.942  1.00  0.00     0.202 C 
HETATM   10  C   UNL     1       4.688  28.793  51.133  1.00  0.00     0.062 C 
HETATM   11  H   UNL     1       5.960  29.441  48.180  1.00  0.00     0.184 HD
ENDROOT
BRANCH   9  12
HETATM   12  C   UNL     1       5.199  26.363  51.744  1.00  0.00    -0.028 A 
HETATM   13  C   UNL     1       6.516  26.072  51.357  1.00  0.00     0.012 A 
HETATM   14  C   UNL     1       7.293  25.176  52.095  1.00  0.00     0.037 A 
HETATM   15  C   UNL     1       6.775  24.541  53.224  1.00  0.00     0.074 A 
HETATM   16  C   UNL     1       5.461  24.808  53.608  1.00  0.00     0.037 A 
HETATM   17  C   UNL     1       4.680  25.711  52.875  1.00  0.00     0.012 A 
BRANCH  15  18
HETATM   18  O   UNL     1       7.640  23.679  53.834  1.00  0.00    -0.290 OA
BRANCH  18  19
HETATM   19  C   UNL     1       8.227  22.673  53.027  1.00  0.00     0.505 C 
HETATM   20  F   UNL     1       9.319  22.173  53.654  1.00  0.00    -0.184 F 
HETATM   21  F   UNL     1       7.333  21.656  52.934  1.00  0.00    -0.184 F 
ENDBRANCH  18  19
ENDBRANCH  15  18
ENDBRANCH   9  12
BRANCH  10  22
HETATM   22  C   UNL     1       4.139  29.512  52.324  1.00  0.00     0.256 C 
HETATM   23  N   UNL     1       4.988  29.567  53.409  1.00  0.00    -0.323 N 
HETATM   24  H   UNL     1       5.924  29.199  53.309  1.00  0.00     0.169 HD
HETATM   25  O   UNL     1       2.991  29.941  52.285  1.00  0.00    -0.267 OA
BRANCH  23  26
HETATM   26  C   UNL     1       4.700  30.089  54.690  1.00  0.00     0.035 A 
HETATM   27  C   UNL     1       4.473  31.442  54.955  1.00  0.00     0.029 A 
HETATM   28  C   UNL     1       4.183  31.872  56.254  1.00  0.00     0.002 A 
HETATM   29  C   UNL     1       4.107  30.954  57.298  1.00  0.00     0.000 A 
HETATM   30  C   UNL     1       4.331  29.604  57.046  1.00  0.00     0.002 A 
HETATM   31  C   UNL     1       4.633  29.175  55.751  1.00  0.00     0.029 A 
ENDBRANCH  23  26
ENDBRANCH  10  22
TORSDOF 5
ENDMDL
MODEL 7
REMARK VINA RESULT:      -8.1      4.265      7.906
REMARK  5 active torsions:
REMARK  status: ('A' for Active; 'I' for Inactive)
REMARK    1  A    between atoms: C_9  and  C_10 
REMARK    2  A    between atoms: C_13  and  O_14 
REMARK    3  A    between atoms: O_14  and  C_15 
REMARK    4  A    between atoms: C_20  and  C_21 
REMARK       I    between atoms: C_21  and  N_22 
REMARK    5  A    between atoms: N_22  and  C_23 
ROOT
HETATM    1  C   UNL     1       4.429  30.142  57.784  1.00  0.00     0.070 C 
HETATM    2  C   UNL     1       5.741  29.719  57.169  1.00  0.00     0.037 C 
HETATM    3  N   UNL     1       6.837  29.722  58.033  1.00  0.00    -0.192 N 
HETATM    4  C   UNL     1       8.106  29.638  57.588  1.00  0.00     0.725 A 
HETATM    5  N   UNL     1       8.331  29.289  56.286  1.00  0.00    -0.084 N 
HETATM    6  N   UNL     1       9.641  29.353  55.972  1.00  0.00    -0.149 NA
HETATM    7  C   UNL     1      10.156  29.696  57.159  1.00  0.00     0.275 A 
HETATM    8  N   UNL     1       9.252  29.881  58.174  1.00  0.00    -0.054 NA
HETATM    9  C   UNL     1       7.269  28.915  55.350  1.00  0.00     0.202 C 
HETATM   10  C   UNL     1       5.902  29.361  55.867  1.00  0.00     0.062 C 
HETATM   11  H   UNL     1       6.687  30.115  58.961  1.00  0.00     0.184 HD
ENDROOT
BRANCH   9  12
HETATM   12  C   UNL     1       7.358  27.407  55.092  1.00  0.00    -0.028 A 
HETATM   13  C   UNL     1       7.380  26.476  56.142  1.00  0.00     0.012 A 
HETATM   14  C   UNL     1       7.483  25.108  55.879  1.00  0.00     0.037 A 
HETATM   15  C   UNL     1       7.580  24.637  54.569  1.00  0.00     0.074 A 
HETATM   16  C   UNL     1       7.578  25.553  53.517  1.00  0.00     0.037 A 
HETATM   17  C   UNL     1       7.468  26.926  53.777  1.00  0.00     0.012 A 
BRANCH  15  18
HETATM   18  O   UNL     1       7.693  23.281  54.465  1.00  0.00    -0.290 OA
BRANCH  18  19
HETATM   19  C   UNL     1       8.298  22.770  53.289  1.00  0.00     0.505 C 
HETATM   20  F   UNL     1       9.467  22.165  53.611  1.00  0.00    -0.184 F 
HETATM   21  F   UNL     1       7.482  21.804  52.801  1.00  0.00    -0.184 F 
ENDBRANCH  18  19
ENDBRANCH  15  18
ENDBRANCH   9  12
BRANCH  10  22
HETATM   22  C   UNL     1       4.818  29.614  54.868  1.00  0.00     0.256 C 
HETATM   23  N   UNL     1       4.799  30.888  54.344  1.00  0.00    -0.323 N 
HETATM   24  H   UNL     1       5.539  31.527  54.599  1.00  0.00     0.169 HD
HETATM   25  O   UNL     1       4.008  28.724  54.630  1.00  0.00    -0.267 OA
BRANCH  23  26
HETATM   26  C   UNL     1       3.836  31.434  53.464  1.00  0.00     0.035 A 
HETATM   27  C   UNL     1       3.705  31.074  52.121  1.00  0.00     0.029 A 
HETATM   28  C   UNL     1       2.715  31.657  51.323  1.00  0.00     0.002 A 
HETATM   29  C   UNL     1       1.840  32.596  51.863  1.00  0.00     0.000 A 
HETATM   30  C   UNL     1       1.960  32.961  53.200  1.00  0.00     0.002 A 
HETATM   31  C   UNL     1       2.957  32.389  53.994  1.00  0.00     0.029 A 
ENDBRANCH  23  26
ENDBRANCH  10  22
TORSDOF 5
ENDMDL
MODEL 8
REMARK VINA RESULT:      -7.9      6.918      9.736
REMARK  5 active torsions:
REMARK  status: ('A' for Active; 'I' for Inactive)
REMARK    1  A    between atoms: C_9  and  C_10 
REMARK    2  A    between atoms: C_13  and  O_14 
REMARK    3  A    between atoms: O_14  and  C_15 
REMARK    4  A    between atoms: C_20  and  C_21 
REMARK       I    between atoms: C_21  and  N_22 
REMARK    5  A    between atoms: N_22  and  C_23 
ROOT
HETATM    1  C   UNL     1       3.302  32.898  60.233  1.00  0.00     0.070 C 
HETATM    2  C   UNL     1       4.008  33.983  61.011  1.00  0.00     0.037 C 
HETATM    3  N   UNL     1       3.307  35.183  61.138  1.00  0.00    -0.192 N 
HETATM    4  C   UNL     1       3.896  36.321  61.556  1.00  0.00     0.725 A 
HETATM    5  N   UNL     1       5.143  36.257  62.111  1.00  0.00    -0.084 N 
HETATM    6  N   UNL     1       5.633  37.485  62.379  1.00  0.00    -0.149 NA
HETATM    7  C   UNL     1       4.594  38.244  62.007  1.00  0.00     0.275 A 
HETATM    8  N   UNL     1       3.512  37.571  61.498  1.00  0.00    -0.054 NA
HETATM    9  C   UNL     1       5.859  35.004  62.360  1.00  0.00     0.202 C 
HETATM   10  C   UNL     1       5.245  33.856  61.560  1.00  0.00     0.062 C 
HETATM   11  H   UNL     1       2.443  35.267  60.604  1.00  0.00     0.184 HD
ENDROOT
BRANCH   9  12
HETATM   12  C   UNL     1       5.881  34.749  63.871  1.00  0.00    -0.028 A 
HETATM   13  C   UNL     1       6.972  34.131  64.501  1.00  0.00     0.012 A 
HETATM   14  C   UNL     1       6.956  33.892  65.877  1.00  0.00     0.037 A 
HETATM   15  C   UNL     1       5.853  34.248  66.653  1.00  0.00     0.074 A 
HETATM   16  C   UNL     1       4.755  34.845  66.035  1.00  0.00     0.037 A 
HETATM   17  C   UNL     1       4.769  35.094  64.656  1.00  0.00     0.012 A 
BRANCH  15  18
HETATM   18  O   UNL     1       5.971  33.936  67.977  1.00  0.00    -0.290 OA
BRANCH  18  19
HETATM   19  C   UNL     1       6.059  35.016  68.891  1.00  0.00     0.505 C 
HETATM   20  F   UNL     1       5.788  34.570  70.142  1.00  0.00    -0.184 F 
HETATM   21  F   UNL     1       7.349  35.436  68.898  1.00  0.00    -0.184 F 
ENDBRANCH  18  19
ENDBRANCH  15  18
ENDBRANCH   9  12
BRANCH  10  22
HETATM   22  C   UNL     1       6.120  32.696  61.206  1.00  0.00     0.256 C 
HETATM   23  N   UNL     1       6.731  32.786  59.974  1.00  0.00    -0.323 N 
HETATM   24  H   UNL     1       6.616  33.635  59.438  1.00  0.00     0.169 HD
HETATM   25  O   UNL     1       6.192  31.746  61.978  1.00  0.00    -0.267 OA
BRANCH  23  26
HETATM   26  C   UNL     1       7.525  31.802  59.342  1.00  0.00     0.035 A 
HETATM   27  C   UNL     1       8.901  31.660  59.533  1.00  0.00     0.029 A 
HETATM   28  C   UNL     1       9.609  30.648  58.875  1.00  0.00     0.002 A 
HETATM   29  C   UNL     1       8.946  29.763  58.028  1.00  0.00     0.000 A 
HETATM   30  C   UNL     1       7.575  29.895  57.831  1.00  0.00     0.002 A 
HETATM   31  C   UNL     1       6.870  30.913  58.478  1.00  0.00     0.029 A 
ENDBRANCH  23  26
ENDBRANCH  10  22
TORSDOF 5
ENDMDL
MODEL 9
REMARK VINA RESULT:      -7.6      7.692     10.902
REMARK  5 active torsions:
REMARK  status: ('A' for Active; 'I' for Inactive)
REMARK    1  A    between atoms: C_9  and  C_10 
REMARK    2  A    between atoms: C_13  and  O_14 
REMARK    3  A    between atoms: O_14  and  C_15 
REMARK    4  A    between atoms: C_20  and  C_21 
REMARK       I    between atoms: C_21  and  N_22 
REMARK    5  A    between atoms: N_22  and  C_23 
ROOT
HETATM    1  C   UNL     1       7.935  32.221  63.468  1.00  0.00     0.070 C 
HETATM    2  C   UNL     1       6.876  33.090  64.104  1.00  0.00     0.037 C 
HETATM    3  N   UNL     1       7.177  33.563  65.382  1.00  0.00    -0.192 N 
HETATM    4  C   UNL     1       6.244  34.113  66.185  1.00  0.00     0.725 A 
HETATM    5  N   UNL     1       5.030  34.451  65.656  1.00  0.00    -0.084 N 
HETATM    6  N   UNL     1       4.178  34.888  66.606  1.00  0.00    -0.149 NA
HETATM    7  C   UNL     1       4.972  34.839  67.683  1.00  0.00     0.275 A 
HETATM    8  N   UNL     1       6.244  34.370  67.469  1.00  0.00    -0.054 NA
HETATM    9  C   UNL     1       4.699  34.329  64.236  1.00  0.00     0.202 C 
HETATM   10  C   UNL     1       5.691  33.411  63.521  1.00  0.00     0.062 C 
HETATM   11  H   UNL     1       8.019  33.194  65.820  1.00  0.00     0.184 HD
ENDROOT
BRANCH   9  12
HETATM   12  C   UNL     1       4.627  35.735  63.630  1.00  0.00    -0.028 A 
HETATM   13  C   UNL     1       3.477  36.199  62.973  1.00  0.00     0.012 A 
HETATM   14  C   UNL     1       3.447  37.478  62.412  1.00  0.00     0.037 A 
HETATM   15  C   UNL     1       4.559  38.317  62.481  1.00  0.00     0.074 A 
HETATM   16  C   UNL     1       5.715  37.859  63.114  1.00  0.00     0.037 A 
HETATM   17  C   UNL     1       5.748  36.580  63.684  1.00  0.00     0.012 A 
BRANCH  15  18
HETATM   18  O   UNL     1       4.391  39.528  61.874  1.00  0.00    -0.290 OA
BRANCH  18  19
HETATM   19  C   UNL     1       5.013  39.712  60.614  1.00  0.00     0.505 C 
HETATM   20  F   UNL     1       6.242  40.254  60.794  1.00  0.00    -0.184 F 
HETATM   21  F   UNL     1       5.205  38.483  60.072  1.00  0.00    -0.184 F 
ENDBRANCH  18  19
ENDBRANCH  15  18
ENDBRANCH   9  12
BRANCH  10  22
HETATM   22  C   UNL     1       5.232  32.701  62.287  1.00  0.00     0.256 C 
HETATM   23  N   UNL     1       5.675  33.251  61.104  1.00  0.00    -0.323 N 
HETATM   24  H   UNL     1       6.321  34.026  61.143  1.00  0.00     0.169 HD
HETATM   25  O   UNL     1       4.472  31.744  62.398  1.00  0.00    -0.267 OA
BRANCH  23  26
HETATM   26  C   UNL     1       5.320  32.853  59.794  1.00  0.00     0.035 A 
HETATM   27  C   UNL     1       4.140  33.231  59.150  1.00  0.00     0.029 A 
HETATM   28  C   UNL     1       3.874  32.801  57.846  1.00  0.00     0.002 A 
HETATM   29  C   UNL     1       4.788  31.996  57.170  1.00  0.00     0.000 A 
HETATM   30  C   UNL     1       5.967  31.613  57.803  1.00  0.00     0.002 A 
HETATM   31  C   UNL     1       6.229  32.033  59.109  1.00  0.00     0.029 A 
ENDBRANCH  23  26
ENDBRANCH  10  22
TORSDOF 5
ENDMDL
MODEL 10
REMARK VINA RESULT:      -7.4      3.913      5.703
REMARK  5 active torsions:
REMARK  status: ('A' for Active; 'I' for Inactive)
REMARK    1  A    between atoms: C_9  and  C_10 
REMARK    2  A    between atoms: C_13  and  O_14 
REMARK    3  A    between atoms: O_14  and  C_15 
REMARK    4  A    between atoms: C_20  and  C_21 
REMARK       I    between atoms: C_21  and  N_22 
REMARK    5  A    between atoms: N_22  and  C_23 
ROOT
HETATM    1  C   UNL     1       9.107  28.708  57.298  1.00  0.00     0.070 C 
HETATM    2  C   UNL     1       7.641  29.068  57.250  1.00  0.00     0.037 C 
HETATM    3  N   UNL     1       7.325  30.353  57.692  1.00  0.00    -0.192 N 
HETATM    4  C   UNL     1       6.061  30.730  57.968  1.00  0.00     0.725 A 
HETATM    5  N   UNL     1       5.028  29.927  57.572  1.00  0.00    -0.084 N 
HETATM    6  N   UNL     1       3.840  30.388  58.014  1.00  0.00    -0.149 NA
HETATM    7  C   UNL     1       4.232  31.512  58.628  1.00  0.00     0.275 A 
HETATM    8  N   UNL     1       5.582  31.758  58.623  1.00  0.00    -0.054 NA
HETATM    9  C   UNL     1       5.204  28.707  56.783  1.00  0.00     0.202 C 
HETATM   10  C   UNL     1       6.656  28.233  56.826  1.00  0.00     0.062 C 
HETATM   11  H   UNL     1       8.080  30.891  58.114  1.00  0.00     0.184 HD
ENDROOT
BRANCH   9  12
HETATM   12  C   UNL     1       4.691  28.968  55.363  1.00  0.00    -0.028 A 
HETATM   13  C   UNL     1       4.572  30.268  54.847  1.00  0.00     0.012 A 
HETATM   14  C   UNL     1       4.082  30.479  53.556  1.00  0.00     0.037 A 
HETATM   15  C   UNL     1       3.688  29.406  52.756  1.00  0.00     0.074 A 
HETATM   16  C   UNL     1       3.783  28.110  53.265  1.00  0.00     0.037 A 
HETATM   17  C   UNL     1       4.281  27.894  54.556  1.00  0.00     0.012 A 
BRANCH  15  18
HETATM   18  O   UNL     1       3.212  29.763  51.527  1.00  0.00    -0.290 OA
BRANCH  18  19
HETATM   19  C   UNL     1       2.785  31.104  51.364  1.00  0.00     0.505 C 
HETATM   20  F   UNL     1       3.552  31.710  50.426  1.00  0.00    -0.184 F 
HETATM   21  F   UNL     1       1.522  31.069  50.869  1.00  0.00    -0.184 F 
ENDBRANCH  18  19
ENDBRANCH  15  18
ENDBRANCH   9  12
BRANCH  10  22
HETATM   22  C   UNL     1       6.930  26.778  56.613  1.00  0.00     0.256 C 
HETATM   23  N   UNL     1       7.318  26.442  55.334  1.00  0.00    -0.323 N 
HETATM   24  H   UNL     1       7.463  27.183  54.663  1.00  0.00     0.169 HD
HETATM   25  O   UNL     1       6.745  25.995  57.539  1.00  0.00    -0.267 OA
BRANCH  23  26
HETATM   26  C   UNL     1       7.543  25.143  54.825  1.00  0.00     0.035 A 
HETATM   27  C   UNL     1       6.994  24.658  53.636  1.00  0.00     0.029 A 
HETATM   28  C   UNL     1       7.279  23.361  53.199  1.00  0.00     0.002 A 
HETATM   29  C   UNL     1       8.123  22.538  53.941  1.00  0.00     0.000 A 
HETATM   30  C   UNL     1       8.676  23.011  55.128  1.00  0.00     0.002 A 
HETATM   31  C   UNL     1       8.382  24.302  55.571  1.00  0.00     0.029 A 
ENDBRANCH  23  26
ENDBRANCH  10  22
TORSDOF 5
ENDMDL
