MODEL 1
REMARK VINA RESULT:     -10.7      0.000      0.000
REMARK  6 active torsions:
REMARK  status: ('A' for Active; 'I' for Inactive)
REMARK    1  A    between atoms: C_4  and  C_5 
REMARK    2  A    between atoms: C_5  and  C_6 
REMARK    3  A    between atoms: C_7  and  N_8 
REMARK       I    between atoms: N_8  and  C_9 
REMARK    4  A    between atoms: C_9  and  C_10 
REMARK    5  A    between atoms: C_15  and  C_16 
REMARK       I    between atoms: C_16  and  N_17 
REMARK    6  A    between atoms: N_17  and  C_18 
ROOT
HETATM    1  N   UNL     1       8.213  27.951  56.021  1.00  0.00    -0.321 N 
HETATM    2  C   UNL     1       8.000  28.697  57.159  1.00  0.00     0.277 C 
HETATM    3  O   UNL     1       7.005  28.665  57.869  1.00  0.00    -0.266 OA
HETATM    4  H   UNL     1       9.197  27.920  55.754  1.00  0.00     0.169 HD
ENDROOT
BRANCH   2   5
HETATM    5  C   UNL     1       9.158  29.534  57.480  1.00  0.00     0.158 A 
HETATM    6  N   UNL     1      10.387  29.304  56.862  1.00  0.00    -0.236 NA
HETATM    7  C   UNL     1      11.198  30.212  57.348  1.00  0.00     0.208 A 
HETATM    8  N   UNL     1      10.558  31.024  58.232  1.00  0.00    -0.344 N 
HETATM    9  H   UNL     1      10.952  31.814  58.729  1.00  0.00     0.167 HD
HETATM   10  C   UNL     1       9.239  30.625  58.337  1.00  0.00     0.136 A 
BRANCH  10  11
HETATM   11  C   UNL     1       8.314  31.370  59.172  1.00  0.00     0.275 C 
HETATM   12  N   UNL     1       8.583  31.390  60.521  1.00  0.00    -0.322 N 
HETATM   13  H   UNL     1       9.456  30.966  60.830  1.00  0.00     0.169 HD
HETATM   14  O   UNL     1       7.367  31.942  58.639  1.00  0.00    -0.266 OA
BRANCH  12  15
HETATM   15  C   UNL     1       7.792  31.916  61.562  1.00  0.00     0.035 A 
HETATM   16  C   UNL     1       6.401  32.019  61.519  1.00  0.00     0.029 A 
HETATM   17  C   UNL     1       5.695  32.510  62.621  1.00  0.00     0.002 A 
HETATM   18  C   UNL     1       6.372  32.903  63.774  1.00  0.00     0.000 A 
HETATM   19  C   UNL     1       7.759  32.810  63.825  1.00  0.00     0.002 A 
HETATM   20  C   UNL     1       8.464  32.318  62.724  1.00  0.00     0.029 A 
ENDBRANCH  12  15
ENDBRANCH  10  11
ENDBRANCH   2   5
BRANCH   1  21
HETATM   21  C   UNL     1       7.311  27.087  55.367  1.00  0.00     0.049 A 
HETATM   22  C   UNL     1       7.277  25.680  55.448  1.00  0.00     0.043 A 
HETATM   23  C   UNL     1       6.362  24.953  54.664  1.00  0.00     0.041 A 
HETATM   24  C   UNL     1       5.450  25.615  53.849  1.00  0.00     0.035 A 
HETATM   25  C   UNL     1       5.430  27.004  53.812  1.00  0.00     0.026 A 
HETATM   26 CL   UNL     1       4.323  24.717  52.913  1.00  0.00    -0.084 Cl
HETATM   27  C   UNL     1       6.349  27.733  54.570  1.00  0.00     0.032 A 
BRANCH  22  28
HETATM   28  C   UNL     1       8.056  24.842  56.394  1.00  0.00     0.194 C 
HETATM   29  O   UNL     1       8.490  25.372  57.416  1.00  0.00    -0.287 OA
BRANCH  28  30
HETATM   30  C   UNL     1       8.410  23.426  56.086  1.00  0.00     0.015 A 
HETATM   31  C   UNL     1       8.200  22.464  57.083  1.00  0.00     0.015 A 
HETATM   32  C   UNL     1       8.486  21.120  56.844  1.00  0.00     0.001 A 
HETATM   33  C   UNL     1       9.004  20.730  55.613  1.00  0.00     0.000 A 
HETATM   34  C   UNL     1       9.244  21.683  54.624  1.00  0.00     0.001 A 
HETATM   35  C   UNL     1       8.955  23.030  54.858  1.00  0.00     0.015 A 
ENDBRANCH  28  30
ENDBRANCH  22  28
ENDBRANCH   1  21
TORSDOF 6
ENDMDL
MODEL 2
REMARK VINA RESULT:     -10.4      4.610      7.058
REMARK  6 active torsions:
REMARK  status: ('A' for Active; 'I' for Inactive)
REMARK    1  A    between atoms: C_4  and  C_5 
REMARK    2  A    between atoms: C_5  and  C_6 
REMARK    3  A    between atoms: C_7  and  N_8 
REMARK       I    between atoms: N_8  and  C_9 
REMARK    4  A    between atoms: C_9  and  C_10 
REMARK    5  A    between atoms: C_15  and  C_16 
REMARK       I    between atoms: C_16  and  N_17 
REMARK    6  A    between atoms: N_17  and  C_18 
ROOT
HETATM    1  N   UNL     1       6.538  24.928  52.550  1.00  0.00    -0.321 N 
HETATM    2  C   UNL     1       5.203  25.153  52.296  1.00  0.00     0.277 C 
HETATM    3  O   UNL     1       4.260  24.662  52.899  1.00  0.00    -0.266 OA
HETATM    4  H   UNL     1       7.139  25.639  52.133  1.00  0.00     0.169 HD
ENDROOT
BRANCH   2   5
HETATM    5  C   UNL     1       5.015  26.124  51.216  1.00  0.00     0.158 A 
HETATM    6  N   UNL     1       4.739  25.691  49.919  1.00  0.00    -0.236 NA
HETATM    7  C   UNL     1       4.618  26.783  49.204  1.00  0.00     0.208 A 
HETATM    8  N   UNL     1       4.784  27.895  49.970  1.00  0.00    -0.344 N 
HETATM    9  H   UNL     1       4.718  28.859  49.666  1.00  0.00     0.167 HD
HETATM   10  C   UNL     1       5.032  27.513  51.274  1.00  0.00     0.136 A 
BRANCH  10  11
HETATM   11  C   UNL     1       5.183  28.514  52.314  1.00  0.00     0.275 C 
HETATM   12  N   UNL     1       4.293  28.451  53.361  1.00  0.00    -0.322 N 
HETATM   13  H   UNL     1       3.655  27.657  53.386  1.00  0.00     0.169 HD
HETATM   14  O   UNL     1       6.086  29.339  52.213  1.00  0.00    -0.266 OA
BRANCH  12  15
HETATM   15  C   UNL     1       4.128  29.363  54.423  1.00  0.00     0.035 A 
HETATM   16  C   UNL     1       3.663  30.669  54.274  1.00  0.00     0.029 A 
HETATM   17  C   UNL     1       3.484  31.488  55.394  1.00  0.00     0.002 A 
HETATM   18  C   UNL     1       3.771  31.008  56.671  1.00  0.00     0.000 A 
HETATM   19  C   UNL     1       4.241  29.708  56.829  1.00  0.00     0.002 A 
HETATM   20  C   UNL     1       4.418  28.890  55.711  1.00  0.00     0.029 A 
ENDBRANCH  12  15
ENDBRANCH  10  11
ENDBRANCH   2   5
BRANCH   1  21
HETATM   21  C   UNL     1       7.107  24.017  53.463  1.00  0.00     0.049 A 
HETATM   22  C   UNL     1       7.211  24.173  54.860  1.00  0.00     0.043 A 
HETATM   23  C   UNL     1       7.885  23.205  55.627  1.00  0.00     0.041 A 
HETATM   24  C   UNL     1       8.403  22.064  55.024  1.00  0.00     0.035 A 
HETATM   25  C   UNL     1       8.249  21.867  53.657  1.00  0.00     0.026 A 
HETATM   26 CL   UNL     1       9.206  20.878  55.975  1.00  0.00    -0.084 Cl
HETATM   27  C   UNL     1       7.600  22.834  52.885  1.00  0.00     0.032 A 
BRANCH  22  28
HETATM   28  C   UNL     1       6.562  25.235  55.669  1.00  0.00     0.194 C 
HETATM   29  O   UNL     1       5.404  25.054  56.043  1.00  0.00    -0.287 OA
BRANCH  28  30
HETATM   30  C   UNL     1       7.233  26.539  55.944  1.00  0.00     0.015 A 
HETATM   31  C   UNL     1       7.532  27.367  54.854  1.00  0.00     0.015 A 
HETATM   32  C   UNL     1       8.133  28.610  55.050  1.00  0.00     0.001 A 
HETATM   33  C   UNL     1       8.459  29.026  56.338  1.00  0.00     0.000 A 
HETATM   34  C   UNL     1       8.193  28.198  57.427  1.00  0.00     0.001 A 
HETATM   35  C   UNL     1       7.586  26.953  57.234  1.00  0.00     0.015 A 
ENDBRANCH  28  30
ENDBRANCH  22  28
ENDBRANCH   1  21
TORSDOF 6
ENDMDL
MODEL 3
REMARK VINA RESULT:     -10.2      2.620      4.693
REMARK  6 active torsions:
REMARK  status: ('A' for Active; 'I' for Inactive)
REMARK    1  A    between atoms: C_4  and  C_5 
REMARK    2  A    between atoms: C_5  and  C_6 
REMARK    3  A    between atoms: C_7  and  N_8 
REMARK       I    between atoms: N_8  and  C_9 
REMARK    4  A    between atoms: C_9  and  C_10 
REMARK    5  A    between atoms: C_15  and  C_16 
REMARK       I    between atoms: C_16  and  N_17 
REMARK    6  A    between atoms: N_17  and  C_18 
ROOT
HETATM    1  N   UNL     1       6.084  29.651  55.645  1.00  0.00    -0.321 N 
HETATM    2  C   UNL     1       5.271  30.081  56.671  1.00  0.00     0.277 C 
HETATM    3  O   UNL     1       4.753  29.377  57.526  1.00  0.00    -0.266 OA
HETATM    4  H   UNL     1       6.627  30.410  55.234  1.00  0.00     0.169 HD
ENDROOT
BRANCH   2   5
HETATM    5  C   UNL     1       5.125  31.538  56.668  1.00  0.00     0.158 A 
HETATM    6  N   UNL     1       4.891  32.221  55.475  1.00  0.00    -0.236 NA
HETATM    7  C   UNL     1       4.800  33.486  55.807  1.00  0.00     0.208 A 
HETATM    8  N   UNL     1       4.945  33.655  57.149  1.00  0.00    -0.344 N 
HETATM    9  H   UNL     1       4.895  34.527  57.662  1.00  0.00     0.167 HD
HETATM   10  C   UNL     1       5.147  32.423  57.740  1.00  0.00     0.136 A 
BRANCH  10  11
HETATM   11  C   UNL     1       5.268  32.314  59.183  1.00  0.00     0.275 C 
HETATM   12  N   UNL     1       6.453  32.741  59.735  1.00  0.00    -0.322 N 
HETATM   13  H   UNL     1       7.124  33.190  59.113  1.00  0.00     0.169 HD
HETATM   14  O   UNL     1       4.320  31.867  59.823  1.00  0.00    -0.266 OA
BRANCH  12  15
HETATM   15  C   UNL     1       6.885  32.629  61.071  1.00  0.00     0.035 A 
HETATM   16  C   UNL     1       7.698  31.603  61.553  1.00  0.00     0.029 A 
HETATM   17  C   UNL     1       8.118  31.601  62.887  1.00  0.00     0.002 A 
HETATM   18  C   UNL     1       7.727  32.623  63.750  1.00  0.00     0.000 A 
HETATM   19  C   UNL     1       6.912  33.648  63.281  1.00  0.00     0.002 A 
HETATM   20  C   UNL     1       6.494  33.651  61.949  1.00  0.00     0.029 A 
ENDBRANCH  12  15
ENDBRANCH  10  11
ENDBRANCH   2   5
BRANCH   1  21
HETATM   21  C   UNL     1       6.402  28.325  55.288  1.00  0.00     0.049 A 
HETATM   22  C   UNL     1       7.321  27.471  55.932  1.00  0.00     0.043 A 
HETATM   23  C   UNL     1       7.590  26.197  55.399  1.00  0.00     0.041 A 
HETATM   24  C   UNL     1       6.913  25.749  54.270  1.00  0.00     0.035 A 
HETATM   25  C   UNL     1       5.956  26.555  53.665  1.00  0.00     0.026 A 
HETATM   26 CL   UNL     1       7.234  24.181  53.641  1.00  0.00    -0.084 Cl
HETATM   27  C   UNL     1       5.700  27.830  54.175  1.00  0.00     0.032 A 
BRANCH  22  28
HETATM   28  C   UNL     1       7.987  27.731  57.233  1.00  0.00     0.194 C 
HETATM   29  O   UNL     1       7.679  27.027  58.193  1.00  0.00    -0.287 OA
BRANCH  28  30
HETATM   30  C   UNL     1       8.925  28.875  57.426  1.00  0.00     0.015 A 
HETATM   31  C   UNL     1       8.531  29.911  58.282  1.00  0.00     0.015 A 
HETATM   32  C   UNL     1       9.378  30.993  58.524  1.00  0.00     0.001 A 
HETATM   33  C   UNL     1      10.617  31.057  57.894  1.00  0.00     0.000 A 
HETATM   34  C   UNL     1      11.007  30.046  57.017  1.00  0.00     0.001 A 
HETATM   35  C   UNL     1      10.163  28.958  56.776  1.00  0.00     0.015 A 
ENDBRANCH  28  30
ENDBRANCH  22  28
ENDBRANCH   1  21
TORSDOF 6
ENDMDL
MODEL 4
REMARK VINA RESULT:     -10.1      3.720      7.838
REMARK  6 active torsions:
REMARK  status: ('A' for Active; 'I' for Inactive)
REMARK    1  A    between atoms: C_4  and  C_5 
REMARK    2  A    between atoms: C_5  and  C_6 
REMARK    3  A    between atoms: C_7  and  N_8 
REMARK       I    between atoms: N_8  and  C_9 
REMARK    4  A    between atoms: C_9  and  C_10 
REMARK    5  A    between atoms: C_15  and  C_16 
REMARK       I    between atoms: C_16  and  N_17 
REMARK    6  A    between atoms: N_17  and  C_18 
ROOT
HETATM    1  N   UNL     1       5.501  30.759  55.991  1.00  0.00    -0.321 N 
HETATM    2  C   UNL     1       4.388  30.008  55.686  1.00  0.00     0.277 C 
HETATM    3  O   UNL     1       3.908  29.115  56.371  1.00  0.00    -0.266 OA
HETATM    4  H   UNL     1       5.556  31.616  55.440  1.00  0.00     0.169 HD
ENDROOT
BRANCH   2   5
HETATM    5  C   UNL     1       3.775  30.437  54.427  1.00  0.00     0.158 A 
HETATM    6  N   UNL     1       3.056  31.630  54.364  1.00  0.00    -0.236 NA
HETATM    7  C   UNL     1       2.653  31.731  53.121  1.00  0.00     0.208 A 
HETATM    8  N   UNL     1       3.086  30.679  52.375  1.00  0.00    -0.344 N 
HETATM    9  H   UNL     1       2.931  30.530  51.385  1.00  0.00     0.167 HD
HETATM   10  C   UNL     1       3.821  29.828  53.178  1.00  0.00     0.136 A 
BRANCH  10  11
HETATM   11  C   UNL     1       4.455  28.653  52.611  1.00  0.00     0.275 C 
HETATM   12  N   UNL     1       5.000  27.758  53.502  1.00  0.00    -0.322 N 
HETATM   13  H   UNL     1       4.839  27.928  54.493  1.00  0.00     0.169 HD
HETATM   14  O   UNL     1       4.462  28.516  51.391  1.00  0.00    -0.266 OA
BRANCH  12  15
HETATM   15  C   UNL     1       5.780  26.616  53.228  1.00  0.00     0.035 A 
HETATM   16  C   UNL     1       7.118  26.653  52.835  1.00  0.00     0.029 A 
HETATM   17  C   UNL     1       7.828  25.465  52.632  1.00  0.00     0.002 A 
HETATM   18  C   UNL     1       7.205  24.232  52.818  1.00  0.00     0.000 A 
HETATM   19  C   UNL     1       5.869  24.185  53.203  1.00  0.00     0.002 A 
HETATM   20  C   UNL     1       5.161  25.371  53.407  1.00  0.00     0.029 A 
ENDBRANCH  12  15
ENDBRANCH  10  11
ENDBRANCH   2   5
BRANCH   1  21
HETATM   21  C   UNL     1       6.386  30.600  57.076  1.00  0.00     0.049 A 
HETATM   22  C   UNL     1       7.312  29.555  57.268  1.00  0.00     0.043 A 
HETATM   23  C   UNL     1       8.068  29.493  58.453  1.00  0.00     0.041 A 
HETATM   24  C   UNL     1       7.951  30.489  59.415  1.00  0.00     0.035 A 
HETATM   25  C   UNL     1       7.090  31.560  59.209  1.00  0.00     0.026 A 
HETATM   26 CL   UNL     1       8.896  30.415  60.849  1.00  0.00    -0.084 Cl
HETATM   27  C   UNL     1       6.319  31.617  58.045  1.00  0.00     0.032 A 
BRANCH  22  28
HETATM   28  C   UNL     1       7.680  28.523  56.266  1.00  0.00     0.194 C 
HETATM   29  O   UNL     1       8.187  28.895  55.209  1.00  0.00    -0.287 OA
BRANCH  28  30
HETATM   30  C   UNL     1       7.357  27.080  56.463  1.00  0.00     0.015 A 
HETATM   31  C   UNL     1       6.058  26.746  56.869  1.00  0.00     0.015 A 
HETATM   32  C   UNL     1       5.688  25.412  57.042  1.00  0.00     0.001 A 
HETATM   33  C   UNL     1       6.623  24.402  56.832  1.00  0.00     0.000 A 
HETATM   34  C   UNL     1       7.926  24.724  56.456  1.00  0.00     0.001 A 
HETATM   35  C   UNL     1       8.298  26.059  56.277  1.00  0.00     0.015 A 
ENDBRANCH  28  30
ENDBRANCH  22  28
ENDBRANCH   1  21
TORSDOF 6
ENDMDL
MODEL 5
REMARK VINA RESULT:     -10.1      4.334      9.192
REMARK  6 active torsions:
REMARK  status: ('A' for Active; 'I' for Inactive)
REMARK    1  A    between atoms: C_4  and  C_5 
REMARK    2  A    between atoms: C_5  and  C_6 
REMARK    3  A    between atoms: C_7  and  N_8 
REMARK       I    between atoms: N_8  and  C_9 
REMARK    4  A    between atoms: C_9  and  C_10 
REMARK    5  A    between atoms: C_15  and  C_16 
REMARK       I    between atoms: C_16  and  N_17 
REMARK    6  A    between atoms: N_17  and  C_18 
ROOT
HETATM    1  N   UNL     1       5.103  26.855  53.721  1.00  0.00    -0.321 N 
HETATM    2  C   UNL     1       5.645  28.105  53.515  1.00  0.00     0.277 C 
HETATM    3  O   UNL     1       6.835  28.370  53.416  1.00  0.00    -0.266 OA
HETATM    4  H   UNL     1       4.111  26.818  53.488  1.00  0.00     0.169 HD
ENDROOT
BRANCH   2   5
HETATM    5  C   UNL     1       4.606  29.126  53.364  1.00  0.00     0.158 A 
HETATM    6  N   UNL     1       4.243  29.927  54.447  1.00  0.00    -0.236 NA
HETATM    7  C   UNL     1       3.313  30.731  53.991  1.00  0.00     0.208 A 
HETATM    8  N   UNL     1       3.067  30.504  52.672  1.00  0.00    -0.344 N 
HETATM    9  H   UNL     1       2.413  31.002  52.080  1.00  0.00     0.167 HD
HETATM   10  C   UNL     1       3.887  29.484  52.229  1.00  0.00     0.136 A 
BRANCH  10  11
HETATM   11  C   UNL     1       3.872  29.086  50.833  1.00  0.00     0.275 C 
HETATM   12  N   UNL     1       3.058  28.027  50.505  1.00  0.00    -0.322 N 
HETATM   13  H   UNL     1       2.453  27.657  51.237  1.00  0.00     0.169 HD
HETATM   14  O   UNL     1       4.562  29.711  50.034  1.00  0.00    -0.266 OA
BRANCH  12  15
HETATM   15  C   UNL     1       2.951  27.357  49.270  1.00  0.00     0.035 A 
HETATM   16  C   UNL     1       3.867  26.414  48.804  1.00  0.00     0.029 A 
HETATM   17  C   UNL     1       3.653  25.762  47.585  1.00  0.00     0.002 A 
HETATM   18  C   UNL     1       2.523  26.050  46.822  1.00  0.00     0.000 A 
HETATM   19  C   UNL     1       1.607  26.994  47.274  1.00  0.00     0.002 A 
HETATM   20  C   UNL     1       1.820  27.643  48.492  1.00  0.00     0.029 A 
ENDBRANCH  12  15
ENDBRANCH  10  11
ENDBRANCH   2   5
BRANCH   1  21
HETATM   21  C   UNL     1       5.781  25.646  53.975  1.00  0.00     0.049 A 
HETATM   22  C   UNL     1       6.261  25.189  55.219  1.00  0.00     0.043 A 
HETATM   23  C   UNL     1       6.997  23.992  55.293  1.00  0.00     0.041 A 
HETATM   24  C   UNL     1       7.207  23.223  54.153  1.00  0.00     0.035 A 
HETATM   25  C   UNL     1       6.681  23.629  52.932  1.00  0.00     0.026 A 
HETATM   26 CL   UNL     1       8.087  21.751  54.259  1.00  0.00    -0.084 Cl
HETATM   27  C   UNL     1       5.969  24.828  52.846  1.00  0.00     0.032 A 
BRANCH  22  28
HETATM   28  C   UNL     1       5.971  25.798  56.542  1.00  0.00     0.194 C 
HETATM   29  O   UNL     1       5.150  25.241  57.269  1.00  0.00    -0.287 OA
BRANCH  28  30
HETATM   30  C   UNL     1       6.561  27.104  56.957  1.00  0.00     0.015 A 
HETATM   31  C   UNL     1       7.956  27.194  57.052  1.00  0.00     0.015 A 
HETATM   32  C   UNL     1       8.566  28.397  57.407  1.00  0.00     0.001 A 
HETATM   33  C   UNL     1       7.785  29.514  57.691  1.00  0.00     0.000 A 
HETATM   34  C   UNL     1       6.395  29.427  57.627  1.00  0.00     0.001 A 
HETATM   35  C   UNL     1       5.780  28.224  57.267  1.00  0.00     0.015 A 
ENDBRANCH  28  30
ENDBRANCH  22  28
ENDBRANCH   1  21
TORSDOF 6
ENDMDL
MODEL 6
REMARK VINA RESULT:     -10.0      1.711      2.178
REMARK  6 active torsions:
REMARK  status: ('A' for Active; 'I' for Inactive)
REMARK    1  A    between atoms: C_4  and  C_5 
REMARK    2  A    between atoms: C_5  and  C_6 
REMARK    3  A    between atoms: C_7  and  N_8 
REMARK       I    between atoms: N_8  and  C_9 
REMARK    4  A    between atoms: C_9  and  C_10 
REMARK    5  A    between atoms: C_15  and  C_16 
REMARK       I    between atoms: C_16  and  N_17 
REMARK    6  A    between atoms: N_17  and  C_18 
ROOT
HETATM    1  N   UNL     1       8.198  27.994  54.961  1.00  0.00    -0.321 N 
HETATM    2  C   UNL     1       7.846  28.891  55.945  1.00  0.00     0.277 C 
HETATM    3  O   UNL     1       6.708  29.193  56.276  1.00  0.00    -0.266 OA
HETATM    4  H   UNL     1       9.165  27.683  55.044  1.00  0.00     0.169 HD
ENDROOT
BRANCH   2   5
HETATM    5  C   UNL     1       9.023  29.434  56.626  1.00  0.00     0.158 A 
HETATM    6  N   UNL     1      10.273  29.398  56.009  1.00  0.00    -0.236 NA
HETATM    7  C   UNL     1      11.099  29.961  56.858  1.00  0.00     0.208 A 
HETATM    8  N   UNL     1      10.450  30.372  57.980  1.00  0.00    -0.344 N 
HETATM    9  H   UNL     1      10.852  30.853  58.776  1.00  0.00     0.167 HD
HETATM   10  C   UNL     1       9.109  30.059  57.865  1.00  0.00     0.136 A 
BRANCH  10  11
HETATM   11  C   UNL     1       8.175  30.450  58.905  1.00  0.00     0.275 C 
HETATM   12  N   UNL     1       7.167  31.311  58.535  1.00  0.00    -0.322 N 
HETATM   13  H   UNL     1       7.087  31.539  57.545  1.00  0.00     0.169 HD
HETATM   14  O   UNL     1       8.322  29.991  60.034  1.00  0.00    -0.266 OA
BRANCH  12  15
HETATM   15  C   UNL     1       6.216  31.948  59.357  1.00  0.00     0.035 A 
HETATM   16  C   UNL     1       6.524  32.637  60.530  1.00  0.00     0.029 A 
HETATM   17  C   UNL     1       5.518  33.281  61.256  1.00  0.00     0.002 A 
HETATM   18  C   UNL     1       4.196  33.239  60.818  1.00  0.00     0.000 A 
HETATM   19  C   UNL     1       3.877  32.549  59.653  1.00  0.00     0.002 A 
HETATM   20  C   UNL     1       4.882  31.908  58.926  1.00  0.00     0.029 A 
ENDBRANCH  12  15
ENDBRANCH  10  11
ENDBRANCH   2   5
BRANCH   1  21
HETATM   21  C   UNL     1       7.351  27.324  54.055  1.00  0.00     0.049 A 
HETATM   22  C   UNL     1       7.132  25.933  53.972  1.00  0.00     0.043 A 
HETATM   23  C   UNL     1       6.317  25.410  52.951  1.00  0.00     0.041 A 
HETATM   24  C   UNL     1       5.677  26.259  52.056  1.00  0.00     0.035 A 
HETATM   25  C   UNL     1       5.832  27.636  52.169  1.00  0.00     0.026 A 
HETATM   26 CL   UNL     1       4.666  25.610  50.827  1.00  0.00    -0.084 Cl
HETATM   27  C   UNL     1       6.658  28.163  53.165  1.00  0.00     0.032 A 
BRANCH  22  28
HETATM   28  C   UNL     1       7.596  24.918  54.951  1.00  0.00     0.194 C 
HETATM   29  O   UNL     1       7.948  25.304  56.064  1.00  0.00    -0.287 OA
BRANCH  28  30
HETATM   30  C   UNL     1       7.742  23.479  54.586  1.00  0.00     0.015 A 
HETATM   31  C   UNL     1       7.525  22.522  55.586  1.00  0.00     0.015 A 
HETATM   32  C   UNL     1       7.620  21.160  55.298  1.00  0.00     0.001 A 
HETATM   33  C   UNL     1       7.954  20.746  54.011  1.00  0.00     0.000 A 
HETATM   34  C   UNL     1       8.200  21.690  53.016  1.00  0.00     0.001 A 
HETATM   35  C   UNL     1       8.101  23.055  53.301  1.00  0.00     0.015 A 
ENDBRANCH  28  30
ENDBRANCH  22  28
ENDBRANCH   1  21
TORSDOF 6
ENDMDL
MODEL 7
REMARK VINA RESULT:      -9.9      4.311      8.846
REMARK  6 active torsions:
REMARK  status: ('A' for Active; 'I' for Inactive)
REMARK    1  A    between atoms: C_4  and  C_5 
REMARK    2  A    between atoms: C_5  and  C_6 
REMARK    3  A    between atoms: C_7  and  N_8 
REMARK       I    between atoms: N_8  and  C_9 
REMARK    4  A    between atoms: C_9  and  C_10 
REMARK    5  A    between atoms: C_15  and  C_16 
REMARK       I    between atoms: C_16  and  N_17 
REMARK    6  A    between atoms: N_17  and  C_18 
ROOT
HETATM    1  N   UNL     1       4.354  28.631  53.117  1.00  0.00    -0.321 N 
HETATM    2  C   UNL     1       5.141  28.650  51.987  1.00  0.00     0.277 C 
HETATM    3  O   UNL     1       6.041  29.441  51.745  1.00  0.00    -0.266 OA
HETATM    4  H   UNL     1       3.875  27.740  53.244  1.00  0.00     0.169 HD
ENDROOT
BRANCH   2   5
HETATM    5  C   UNL     1       4.813  27.544  51.084  1.00  0.00     0.158 A 
HETATM    6  N   UNL     1       4.352  27.802  49.793  1.00  0.00    -0.236 NA
HETATM    7  C   UNL     1       4.163  26.625  49.247  1.00  0.00     0.208 A 
HETATM    8  N   UNL     1       4.494  25.623  50.107  1.00  0.00    -0.344 N 
HETATM    9  H   UNL     1       4.460  24.627  49.924  1.00  0.00     0.167 HD
HETATM   10  C   UNL     1       4.926  26.175  51.298  1.00  0.00     0.136 A 
BRANCH  10  11
HETATM   11  C   UNL     1       5.402  25.321  52.370  1.00  0.00     0.275 C 
HETATM   12  N   UNL     1       6.762  25.123  52.441  1.00  0.00    -0.322 N 
HETATM   13  H   UNL     1       7.347  25.661  51.803  1.00  0.00     0.169 HD
HETATM   14  O   UNL     1       4.585  24.839  53.148  1.00  0.00    -0.266 OA
BRANCH  12  15
HETATM   15  C   UNL     1       7.475  24.249  53.285  1.00  0.00     0.035 A 
HETATM   16  C   UNL     1       7.821  24.537  54.606  1.00  0.00     0.029 A 
HETATM   17  C   UNL     1       8.488  23.587  55.385  1.00  0.00     0.002 A 
HETATM   18  C   UNL     1       8.816  22.343  54.851  1.00  0.00     0.000 A 
HETATM   19  C   UNL     1       8.482  22.048  53.533  1.00  0.00     0.002 A 
HETATM   20  C   UNL     1       7.814  22.996  52.755  1.00  0.00     0.029 A 
ENDBRANCH  12  15
ENDBRANCH  10  11
ENDBRANCH   2   5
BRANCH   1  21
HETATM   21  C   UNL     1       4.330  29.564  54.173  1.00  0.00     0.049 A 
HETATM   22  C   UNL     1       5.066  29.503  55.374  1.00  0.00     0.043 A 
HETATM   23  C   UNL     1       4.866  30.475  56.372  1.00  0.00     0.041 A 
HETATM   24  C   UNL     1       3.988  31.532  56.159  1.00  0.00     0.035 A 
HETATM   25  C   UNL     1       3.307  31.641  54.953  1.00  0.00     0.026 A 
HETATM   26 CL   UNL     1       3.769  32.726  57.376  1.00  0.00    -0.084 Cl
HETATM   27  C   UNL     1       3.483  30.667  53.966  1.00  0.00     0.032 A 
BRANCH  22  28
HETATM   28  C   UNL     1       6.161  28.547  55.678  1.00  0.00     0.194 C 
HETATM   29  O   UNL     1       5.979  27.358  55.425  1.00  0.00    -0.287 OA
BRANCH  28  30
HETATM   30  C   UNL     1       7.412  28.974  56.368  1.00  0.00     0.015 A 
HETATM   31  C   UNL     1       8.568  29.140  55.593  1.00  0.00     0.015 A 
HETATM   32  C   UNL     1       9.760  29.566  56.178  1.00  0.00     0.001 A 
HETATM   33  C   UNL     1       9.812  29.807  57.548  1.00  0.00     0.000 A 
HETATM   34  C   UNL     1       8.676  29.617  58.334  1.00  0.00     0.001 A 
HETATM   35  C   UNL     1       7.478  29.196  57.750  1.00  0.00     0.015 A 
ENDBRANCH  28  30
ENDBRANCH  22  28
ENDBRANCH   1  21
TORSDOF 6
ENDMDL
MODEL 8
REMARK VINA RESULT:      -9.8      5.613      9.643
REMARK  6 active torsions:
REMARK  status: ('A' for Active; 'I' for Inactive)
REMARK    1  A    between atoms: C_4  and  C_5 
REMARK    2  A    between atoms: C_5  and  C_6 
REMARK    3  A    between atoms: C_7  and  N_8 
REMARK       I    between atoms: N_8  and  C_9 
REMARK    4  A    between atoms: C_9  and  C_10 
REMARK    5  A    between atoms: C_15  and  C_16 
REMARK       I    between atoms: C_16  and  N_17 
REMARK    6  A    between atoms: N_17  and  C_18 
ROOT
HETATM    1  N   UNL     1       4.887  29.710  51.937  1.00  0.00    -0.321 N 
HETATM    2  C   UNL     1       5.275  28.432  52.273  1.00  0.00     0.277 C 
HETATM    3  O   UNL     1       5.775  27.607  51.522  1.00  0.00    -0.266 OA
HETATM    4  H   UNL     1       4.767  30.308  52.754  1.00  0.00     0.169 HD
ENDROOT
BRANCH   2   5
HETATM    5  C   UNL     1       5.068  28.162  53.698  1.00  0.00     0.158 A 
HETATM    6  N   UNL     1       4.693  29.190  54.562  1.00  0.00    -0.236 NA
HETATM    7  C   UNL     1       4.581  28.631  55.743  1.00  0.00     0.208 A 
HETATM    8  N   UNL     1       4.846  27.298  55.685  1.00  0.00    -0.344 N 
HETATM    9  H   UNL     1       4.808  26.635  56.451  1.00  0.00     0.167 HD
HETATM   10  C   UNL     1       5.154  26.955  54.382  1.00  0.00     0.136 A 
BRANCH  10  11
HETATM   11  C   UNL     1       5.416  25.571  54.032  1.00  0.00     0.275 C 
HETATM   12  N   UNL     1       6.527  24.992  54.600  1.00  0.00    -0.322 N 
HETATM   13  H   UNL     1       7.034  25.537  55.296  1.00  0.00     0.169 HD
HETATM   14  O   UNL     1       4.640  24.997  53.273  1.00  0.00    -0.266 OA
BRANCH  12  15
HETATM   15  C   UNL     1       7.084  23.725  54.336  1.00  0.00     0.035 A 
HETATM   16  C   UNL     1       7.459  23.278  53.069  1.00  0.00     0.029 A 
HETATM   17  C   UNL     1       8.050  22.021  52.910  1.00  0.00     0.002 A 
HETATM   18  C   UNL     1       8.269  21.200  54.014  1.00  0.00     0.000 A 
HETATM   19  C   UNL     1       7.893  21.634  55.281  1.00  0.00     0.002 A 
HETATM   20  C   UNL     1       7.304  22.890  55.441  1.00  0.00     0.029 A 
ENDBRANCH  12  15
ENDBRANCH  10  11
ENDBRANCH   2   5
BRANCH   1  21
HETATM   21  C   UNL     1       4.872  30.305  50.660  1.00  0.00     0.049 A 
HETATM   22  C   UNL     1       4.053  29.948  49.569  1.00  0.00     0.043 A 
HETATM   23  C   UNL     1       4.219  30.587  48.326  1.00  0.00     0.041 A 
HETATM   24  C   UNL     1       5.148  31.611  48.179  1.00  0.00     0.035 A 
HETATM   25  C   UNL     1       5.915  32.017  49.265  1.00  0.00     0.026 A 
HETATM   26 CL   UNL     1       5.326  32.400  46.663  1.00  0.00    -0.084 Cl
HETATM   27  C   UNL     1       5.773  31.372  50.496  1.00  0.00     0.032 A 
BRANCH  22  28
HETATM   28  C   UNL     1       2.905  29.008  49.612  1.00  0.00     0.194 C 
HETATM   29  O   UNL     1       2.086  29.135  50.521  1.00  0.00    -0.287 OA
BRANCH  28  30
HETATM   30  C   UNL     1       2.782  27.867  48.659  1.00  0.00     0.015 A 
HETATM   31  C   UNL     1       3.793  26.898  48.660  1.00  0.00     0.015 A 
HETATM   32  C   UNL     1       3.719  25.793  47.811  1.00  0.00     0.001 A 
HETATM   33  C   UNL     1       2.642  25.661  46.939  1.00  0.00     0.000 A 
HETATM   34  C   UNL     1       1.645  26.635  46.910  1.00  0.00     0.001 A 
HETATM   35  C   UNL     1       1.714  27.740  47.762  1.00  0.00     0.015 A 
ENDBRANCH  28  30
ENDBRANCH  22  28
ENDBRANCH   1  21
TORSDOF 6
ENDMDL
MODEL 9
REMARK VINA RESULT:      -9.8      3.546      9.668
REMARK  6 active torsions:
REMARK  status: ('A' for Active; 'I' for Inactive)
REMARK    1  A    between atoms: C_4  and  C_5 
REMARK    2  A    between atoms: C_5  and  C_6 
REMARK    3  A    between atoms: C_7  and  N_8 
REMARK       I    between atoms: N_8  and  C_9 
REMARK    4  A    between atoms: C_9  and  C_10 
REMARK    5  A    between atoms: C_15  and  C_16 
REMARK       I    between atoms: C_16  and  N_17 
REMARK    6  A    between atoms: N_17  and  C_18 
ROOT
HETATM    1  N   UNL     1       6.743  29.120  55.208  1.00  0.00    -0.321 N 
HETATM    2  C   UNL     1       6.232  27.872  54.932  1.00  0.00     0.277 C 
HETATM    3  O   UNL     1       6.060  26.967  55.736  1.00  0.00    -0.266 OA
HETATM    4  H   UNL     1       6.537  29.797  54.474  1.00  0.00     0.169 HD
ENDROOT
BRANCH   2   5
HETATM    5  C   UNL     1       5.847  27.745  53.525  1.00  0.00     0.158 A 
HETATM    6  N   UNL     1       5.691  28.882  52.732  1.00  0.00    -0.236 NA
HETATM    7  C   UNL     1       5.361  28.438  51.544  1.00  0.00     0.208 A 
HETATM    8  N   UNL     1       5.312  27.078  51.521  1.00  0.00    -0.344 N 
HETATM    9  H   UNL     1       5.103  26.489  50.724  1.00  0.00     0.167 HD
HETATM   10  C   UNL     1       5.628  26.594  52.776  1.00  0.00     0.136 A 
BRANCH  10  11
HETATM   11  C   UNL     1       5.712  25.164  53.009  1.00  0.00     0.275 C 
HETATM   12  N   UNL     1       6.838  24.712  53.658  1.00  0.00    -0.322 N 
HETATM   13  H   UNL     1       7.486  25.413  54.014  1.00  0.00     0.169 HD
HETATM   14  O   UNL     1       4.787  24.450  52.634  1.00  0.00    -0.266 OA
BRANCH  12  15
HETATM   15  C   UNL     1       7.236  23.381  53.892  1.00  0.00     0.035 A 
HETATM   16  C   UNL     1       7.660  22.499  52.898  1.00  0.00     0.029 A 
HETATM   17  C   UNL     1       8.084  21.208  53.232  1.00  0.00     0.002 A 
HETATM   18  C   UNL     1       8.085  20.789  54.561  1.00  0.00     0.000 A 
HETATM   19  C   UNL     1       7.657  21.659  55.560  1.00  0.00     0.002 A 
HETATM   20  C   UNL     1       7.236  22.948  55.226  1.00  0.00     0.029 A 
ENDBRANCH  12  15
ENDBRANCH  10  11
ENDBRANCH   2   5
BRANCH   1  21
HETATM   21  C   UNL     1       7.277  29.590  56.425  1.00  0.00     0.049 A 
HETATM   22  C   UNL     1       6.602  30.331  57.417  1.00  0.00     0.043 A 
HETATM   23  C   UNL     1       7.303  30.800  58.543  1.00  0.00     0.041 A 
HETATM   24  C   UNL     1       8.647  30.490  58.716  1.00  0.00     0.035 A 
HETATM   25  C   UNL     1       9.307  29.704  57.779  1.00  0.00     0.026 A 
HETATM   26 CL   UNL     1       9.487  31.050  60.107  1.00  0.00    -0.084 Cl
HETATM   27  C   UNL     1       8.625  29.253  56.646  1.00  0.00     0.032 A 
BRANCH  22  28
HETATM   28  C   UNL     1       5.141  30.590  57.467  1.00  0.00     0.194 C 
HETATM   29  O   UNL     1       4.382  29.718  57.046  1.00  0.00    -0.287 OA
BRANCH  28  30
HETATM   30  C   UNL     1       4.588  31.903  57.908  1.00  0.00     0.015 A 
HETATM   31  C   UNL     1       3.887  31.948  59.120  1.00  0.00     0.015 A 
HETATM   32  C   UNL     1       3.371  33.152  59.598  1.00  0.00     0.001 A 
HETATM   33  C   UNL     1       3.533  34.319  58.856  1.00  0.00     0.000 A 
HETATM   34  C   UNL     1       4.203  34.281  57.635  1.00  0.00     0.001 A 
HETATM   35  C   UNL     1       4.726  33.076  57.155  1.00  0.00     0.015 A 
ENDBRANCH  28  30
ENDBRANCH  22  28
ENDBRANCH   1  21
TORSDOF 6
ENDMDL
MODEL 10
REMARK VINA RESULT:      -9.6      3.097      5.866
REMARK  6 active torsions:
REMARK  status: ('A' for Active; 'I' for Inactive)
REMARK    1  A    between atoms: C_4  and  C_5 
REMARK    2  A    between atoms: C_5  and  C_6 
REMARK    3  A    between atoms: C_7  and  N_8 
REMARK       I    between atoms: N_8  and  C_9 
REMARK    4  A    between atoms: C_9  and  C_10 
REMARK    5  A    between atoms: C_15  and  C_16 
REMARK       I    between atoms: C_16  and  N_17 
REMARK    6  A    between atoms: N_17  and  C_18 
ROOT
HETATM    1  N   UNL     1       7.888  27.802  57.090  1.00  0.00    -0.321 N 
HETATM    2  C   UNL     1       6.862  28.564  57.602  1.00  0.00     0.277 C 
HETATM    3  O   UNL     1       5.668  28.309  57.533  1.00  0.00    -0.266 OA
HETATM    4  H   UNL     1       8.792  28.039  57.499  1.00  0.00     0.169 HD
ENDROOT
BRANCH   2   5
HETATM    5  C   UNL     1       7.367  29.738  58.317  1.00  0.00     0.158 A 
HETATM    6  N   UNL     1       8.486  29.634  59.143  1.00  0.00    -0.236 NA
HETATM    7  C   UNL     1       8.684  30.839  59.618  1.00  0.00     0.208 A 
HETATM    8  N   UNL     1       7.767  31.719  59.132  1.00  0.00    -0.344 N 
HETATM    9  H   UNL     1       7.712  32.712  59.325  1.00  0.00     0.167 HD
HETATM   10  C   UNL     1       6.906  31.050  58.282  1.00  0.00     0.136 A 
BRANCH  10  11
HETATM   11  C   UNL     1       5.866  31.774  57.575  1.00  0.00     0.275 C 
HETATM   12  N   UNL     1       5.140  31.060  56.650  1.00  0.00    -0.322 N 
HETATM   13  H   UNL     1       5.313  30.058  56.592  1.00  0.00     0.169 HD
HETATM   14  O   UNL     1       5.685  32.958  57.843  1.00  0.00    -0.266 OA
BRANCH  12  15
HETATM   15  C   UNL     1       4.176  31.537  55.740  1.00  0.00     0.035 A 
HETATM   16  C   UNL     1       2.821  31.686  56.034  1.00  0.00     0.029 A 
HETATM   17  C   UNL     1       1.944  32.214  55.081  1.00  0.00     0.002 A 
HETATM   18  C   UNL     1       2.415  32.596  53.826  1.00  0.00     0.000 A 
HETATM   19  C   UNL     1       3.764  32.446  53.520  1.00  0.00     0.002 A 
HETATM   20  C   UNL     1       4.639  31.920  54.472  1.00  0.00     0.029 A 
ENDBRANCH  12  15
ENDBRANCH  10  11
ENDBRANCH   2   5
BRANCH   1  21
HETATM   21  C   UNL     1       7.795  26.644  56.292  1.00  0.00     0.049 A 
HETATM   22  C   UNL     1       7.430  26.581  54.931  1.00  0.00     0.043 A 
HETATM   23  C   UNL     1       7.301  25.332  54.295  1.00  0.00     0.041 A 
HETATM   24  C   UNL     1       7.586  24.158  54.983  1.00  0.00     0.035 A 
HETATM   25  C   UNL     1       8.012  24.211  56.305  1.00  0.00     0.026 A 
HETATM   26 CL   UNL     1       7.447  22.640  54.189  1.00  0.00    -0.084 Cl
HETATM   27  C   UNL     1       8.121  25.445  56.951  1.00  0.00     0.032 A 
BRANCH  22  28
HETATM   28  C   UNL     1       7.266  27.740  54.018  1.00  0.00     0.194 C 
HETATM   29  O   UNL     1       8.253  28.435  53.781  1.00  0.00    -0.287 OA
BRANCH  28  30
HETATM   30  C   UNL     1       5.934  28.137  53.478  1.00  0.00     0.015 A 
HETATM   31  C   UNL     1       5.868  28.577  52.149  1.00  0.00     0.015 A 
HETATM   32  C   UNL     1       4.646  28.935  51.579  1.00  0.00     0.001 A 
HETATM   33  C   UNL     1       3.482  28.875  52.341  1.00  0.00     0.000 A 
HETATM   34  C   UNL     1       3.541  28.466  53.673  1.00  0.00     0.001 A 
HETATM   35  C   UNL     1       4.763  28.103  54.245  1.00  0.00     0.015 A 
ENDBRANCH  28  30
ENDBRANCH  22  28
ENDBRANCH   1  21
TORSDOF 6
ENDMDL
