MODEL 1
REMARK VINA RESULT:      -9.1      0.000      0.000
REMARK  1 active torsions:
REMARK  status: ('A' for Active; 'I' for Inactive)
REMARK    1  A    between atoms: C_10  and  N_11 
ROOT
HETATM    1  C   UNL     1       2.781  26.102  47.000  1.00  0.00     0.015 C 
HETATM    2  C   UNL     1       3.219  27.029  48.149  1.00  0.00    -0.036 C 
HETATM    3  C   UNL     1       1.947  27.628  48.785  1.00  0.00     0.015 C 
HETATM    4  C   UNL     1       4.116  28.145  47.577  1.00  0.00     0.093 C 
HETATM    5  C   UNL     1       4.802  28.976  48.641  1.00  0.00     0.163 C 
HETATM    6  O   UNL     1       5.202  30.115  48.418  1.00  0.00    -0.292 OA
HETATM    7  C   UNL     1       5.043  28.359  49.953  1.00  0.00     0.053 A 
HETATM    8  C   UNL     1       4.672  27.062  50.230  1.00  0.00     0.069 A 
HETATM    9  N   UNL     1       4.892  26.487  51.436  1.00  0.00    -0.066 NA
HETATM   10  C   UNL     1       5.458  27.239  52.402  1.00  0.00     0.728 A 
HETATM   11  N   UNL     1       5.841  28.509  52.203  1.00  0.00    -0.074 NA
HETATM   12  C   UNL     1       5.632  29.047  50.983  1.00  0.00     0.153 A 
HETATM   13  C   UNL     1       4.018  26.205  49.180  1.00  0.00     0.070 C 
ENDROOT
BRANCH  10  14
HETATM   14  N   UNL     1       5.635  26.590  53.614  1.00  0.00    -0.164 N 
HETATM   15  C   UNL     1       6.211  25.396  53.837  1.00  0.00     0.187 A 
HETATM   16  S   UNL     1       6.349  24.842  55.470  1.00  0.00    -0.049 SA
HETATM   17  N   UNL     1       6.726  24.579  52.947  1.00  0.00    -0.223 NA
HETATM   18  C   UNL     1       7.160  23.424  54.940  1.00  0.00     0.037 A 
HETATM   19  C   UNL     1       7.273  23.463  53.552  1.00  0.00     0.076 A 
HETATM   20  C   UNL     1       7.667  22.353  55.697  1.00  0.00     0.021 A 
HETATM   21  C   UNL     1       7.921  22.399  52.892  1.00  0.00     0.033 A 
HETATM   22  C   UNL     1       8.436  21.331  53.634  1.00  0.00     0.002 A 
HETATM   23  C   UNL     1       8.307  21.310  55.020  1.00  0.00     0.002 A 
HETATM   24  H   UNL     1       5.435  27.210  54.383  1.00  0.00     0.186 HD
ENDBRANCH  10  14
TORSDOF 1
ENDMDL
MODEL 2
REMARK VINA RESULT:      -9.0      7.718      9.758
REMARK  1 active torsions:
REMARK  status: ('A' for Active; 'I' for Inactive)
REMARK    1  A    between atoms: C_10  and  N_11 
ROOT
HETATM    1  C   UNL     1       6.849  24.172  55.805  1.00  0.00     0.015 C 
HETATM    2  C   UNL     1       6.481  25.623  56.164  1.00  0.00    -0.036 C 
HETATM    3  C   UNL     1       5.262  25.584  57.109  1.00  0.00     0.015 C 
HETATM    4  C   UNL     1       6.139  26.387  54.870  1.00  0.00     0.093 C 
HETATM    5  C   UNL     1       5.996  27.882  55.068  1.00  0.00     0.163 C 
HETATM    6  O   UNL     1       5.348  28.580  54.294  1.00  0.00    -0.292 OA
HETATM    7  C   UNL     1       6.714  28.504  56.189  1.00  0.00     0.053 A 
HETATM    8  C   UNL     1       7.506  27.772  57.046  1.00  0.00     0.069 A 
HETATM    9  N   UNL     1       8.171  28.339  58.080  1.00  0.00    -0.066 NA
HETATM   10  C   UNL     1       8.008  29.661  58.290  1.00  0.00     0.728 A 
HETATM   11  N   UNL     1       7.249  30.433  57.499  1.00  0.00    -0.074 NA
HETATM   12  C   UNL     1       6.618  29.845  56.461  1.00  0.00     0.153 A 
HETATM   13  C   UNL     1       7.691  26.292  56.851  1.00  0.00     0.070 C 
ENDROOT
BRANCH  10  14
HETATM   14  N   UNL     1       8.703  30.167  59.377  1.00  0.00    -0.164 N 
HETATM   15  C   UNL     1       8.224  30.902  60.396  1.00  0.00     0.187 A 
HETATM   16  S   UNL     1       9.313  31.362  61.659  1.00  0.00    -0.049 SA
HETATM   17  N   UNL     1       6.988  31.307  60.578  1.00  0.00    -0.223 NA
HETATM   18  C   UNL     1       8.035  32.142  62.502  1.00  0.00     0.037 A 
HETATM   19  C   UNL     1       6.861  32.002  61.765  1.00  0.00     0.076 A 
HETATM   20  C   UNL     1       8.064  32.825  63.730  1.00  0.00     0.021 A 
HETATM   21  C   UNL     1       5.668  32.558  62.274  1.00  0.00     0.033 A 
HETATM   22  C   UNL     1       5.683  33.234  63.498  1.00  0.00     0.002 A 
HETATM   23  C   UNL     1       6.869  33.366  64.215  1.00  0.00     0.002 A 
HETATM   24  H   UNL     1       9.626  29.767  59.429  1.00  0.00     0.186 HD
ENDBRANCH  10  14
TORSDOF 1
ENDMDL
MODEL 3
REMARK VINA RESULT:      -8.9      6.236      8.551
REMARK  1 active torsions:
REMARK  status: ('A' for Active; 'I' for Inactive)
REMARK    1  A    between atoms: C_10  and  N_11 
ROOT
HETATM    1  C   UNL     1       9.452  30.781  61.627  1.00  0.00     0.015 C 
HETATM    2  C   UNL     1       8.662  31.226  60.382  1.00  0.00    -0.036 C 
HETATM    3  C   UNL     1       9.492  32.303  59.653  1.00  0.00     0.015 C 
HETATM    4  C   UNL     1       7.303  31.800  60.832  1.00  0.00     0.093 C 
HETATM    5  C   UNL     1       6.342  32.047  59.687  1.00  0.00     0.163 C 
HETATM    6  O   UNL     1       5.417  32.849  59.778  1.00  0.00    -0.292 OA
HETATM    7  C   UNL     1       6.499  31.246  58.465  1.00  0.00     0.053 A 
HETATM    8  C   UNL     1       7.480  30.288  58.341  1.00  0.00     0.069 A 
HETATM    9  N   UNL     1       7.630  29.545  57.218  1.00  0.00    -0.066 NA
HETATM   10  C   UNL     1       6.808  29.796  56.179  1.00  0.00     0.728 A 
HETATM   11  N   UNL     1       5.834  30.717  56.230  1.00  0.00    -0.074 NA
HETATM   12  C   UNL     1       5.692  31.424  57.370  1.00  0.00     0.153 A 
HETATM   13  C   UNL     1       8.427  30.000  59.474  1.00  0.00     0.070 C 
ENDROOT
BRANCH  10  14
HETATM   14  N   UNL     1       7.032  29.012  55.058  1.00  0.00    -0.164 N 
HETATM   15  C   UNL     1       7.163  27.675  54.997  1.00  0.00     0.187 A 
HETATM   16  S   UNL     1       7.386  26.942  53.446  1.00  0.00    -0.049 SA
HETATM   17  N   UNL     1       7.115  26.821  55.993  1.00  0.00    -0.223 NA
HETATM   18  C   UNL     1       7.406  25.382  54.165  1.00  0.00     0.037 A 
HETATM   19  C   UNL     1       7.243  25.521  55.542  1.00  0.00     0.076 A 
HETATM   20  C   UNL     1       7.551  24.123  53.558  1.00  0.00     0.021 A 
HETATM   21  C   UNL     1       7.215  24.361  56.344  1.00  0.00     0.033 A 
HETATM   22  C   UNL     1       7.351  23.102  55.750  1.00  0.00     0.002 A 
HETATM   23  C   UNL     1       7.519  22.987  54.373  1.00  0.00     0.002 A 
HETATM   24  H   UNL     1       6.910  29.550  54.215  1.00  0.00     0.186 HD
ENDBRANCH  10  14
TORSDOF 1
ENDMDL
MODEL 4
REMARK VINA RESULT:      -8.8      2.904      7.561
REMARK  1 active torsions:
REMARK  status: ('A' for Active; 'I' for Inactive)
REMARK    1  A    between atoms: C_10  and  N_11 
ROOT
HETATM    1  C   UNL     1       8.336  20.359  53.040  1.00  0.00     0.015 C 
HETATM    2  C   UNL     1       8.320  21.780  53.630  1.00  0.00    -0.036 C 
HETATM    3  C   UNL     1       9.755  22.340  53.559  1.00  0.00     0.015 C 
HETATM    4  C   UNL     1       7.837  21.708  55.093  1.00  0.00     0.093 C 
HETATM    5  C   UNL     1       7.549  23.065  55.704  1.00  0.00     0.163 C 
HETATM    6  O   UNL     1       7.560  23.246  56.917  1.00  0.00    -0.292 OA
HETATM    7  C   UNL     1       7.186  24.167  54.802  1.00  0.00     0.053 A 
HETATM    8  C   UNL     1       7.096  23.997  53.438  1.00  0.00     0.069 A 
HETATM    9  N   UNL     1       6.761  25.008  52.602  1.00  0.00    -0.066 NA
HETATM   10  C   UNL     1       6.552  26.228  53.136  1.00  0.00     0.728 A 
HETATM   11  N   UNL     1       6.626  26.466  54.454  1.00  0.00    -0.074 NA
HETATM   12  C   UNL     1       6.938  25.434  55.265  1.00  0.00     0.153 A 
HETATM   13  C   UNL     1       7.346  22.652  52.810  1.00  0.00     0.070 C 
ENDROOT
BRANCH  10  14
HETATM   14  N   UNL     1       6.232  27.217  52.219  1.00  0.00    -0.164 N 
HETATM   15  C   UNL     1       5.525  27.092  51.082  1.00  0.00     0.187 A 
HETATM   16  S   UNL     1       5.226  28.513  50.141  1.00  0.00    -0.049 SA
HETATM   17  N   UNL     1       4.990  26.000  50.589  1.00  0.00    -0.223 NA
HETATM   18  C   UNL     1       4.312  27.596  49.012  1.00  0.00     0.037 A 
HETATM   19  C   UNL     1       4.295  26.265  49.425  1.00  0.00     0.076 A 
HETATM   20  C   UNL     1       3.652  28.022  47.847  1.00  0.00     0.021 A 
HETATM   21  C   UNL     1       3.587  25.323  48.650  1.00  0.00     0.033 A 
HETATM   22  C   UNL     1       2.920  25.735  47.492  1.00  0.00     0.002 A 
HETATM   23  C   UNL     1       2.955  27.069  47.096  1.00  0.00     0.002 A 
HETATM   24  H   UNL     1       6.443  28.130  52.589  1.00  0.00     0.186 HD
ENDBRANCH  10  14
TORSDOF 1
ENDMDL
MODEL 5
REMARK VINA RESULT:      -8.7      5.378      6.819
REMARK  1 active torsions:
REMARK  status: ('A' for Active; 'I' for Inactive)
REMARK    1  A    between atoms: C_10  and  N_11 
ROOT
HETATM    1  C   UNL     1       5.087  32.559  57.106  1.00  0.00     0.015 C 
HETATM    2  C   UNL     1       5.638  31.152  57.401  1.00  0.00    -0.036 C 
HETATM    3  C   UNL     1       4.520  30.338  58.085  1.00  0.00     0.015 C 
HETATM    4  C   UNL     1       6.862  31.280  58.330  1.00  0.00     0.093 C 
HETATM    5  C   UNL     1       7.634  29.987  58.496  1.00  0.00     0.163 C 
HETATM    6  O   UNL     1       8.353  29.781  59.469  1.00  0.00    -0.292 OA
HETATM    7  C   UNL     1       7.557  28.991  57.418  1.00  0.00     0.053 A 
HETATM    8  C   UNL     1       6.817  29.205  56.277  1.00  0.00     0.069 A 
HETATM    9  N   UNL     1       6.743  28.291  55.280  1.00  0.00    -0.066 NA
HETATM   10  C   UNL     1       7.388  27.119  55.445  1.00  0.00     0.728 A 
HETATM   11  N   UNL     1       8.123  26.843  56.532  1.00  0.00    -0.074 NA
HETATM   12  C   UNL     1       8.200  27.782  57.498  1.00  0.00     0.153 A 
HETATM   13  C   UNL     1       6.067  30.493  56.073  1.00  0.00     0.070 C 
ENDROOT
BRANCH  10  14
HETATM   14  N   UNL     1       7.252  26.227  54.393  1.00  0.00    -0.164 N 
HETATM   15  C   UNL     1       7.562  24.919  54.373  1.00  0.00     0.187 A 
HETATM   16  S   UNL     1       7.238  24.021  52.930  1.00  0.00    -0.049 SA
HETATM   17  N   UNL     1       8.072  24.203  55.348  1.00  0.00    -0.223 NA
HETATM   18  C   UNL     1       7.810  22.582  53.675  1.00  0.00     0.037 A 
HETATM   19  C   UNL     1       8.212  22.880  54.975  1.00  0.00     0.076 A 
HETATM   20  C   UNL     1       7.893  21.281  53.151  1.00  0.00     0.021 A 
HETATM   21  C   UNL     1       8.710  21.840  55.788  1.00  0.00     0.033 A 
HETATM   22  C   UNL     1       8.791  20.539  55.281  1.00  0.00     0.002 A 
HETATM   23  C   UNL     1       8.388  20.266  53.976  1.00  0.00     0.002 A 
HETATM   24  H   UNL     1       6.705  26.631  53.650  1.00  0.00     0.186 HD
ENDBRANCH  10  14
TORSDOF 1
ENDMDL
MODEL 6
REMARK VINA RESULT:      -8.7      7.988     10.000
REMARK  1 active torsions:
REMARK  status: ('A' for Active; 'I' for Inactive)
REMARK    1  A    between atoms: C_10  and  N_11 
ROOT
HETATM    1  C   UNL     1       4.555  34.496  61.857  1.00  0.00     0.015 C 
HETATM    2  C   UNL     1       5.427  33.240  61.675  1.00  0.00    -0.036 C 
HETATM    3  C   UNL     1       4.684  32.050  62.318  1.00  0.00     0.015 C 
HETATM    4  C   UNL     1       6.785  33.469  62.367  1.00  0.00     0.093 C 
HETATM    5  C   UNL     1       7.813  32.402  62.052  1.00  0.00     0.163 C 
HETATM    6  O   UNL     1       8.767  32.181  62.792  1.00  0.00    -0.292 OA
HETATM    7  C   UNL     1       7.682  31.666  60.787  1.00  0.00     0.053 A 
HETATM    8  C   UNL     1       6.667  31.924  59.893  1.00  0.00     0.069 A 
HETATM    9  N   UNL     1       6.541  31.250  58.725  1.00  0.00    -0.066 NA
HETATM   10  C   UNL     1       7.425  30.266  58.463  1.00  0.00     0.728 A 
HETATM   11  N   UNL     1       8.435  29.959  59.290  1.00  0.00    -0.074 NA
HETATM   12  C   UNL     1       8.551  30.664  60.434  1.00  0.00     0.153 A 
HETATM   13  C   UNL     1       5.652  33.000  60.167  1.00  0.00     0.070 C 
ENDROOT
BRANCH  10  14
HETATM   14  N   UNL     1       7.223  29.608  57.260  1.00  0.00    -0.164 N 
HETATM   15  C   UNL     1       7.471  28.319  56.970  1.00  0.00     0.187 A 
HETATM   16  S   UNL     1       7.072  27.741  55.389  1.00  0.00    -0.049 SA
HETATM   17  N   UNL     1       7.969  27.402  57.767  1.00  0.00    -0.223 NA
HETATM   18  C   UNL     1       7.593  26.161  55.815  1.00  0.00     0.037 A 
HETATM   19  C   UNL     1       8.039  26.176  57.135  1.00  0.00     0.076 A 
HETATM   20  C   UNL     1       7.603  24.988  55.041  1.00  0.00     0.021 A 
HETATM   21  C   UNL     1       8.506  24.975  57.709  1.00  0.00     0.033 A 
HETATM   22  C   UNL     1       8.514  23.800  56.951  1.00  0.00     0.002 A 
HETATM   23  C   UNL     1       8.069  23.809  55.632  1.00  0.00     0.002 A 
HETATM   24  H   UNL     1       6.678  30.176  56.630  1.00  0.00     0.186 HD
ENDBRANCH  10  14
TORSDOF 1
ENDMDL
MODEL 7
REMARK VINA RESULT:      -8.6     16.829     18.500
REMARK  1 active torsions:
REMARK  status: ('A' for Active; 'I' for Inactive)
REMARK    1  A    between atoms: C_10  and  N_11 
ROOT
HETATM    1  C   UNL     1       8.279  32.286  62.100  1.00  0.00     0.015 C 
HETATM    2  C   UNL     1       7.091  32.847  62.902  1.00  0.00    -0.036 C 
HETATM    3  C   UNL     1       5.967  31.790  62.888  1.00  0.00     0.015 C 
HETATM    4  C   UNL     1       6.614  34.155  62.241  1.00  0.00     0.093 C 
HETATM    5  C   UNL     1       5.610  34.925  63.074  1.00  0.00     0.163 C 
HETATM    6  O   UNL     1       4.832  35.730  62.573  1.00  0.00    -0.292 OA
HETATM    7  C   UNL     1       5.629  34.734  64.531  1.00  0.00     0.053 A 
HETATM    8  C   UNL     1       6.528  33.891  65.147  1.00  0.00     0.069 A 
HETATM    9  N   UNL     1       6.551  33.712  66.489  1.00  0.00    -0.066 NA
HETATM   10  C   UNL     1       5.627  34.357  67.230  1.00  0.00     0.728 A 
HETATM   11  N   UNL     1       4.721  35.189  66.697  1.00  0.00    -0.074 NA
HETATM   12  C   UNL     1       4.738  35.368  65.360  1.00  0.00     0.153 A 
HETATM   13  C   UNL     1       7.556  33.140  64.345  1.00  0.00     0.070 C 
ENDROOT
BRANCH  10  14
HETATM   14  N   UNL     1       5.700  34.111  68.592  1.00  0.00    -0.164 N 
HETATM   15  C   UNL     1       6.335  34.835  69.531  1.00  0.00     0.187 A 
HETATM   16  S   UNL     1       6.219  34.325  71.179  1.00  0.00    -0.049 SA
HETATM   17  N   UNL     1       7.033  35.934  69.357  1.00  0.00    -0.223 NA
HETATM   18  C   UNL     1       7.156  35.673  71.683  1.00  0.00     0.037 A 
HETATM   19  C   UNL     1       7.498  36.426  70.561  1.00  0.00     0.076 A 
HETATM   20  C   UNL     1       7.557  36.046  72.977  1.00  0.00     0.021 A 
HETATM   21  C   UNL     1       8.263  37.597  70.735  1.00  0.00     0.033 A 
HETATM   22  C   UNL     1       8.663  37.982  72.019  1.00  0.00     0.002 A 
HETATM   23  C   UNL     1       8.315  37.212  73.125  1.00  0.00     0.002 A 
HETATM   24  H   UNL     1       5.051  33.388  68.860  1.00  0.00     0.186 HD
ENDBRANCH  10  14
TORSDOF 1
ENDMDL
MODEL 8
REMARK VINA RESULT:      -8.3      3.248      7.672
REMARK  1 active torsions:
REMARK  status: ('A' for Active; 'I' for Inactive)
REMARK    1  A    between atoms: C_10  and  N_11 
ROOT
HETATM    1  C   UNL     1       7.554  22.556  53.085  1.00  0.00     0.015 C 
HETATM    2  C   UNL     1       7.322  24.055  53.349  1.00  0.00    -0.036 C 
HETATM    3  C   UNL     1       8.281  24.851  52.439  1.00  0.00     0.015 C 
HETATM    4  C   UNL     1       7.612  24.352  54.834  1.00  0.00     0.093 C 
HETATM    5  C   UNL     1       7.187  25.740  55.268  1.00  0.00     0.163 C 
HETATM    6  O   UNL     1       7.684  26.295  56.243  1.00  0.00    -0.292 OA
HETATM    7  C   UNL     1       6.103  26.396  54.524  1.00  0.00     0.053 A 
HETATM    8  C   UNL     1       5.470  25.787  53.465  1.00  0.00     0.069 A 
HETATM    9  N   UNL     1       4.469  26.386  52.776  1.00  0.00    -0.066 NA
HETATM   10  C   UNL     1       4.122  27.641  53.128  1.00  0.00     0.728 A 
HETATM   11  N   UNL     1       4.698  28.295  54.146  1.00  0.00    -0.074 NA
HETATM   12  C   UNL     1       5.675  27.663  54.830  1.00  0.00     0.153 A 
HETATM   13  C   UNL     1       5.851  24.396  53.034  1.00  0.00     0.070 C 
ENDROOT
BRANCH  10  14
HETATM   14  N   UNL     1       3.104  28.196  52.368  1.00  0.00    -0.164 N 
HETATM   15  C   UNL     1       3.189  28.730  51.136  1.00  0.00     0.187 A 
HETATM   16  S   UNL     1       1.740  29.310  50.392  1.00  0.00    -0.049 SA
HETATM   17  N   UNL     1       4.261  28.846  50.388  1.00  0.00    -0.223 NA
HETATM   18  C   UNL     1       2.614  29.731  48.974  1.00  0.00     0.037 A 
HETATM   19  C   UNL     1       3.955  29.403  49.160  1.00  0.00     0.076 A 
HETATM   20  C   UNL     1       2.149  30.305  47.779  1.00  0.00     0.021 A 
HETATM   21  C   UNL     1       4.868  29.650  48.114  1.00  0.00     0.033 A 
HETATM   22  C   UNL     1       4.416  30.215  46.917  1.00  0.00     0.002 A 
HETATM   23  C   UNL     1       3.072  30.540  46.754  1.00  0.00     0.002 A 
HETATM   24  H   UNL     1       2.205  27.999  52.776  1.00  0.00     0.186 HD
ENDBRANCH  10  14
TORSDOF 1
ENDMDL
MODEL 9
REMARK VINA RESULT:      -8.3      1.678      2.414
REMARK  1 active torsions:
REMARK  status: ('A' for Active; 'I' for Inactive)
REMARK    1  A    between atoms: C_10  and  N_11 
ROOT
HETATM    1  C   UNL     1       2.117  31.179  48.147  1.00  0.00     0.015 C 
HETATM    2  C   UNL     1       3.050  29.964  48.297  1.00  0.00    -0.036 C 
HETATM    3  C   UNL     1       4.453  30.380  47.807  1.00  0.00     0.015 C 
HETATM    4  C   UNL     1       2.500  28.803  47.444  1.00  0.00     0.093 C 
HETATM    5  C   UNL     1       3.197  27.482  47.698  1.00  0.00     0.163 C 
HETATM    6  O   UNL     1       3.197  26.578  46.867  1.00  0.00    -0.292 OA
HETATM    7  C   UNL     1       3.830  27.273  49.007  1.00  0.00     0.053 A 
HETATM    8  C   UNL     1       3.800  28.232  49.995  1.00  0.00     0.069 A 
HETATM    9  N   UNL     1       4.380  28.046  51.205  1.00  0.00    -0.066 NA
HETATM   10  C   UNL     1       5.044  26.891  51.417  1.00  0.00     0.728 A 
HETATM   11  N   UNL     1       5.117  25.916  50.499  1.00  0.00    -0.074 NA
HETATM   12  C   UNL     1       4.507  26.120  49.312  1.00  0.00     0.153 A 
HETATM   13  C   UNL     1       3.087  29.539  49.780  1.00  0.00     0.070 C 
ENDROOT
BRANCH  10  14
HETATM   14  N   UNL     1       5.628  26.778  52.669  1.00  0.00    -0.164 N 
HETATM   15  C   UNL     1       6.357  25.758  53.153  1.00  0.00     0.187 A 
HETATM   16  S   UNL     1       7.016  25.902  54.745  1.00  0.00    -0.049 SA
HETATM   17  N   UNL     1       6.669  24.638  52.542  1.00  0.00    -0.223 NA
HETATM   18  C   UNL     1       7.774  24.368  54.591  1.00  0.00     0.037 A 
HETATM   19  C   UNL     1       7.474  23.844  53.335  1.00  0.00     0.076 A 
HETATM   20  C   UNL     1       8.581  23.677  55.511  1.00  0.00     0.021 A 
HETATM   21  C   UNL     1       8.004  22.586  52.979  1.00  0.00     0.033 A 
HETATM   22  C   UNL     1       8.814  21.892  53.883  1.00  0.00     0.002 A 
HETATM   23  C   UNL     1       9.096  22.432  55.135  1.00  0.00     0.002 A 
HETATM   24  H   UNL     1       5.599  27.659  53.157  1.00  0.00     0.186 HD
ENDBRANCH  10  14
TORSDOF 1
ENDMDL
MODEL 10
REMARK VINA RESULT:      -8.2      6.544      8.369
REMARK  1 active torsions:
REMARK  status: ('A' for Active; 'I' for Inactive)
REMARK    1  A    between atoms: C_10  and  N_11 
ROOT
HETATM    1  C   UNL     1       5.687  26.114  51.605  1.00  0.00     0.015 C 
HETATM    2  C   UNL     1       6.576  25.934  52.849  1.00  0.00    -0.036 C 
HETATM    3  C   UNL     1       7.964  25.458  52.375  1.00  0.00     0.015 C 
HETATM    4  C   UNL     1       5.930  24.885  53.777  1.00  0.00     0.093 C 
HETATM    5  C   UNL     1       6.584  24.798  55.141  1.00  0.00     0.163 C 
HETATM    6  O   UNL     1       6.500  23.792  55.838  1.00  0.00    -0.292 OA
HETATM    7  C   UNL     1       7.281  25.987  55.651  1.00  0.00     0.053 A 
HETATM    8  C   UNL     1       7.346  27.160  54.934  1.00  0.00     0.069 A 
HETATM    9  N   UNL     1       7.986  28.260  55.399  1.00  0.00    -0.066 NA
HETATM   10  C   UNL     1       8.611  28.172  56.591  1.00  0.00     0.728 A 
HETATM   11  N   UNL     1       8.591  27.060  57.340  1.00  0.00    -0.074 NA
HETATM   12  C   UNL     1       7.925  25.988  56.862  1.00  0.00     0.153 A 
HETATM   13  C   UNL     1       6.678  27.283  53.591  1.00  0.00     0.070 C 
ENDROOT
BRANCH  10  14
HETATM   14  N   UNL     1       9.260  29.329  56.993  1.00  0.00    -0.164 N 
HETATM   15  C   UNL     1       9.135  29.983  58.162  1.00  0.00     0.187 A 
HETATM   16  S   UNL     1      10.111  31.386  58.425  1.00  0.00    -0.049 SA
HETATM   17  N   UNL     1       8.362  29.669  59.175  1.00  0.00    -0.223 NA
HETATM   18  C   UNL     1       9.457  31.569  60.003  1.00  0.00     0.037 A 
HETATM   19  C   UNL     1       8.535  30.548  60.227  1.00  0.00     0.076 A 
HETATM   20  C   UNL     1       9.741  32.540  60.978  1.00  0.00     0.021 A 
HETATM   21  C   UNL     1       7.875  30.489  61.472  1.00  0.00     0.033 A 
HETATM   22  C   UNL     1       8.153  31.446  62.453  1.00  0.00     0.002 A 
HETATM   23  C   UNL     1       9.074  32.460  62.205  1.00  0.00     0.002 A 
HETATM   24  H   UNL     1      10.009  29.558  56.360  1.00  0.00     0.186 HD
ENDBRANCH  10  14
TORSDOF 1
ENDMDL
