MODEL 1
REMARK VINA RESULT:     -10.9      0.000      0.000
REMARK  5 active torsions:
REMARK  status: ('A' for Active; 'I' for Inactive)
REMARK    1  A    between atoms: C_4  and  N_5 
REMARK       I    between atoms: N_5  and  C_6 
REMARK       I    between atoms: C_6  and  N_7 
REMARK    2  A    between atoms: N_7  and  C_8 
REMARK    3  A    between atoms: C_10  and  C_11 
REMARK       I    between atoms: C_11  and  N_12 
REMARK    4  A    between atoms: N_12  and  C_13 
REMARK    5  A    between atoms: C_13  and  C_14 
ROOT
HETATM    1  C   UNL     1       7.174  29.153  56.455  1.00  0.00     0.175 A 
HETATM    2  S   UNL     1       6.703  30.102  57.785  1.00  0.00    -0.044 SA
HETATM    3  C   UNL     1       8.352  30.417  58.155  1.00  0.00     0.100 A 
HETATM    4  C   UNL     1       9.155  29.762  57.232  1.00  0.00     0.056 A 
HETATM    5  C   UNL     1      10.643  29.749  57.182  1.00  0.00     0.072 C 
HETATM    6  N   UNL     1       8.465  29.060  56.256  1.00  0.00    -0.228 NA
ENDROOT
BRANCH   1   7
HETATM    7  N   UNL     1       6.294  28.555  55.599  1.00  0.00    -0.287 N 
HETATM    8  C   UNL     1       6.250  27.343  54.982  1.00  0.00     0.326 C 
HETATM    9  N   UNL     1       7.366  26.559  55.022  1.00  0.00    -0.309 N 
HETATM   10  O   UNL     1       5.208  27.064  54.390  1.00  0.00    -0.247 OA
HETATM   11  H   UNL     1       8.197  27.002  55.382  1.00  0.00     0.170 HD
HETATM   12  H   UNL     1       5.481  29.125  55.405  1.00  0.00     0.172 HD
BRANCH   9  13
HETATM   13  C   UNL     1       7.538  25.265  54.487  1.00  0.00     0.036 A 
HETATM   14  C   UNL     1       7.521  24.095  55.250  1.00  0.00     0.036 A 
HETATM   15  C   UNL     1       7.693  22.837  54.649  1.00  0.00    -0.060 A 
HETATM   16  C   UNL     1       7.701  21.596  55.492  1.00  0.00     0.048 C 
HETATM   17  C   UNL     1       7.914  22.761  53.270  1.00  0.00     0.007 A 
HETATM   18  C   UNL     1       7.941  23.923  52.502  1.00  0.00     0.003 A 
HETATM   19  C   UNL     1       7.754  25.168  53.106  1.00  0.00     0.029 A 
ENDBRANCH   9  13
ENDBRANCH   1   7
BRANCH   3  20
HETATM   20  C   UNL     1       8.772  31.233  59.281  1.00  0.00     0.260 C 
HETATM   21  N   UNL     1       8.552  30.702  60.534  1.00  0.00    -0.352 N 
HETATM   22  H   UNL     1       8.187  29.763  60.609  1.00  0.00     0.163 HD
HETATM   23  O   UNL     1       9.288  32.339  59.138  1.00  0.00    -0.267 OA
BRANCH  21  24
HETATM   24  C   UNL     1       8.960  31.383  61.743  1.00  0.00     0.161 C 
BRANCH  24  25
HETATM   25  C   UNL     1       7.819  31.932  62.571  1.00  0.00    -0.040 A 
HETATM   26  C   UNL     1       6.465  31.714  62.277  1.00  0.00     0.010 A 
HETATM   27  C   UNL     1       5.462  32.256  63.088  1.00  0.00     0.024 A 
HETATM   28  C   UNL     1       5.803  33.028  64.195  1.00  0.00     0.034 A 
HETATM   29 CL   UNL     1       4.567  33.697  65.187  1.00  0.00    -0.084 Cl
HETATM   30  C   UNL     1       7.139  33.264  64.501  1.00  0.00     0.024 A 
HETATM   31  C   UNL     1       8.140  32.717  63.694  1.00  0.00     0.010 A 
ENDBRANCH  24  25
ENDBRANCH  21  24
ENDBRANCH   3  20
TORSDOF 5
ENDMDL
MODEL 2
REMARK VINA RESULT:      -9.8      3.752     10.184
REMARK  5 active torsions:
REMARK  status: ('A' for Active; 'I' for Inactive)
REMARK    1  A    between atoms: C_4  and  N_5 
REMARK       I    between atoms: N_5  and  C_6 
REMARK       I    between atoms: C_6  and  N_7 
REMARK    2  A    between atoms: N_7  and  C_8 
REMARK    3  A    between atoms: C_10  and  C_11 
REMARK       I    between atoms: C_11  and  N_12 
REMARK    4  A    between atoms: N_12  and  C_13 
REMARK    5  A    between atoms: C_13  and  C_14 
ROOT
HETATM    1  C   UNL     1       6.027  29.579  56.601  1.00  0.00     0.175 A 
HETATM    2  S   UNL     1       5.767  29.116  54.986  1.00  0.00    -0.044 SA
HETATM    3  C   UNL     1       6.251  27.510  55.359  1.00  0.00     0.100 A 
HETATM    4  C   UNL     1       6.588  27.440  56.703  1.00  0.00     0.056 A 
HETATM    5  C   UNL     1       7.072  26.247  57.450  1.00  0.00     0.072 C 
HETATM    6  N   UNL     1       6.436  28.628  57.403  1.00  0.00    -0.228 NA
ENDROOT
BRANCH   1   7
HETATM    7  N   UNL     1       5.788  30.836  57.079  1.00  0.00    -0.287 N 
HETATM    8  C   UNL     1       6.242  31.543  58.149  1.00  0.00     0.326 C 
HETATM    9  N   UNL     1       6.951  30.878  59.106  1.00  0.00    -0.309 N 
HETATM   10  O   UNL     1       5.935  32.734  58.192  1.00  0.00    -0.247 OA
HETATM   11  H   UNL     1       6.960  29.874  59.023  1.00  0.00     0.170 HD
HETATM   12  H   UNL     1       5.159  31.370  56.492  1.00  0.00     0.172 HD
BRANCH   9  13
HETATM   13  C   UNL     1       7.542  31.407  60.273  1.00  0.00     0.036 A 
HETATM   14  C   UNL     1       6.826  32.026  61.301  1.00  0.00     0.036 A 
HETATM   15  C   UNL     1       7.480  32.525  62.440  1.00  0.00    -0.060 A 
HETATM   16  C   UNL     1       6.694  33.213  63.517  1.00  0.00     0.048 C 
HETATM   17  C   UNL     1       8.872  32.425  62.528  1.00  0.00     0.007 A 
HETATM   18  C   UNL     1       9.596  31.816  61.505  1.00  0.00     0.003 A 
HETATM   19  C   UNL     1       8.935  31.311  60.384  1.00  0.00     0.029 A 
ENDBRANCH   9  13
ENDBRANCH   1   7
BRANCH   3  20
HETATM   20  C   UNL     1       6.294  26.442  54.374  1.00  0.00     0.260 C 
HETATM   21  N   UNL     1       7.537  26.141  53.858  1.00  0.00    -0.352 N 
HETATM   22  H   UNL     1       8.348  26.613  54.232  1.00  0.00     0.163 HD
HETATM   23  O   UNL     1       5.288  25.841  54.008  1.00  0.00    -0.267 OA
BRANCH  21  24
HETATM   24  C   UNL     1       7.737  25.074  52.903  1.00  0.00     0.161 C 
BRANCH  24  25
HETATM   25  C   UNL     1       7.969  23.713  53.519  1.00  0.00    -0.040 A 
HETATM   26  C   UNL     1       7.776  22.503  52.835  1.00  0.00     0.010 A 
HETATM   27  C   UNL     1       8.008  21.278  53.471  1.00  0.00     0.024 A 
HETATM   28  C   UNL     1       8.428  21.251  54.798  1.00  0.00     0.034 A 
HETATM   29 CL   UNL     1       8.708  19.744  55.579  1.00  0.00    -0.084 Cl
HETATM   30  C   UNL     1       8.618  22.439  55.498  1.00  0.00     0.024 A 
HETATM   31  C   UNL     1       8.392  23.661  54.860  1.00  0.00     0.010 A 
ENDBRANCH  24  25
ENDBRANCH  21  24
ENDBRANCH   3  20
TORSDOF 5
ENDMDL
MODEL 3
REMARK VINA RESULT:      -9.8      3.679     10.466
REMARK  5 active torsions:
REMARK  status: ('A' for Active; 'I' for Inactive)
REMARK    1  A    between atoms: C_4  and  N_5 
REMARK       I    between atoms: N_5  and  C_6 
REMARK       I    between atoms: C_6  and  N_7 
REMARK    2  A    between atoms: N_7  and  C_8 
REMARK    3  A    between atoms: C_10  and  C_11 
REMARK       I    between atoms: C_11  and  N_12 
REMARK    4  A    between atoms: N_12  and  C_13 
REMARK    5  A    between atoms: C_13  and  C_14 
ROOT
HETATM    1  C   UNL     1       8.051  29.798  57.706  1.00  0.00     0.175 A 
HETATM    2  S   UNL     1       7.189  29.669  56.247  1.00  0.00    -0.044 SA
HETATM    3  C   UNL     1       7.021  27.975  56.487  1.00  0.00     0.100 A 
HETATM    4  C   UNL     1       7.648  27.622  57.673  1.00  0.00     0.056 A 
HETATM    5  C   UNL     1       7.759  26.259  58.262  1.00  0.00     0.072 C 
HETATM    6  N   UNL     1       8.215  28.680  58.367  1.00  0.00    -0.228 NA
ENDROOT
BRANCH   1   7
HETATM    7  N   UNL     1       8.511  30.980  58.214  1.00  0.00    -0.287 N 
HETATM    8  C   UNL     1       8.175  31.741  59.290  1.00  0.00     0.326 C 
HETATM    9  N   UNL     1       7.027  31.436  59.962  1.00  0.00    -0.309 N 
HETATM   10  O   UNL     1       8.919  32.687  59.550  1.00  0.00    -0.247 OA
HETATM   11  H   UNL     1       6.432  30.754  59.519  1.00  0.00     0.170 HD
HETATM   12  H   UNL     1       9.294  31.356  57.695  1.00  0.00     0.172 HD
BRANCH   9  13
HETATM   13  C   UNL     1       6.503  32.059  61.114  1.00  0.00     0.036 A 
HETATM   14  C   UNL     1       7.246  32.323  62.268  1.00  0.00     0.036 A 
HETATM   15  C   UNL     1       6.660  32.954  63.377  1.00  0.00    -0.060 A 
HETATM   16  C   UNL     1       7.470  33.200  64.617  1.00  0.00     0.048 C 
HETATM   17  C   UNL     1       5.305  33.295  63.334  1.00  0.00     0.007 A 
HETATM   18  C   UNL     1       4.553  33.029  62.192  1.00  0.00     0.003 A 
HETATM   19  C   UNL     1       5.149  32.414  61.088  1.00  0.00     0.029 A 
ENDBRANCH   9  13
ENDBRANCH   1   7
BRANCH   3  20
HETATM   20  C   UNL     1       6.334  27.103  55.549  1.00  0.00     0.260 C 
HETATM   21  N   UNL     1       7.137  26.352  54.716  1.00  0.00    -0.352 N 
HETATM   22  H   UNL     1       8.139  26.385  54.843  1.00  0.00     0.163 HD
HETATM   23  O   UNL     1       5.110  27.035  55.486  1.00  0.00    -0.267 OA
BRANCH  21  24
HETATM   24  C   UNL     1       6.593  25.409  53.765  1.00  0.00     0.161 C 
BRANCH  24  25
HETATM   25  C   UNL     1       7.129  24.001  53.895  1.00  0.00    -0.040 A 
HETATM   26  C   UNL     1       7.533  23.215  52.805  1.00  0.00     0.010 A 
HETATM   27  C   UNL     1       8.017  21.917  53.001  1.00  0.00     0.024 A 
HETATM   28  C   UNL     1       8.096  21.389  54.287  1.00  0.00     0.034 A 
HETATM   29 CL   UNL     1       8.688  19.792  54.524  1.00  0.00    -0.084 Cl
HETATM   30  C   UNL     1       7.693  22.148  55.381  1.00  0.00     0.024 A 
HETATM   31  C   UNL     1       7.215  23.446  55.185  1.00  0.00     0.010 A 
ENDBRANCH  24  25
ENDBRANCH  21  24
ENDBRANCH   3  20
TORSDOF 5
ENDMDL
MODEL 4
REMARK VINA RESULT:      -9.6      3.544     10.442
REMARK  5 active torsions:
REMARK  status: ('A' for Active; 'I' for Inactive)
REMARK    1  A    between atoms: C_4  and  N_5 
REMARK       I    between atoms: N_5  and  C_6 
REMARK       I    between atoms: C_6  and  N_7 
REMARK    2  A    between atoms: N_7  and  C_8 
REMARK    3  A    between atoms: C_10  and  C_11 
REMARK       I    between atoms: C_11  and  N_12 
REMARK    4  A    between atoms: N_12  and  C_13 
REMARK    5  A    between atoms: C_13  and  C_14 
ROOT
HETATM    1  C   UNL     1       8.495  30.152  57.616  1.00  0.00     0.175 A 
HETATM    2  S   UNL     1       8.942  29.417  56.149  1.00  0.00    -0.044 SA
HETATM    3  C   UNL     1       7.357  28.773  55.979  1.00  0.00     0.100 A 
HETATM    4  C   UNL     1       6.592  29.161  57.070  1.00  0.00     0.056 A 
HETATM    5  C   UNL     1       5.168  28.819  57.339  1.00  0.00     0.072 C 
HETATM    6  N   UNL     1       7.253  29.965  57.986  1.00  0.00    -0.228 NA
ENDROOT
BRANCH   1   7
HETATM    7  N   UNL     1       9.332  30.934  58.360  1.00  0.00    -0.287 N 
HETATM    8  C   UNL     1       9.199  31.613  59.531  1.00  0.00     0.326 C 
HETATM    9  N   UNL     1       7.948  31.752  60.057  1.00  0.00    -0.309 N 
HETATM   10  O   UNL     1      10.226  32.095  60.007  1.00  0.00    -0.247 OA
HETATM   11  H   UNL     1       7.189  31.465  59.458  1.00  0.00     0.170 HD
HETATM   12  H   UNL     1      10.264  30.997  57.971  1.00  0.00     0.172 HD
BRANCH   9  13
HETATM   13  C   UNL     1       7.578  32.381  61.264  1.00  0.00     0.036 A 
HETATM   14  C   UNL     1       6.609  33.384  61.359  1.00  0.00     0.036 A 
HETATM   15  C   UNL     1       6.286  33.963  62.597  1.00  0.00    -0.060 A 
HETATM   16  C   UNL     1       5.264  35.060  62.670  1.00  0.00     0.048 C 
HETATM   17  C   UNL     1       6.966  33.547  63.746  1.00  0.00     0.007 A 
HETATM   18  C   UNL     1       7.939  32.552  63.661  1.00  0.00     0.003 A 
HETATM   19  C   UNL     1       8.243  31.973  62.427  1.00  0.00     0.029 A 
ENDBRANCH   9  13
ENDBRANCH   1   7
BRANCH   3  20
HETATM   20  C   UNL     1       6.951  27.945  54.856  1.00  0.00     0.260 C 
HETATM   21  N   UNL     1       7.555  26.708  54.763  1.00  0.00    -0.352 N 
HETATM   22  H   UNL     1       8.179  26.412  55.499  1.00  0.00     0.163 HD
HETATM   23  O   UNL     1       6.125  28.316  54.027  1.00  0.00    -0.267 OA
BRANCH  21  24
HETATM   24  C   UNL     1       7.216  25.762  53.722  1.00  0.00     0.161 C 
BRANCH  24  25
HETATM   25  C   UNL     1       7.496  24.317  54.070  1.00  0.00    -0.040 A 
HETATM   26  C   UNL     1       7.605  23.292  53.118  1.00  0.00     0.010 A 
HETATM   27  C   UNL     1       7.862  21.975  53.513  1.00  0.00     0.024 A 
HETATM   28  C   UNL     1       8.005  21.668  54.863  1.00  0.00     0.034 A 
HETATM   29 CL   UNL     1       8.318  20.047  55.346  1.00  0.00    -0.084 Cl
HETATM   30  C   UNL     1       7.893  22.667  55.825  1.00  0.00     0.024 A 
HETATM   31  C   UNL     1       7.642  23.983  55.429  1.00  0.00     0.010 A 
ENDBRANCH  24  25
ENDBRANCH  21  24
ENDBRANCH   3  20
TORSDOF 5
ENDMDL
MODEL 5
REMARK VINA RESULT:      -9.5      2.408      3.210
REMARK  5 active torsions:
REMARK  status: ('A' for Active; 'I' for Inactive)
REMARK    1  A    between atoms: C_4  and  N_5 
REMARK       I    between atoms: N_5  and  C_6 
REMARK       I    between atoms: C_6  and  N_7 
REMARK    2  A    between atoms: N_7  and  C_8 
REMARK    3  A    between atoms: C_10  and  C_11 
REMARK       I    between atoms: C_11  and  N_12 
REMARK    4  A    between atoms: N_12  and  C_13 
REMARK    5  A    between atoms: C_13  and  C_14 
ROOT
HETATM    1  C   UNL     1       5.108  27.418  55.106  1.00  0.00     0.175 A 
HETATM    2  S   UNL     1       4.060  28.708  55.469  1.00  0.00    -0.044 SA
HETATM    3  C   UNL     1       5.108  29.213  56.734  1.00  0.00     0.100 A 
HETATM    4  C   UNL     1       6.192  28.349  56.797  1.00  0.00     0.056 A 
HETATM    5  C   UNL     1       7.334  28.404  57.750  1.00  0.00     0.072 C 
HETATM    6  N   UNL     1       6.185  27.340  55.846  1.00  0.00    -0.228 NA
ENDROOT
BRANCH   1   7
HETATM    7  N   UNL     1       4.900  26.535  54.085  1.00  0.00    -0.287 N 
HETATM    8  C   UNL     1       5.379  25.296  53.795  1.00  0.00     0.326 C 
HETATM    9  N   UNL     1       6.434  24.826  54.522  1.00  0.00    -0.309 N 
HETATM   10  O   UNL     1       4.847  24.705  52.856  1.00  0.00    -0.247 OA
HETATM   11  H   UNL     1       6.879  25.498  55.128  1.00  0.00     0.170 HD
HETATM   12  H   UNL     1       4.215  26.860  53.414  1.00  0.00     0.172 HD
BRANCH   9  13
HETATM   13  C   UNL     1       7.069  23.571  54.421  1.00  0.00     0.036 A 
HETATM   14  C   UNL     1       7.327  22.734  55.510  1.00  0.00     0.036 A 
HETATM   15  C   UNL     1       7.959  21.492  55.335  1.00  0.00    -0.060 A 
HETATM   16  C   UNL     1       8.252  20.624  56.524  1.00  0.00     0.048 C 
HETATM   17  C   UNL     1       8.361  21.103  54.054  1.00  0.00     0.007 A 
HETATM   18  C   UNL     1       8.115  21.933  52.962  1.00  0.00     0.003 A 
HETATM   19  C   UNL     1       7.474  23.160  53.145  1.00  0.00     0.029 A 
ENDBRANCH   9  13
ENDBRANCH   1   7
BRANCH   3  20
HETATM   20  C   UNL     1       4.836  30.363  57.581  1.00  0.00     0.260 C 
HETATM   21  N   UNL     1       5.748  31.396  57.514  1.00  0.00    -0.352 N 
HETATM   22  H   UNL     1       6.502  31.340  56.844  1.00  0.00     0.163 HD
HETATM   23  O   UNL     1       3.860  30.420  58.323  1.00  0.00    -0.267 OA
BRANCH  21  24
HETATM   24  C   UNL     1       5.582  32.620  58.267  1.00  0.00     0.161 C 
BRANCH  24  25
HETATM   25  C   UNL     1       6.261  32.625  59.619  1.00  0.00    -0.040 A 
HETATM   26  C   UNL     1       7.546  32.110  59.848  1.00  0.00     0.010 A 
HETATM   27  C   UNL     1       8.111  32.146  61.128  1.00  0.00     0.024 A 
HETATM   28  C   UNL     1       7.395  32.689  62.191  1.00  0.00     0.034 A 
HETATM   29 CL   UNL     1       8.092  32.728  63.763  1.00  0.00    -0.084 Cl
HETATM   30  C   UNL     1       6.117  33.198  61.987  1.00  0.00     0.024 A 
HETATM   31  C   UNL     1       5.556  33.167  60.708  1.00  0.00     0.010 A 
ENDBRANCH  24  25
ENDBRANCH  21  24
ENDBRANCH   3  20
TORSDOF 5
ENDMDL
MODEL 6
REMARK VINA RESULT:      -9.5      1.993      2.846
REMARK  5 active torsions:
REMARK  status: ('A' for Active; 'I' for Inactive)
REMARK    1  A    between atoms: C_4  and  N_5 
REMARK       I    between atoms: N_5  and  C_6 
REMARK       I    between atoms: C_6  and  N_7 
REMARK    2  A    between atoms: N_7  and  C_8 
REMARK    3  A    between atoms: C_10  and  C_11 
REMARK       I    between atoms: C_11  and  N_12 
REMARK    4  A    between atoms: N_12  and  C_13 
REMARK    5  A    between atoms: C_13  and  C_14 
ROOT
HETATM    1  C   UNL     1       5.896  30.427  56.542  1.00  0.00     0.175 A 
HETATM    2  S   UNL     1       5.830  31.496  57.863  1.00  0.00    -0.044 SA
HETATM    3  C   UNL     1       7.405  31.008  58.347  1.00  0.00     0.100 A 
HETATM    4  C   UNL     1       7.873  30.047  57.462  1.00  0.00     0.056 A 
HETATM    5  C   UNL     1       9.183  29.340  57.509  1.00  0.00     0.072 C 
HETATM    6  N   UNL     1       7.005  29.741  56.425  1.00  0.00    -0.228 NA
ENDROOT
BRANCH   1   7
HETATM    7  N   UNL     1       4.900  30.303  55.615  1.00  0.00    -0.287 N 
HETATM    8  C   UNL     1       4.573  29.350  54.701  1.00  0.00     0.326 C 
HETATM    9  N   UNL     1       5.474  28.355  54.458  1.00  0.00    -0.309 N 
HETATM   10  O   UNL     1       3.495  29.488  54.124  1.00  0.00    -0.247 OA
HETATM   11  H   UNL     1       6.386  28.482  54.869  1.00  0.00     0.170 HD
HETATM   12  H   UNL     1       4.244  31.073  55.633  1.00  0.00     0.172 HD
BRANCH   9  13
HETATM   13  C   UNL     1       5.338  27.254  53.586  1.00  0.00     0.036 A 
HETATM   14  C   UNL     1       5.179  27.367  52.202  1.00  0.00     0.036 A 
HETATM   15  C   UNL     1       5.055  26.226  51.393  1.00  0.00    -0.060 A 
HETATM   16  C   UNL     1       4.855  26.373  49.912  1.00  0.00     0.048 C 
HETATM   17  C   UNL     1       5.062  24.961  51.987  1.00  0.00     0.007 A 
HETATM   18  C   UNL     1       5.213  24.837  53.367  1.00  0.00     0.003 A 
HETATM   19  C   UNL     1       5.350  25.977  54.161  1.00  0.00     0.029 A 
ENDBRANCH   9  13
ENDBRANCH   1   7
BRANCH   3  20
HETATM   20  C   UNL     1       8.079  31.542  59.519  1.00  0.00     0.260 C 
HETATM   21  N   UNL     1       7.769  30.946  60.723  1.00  0.00    -0.352 N 
HETATM   22  H   UNL     1       7.161  30.139  60.727  1.00  0.00     0.163 HD
HETATM   23  O   UNL     1       8.874  32.475  59.454  1.00  0.00    -0.267 OA
BRANCH  21  24
HETATM   24  C   UNL     1       8.396  31.345  61.964  1.00  0.00     0.161 C 
BRANCH  24  25
HETATM   25  C   UNL     1       7.479  32.061  62.931  1.00  0.00    -0.040 A 
HETATM   26  C   UNL     1       7.933  32.882  63.974  1.00  0.00     0.010 A 
HETATM   27  C   UNL     1       7.025  33.511  64.834  1.00  0.00     0.024 A 
HETATM   28  C   UNL     1       5.657  33.320  64.663  1.00  0.00     0.034 A 
HETATM   29 CL   UNL     1       4.545  34.092  65.724  1.00  0.00    -0.084 Cl
HETATM   30  C   UNL     1       5.186  32.504  63.640  1.00  0.00     0.024 A 
HETATM   31  C   UNL     1       6.092  31.881  62.779  1.00  0.00     0.010 A 
ENDBRANCH  24  25
ENDBRANCH  21  24
ENDBRANCH   3  20
TORSDOF 5
ENDMDL
MODEL 7
REMARK VINA RESULT:      -9.3      4.085     10.396
REMARK  5 active torsions:
REMARK  status: ('A' for Active; 'I' for Inactive)
REMARK    1  A    between atoms: C_4  and  N_5 
REMARK       I    between atoms: N_5  and  C_6 
REMARK       I    between atoms: C_6  and  N_7 
REMARK    2  A    between atoms: N_7  and  C_8 
REMARK    3  A    between atoms: C_10  and  C_11 
REMARK       I    between atoms: C_11  and  N_12 
REMARK    4  A    between atoms: N_12  and  C_13 
REMARK    5  A    between atoms: C_13  and  C_14 
ROOT
HETATM    1  C   UNL     1       5.185  29.713  57.334  1.00  0.00     0.175 A 
HETATM    2  S   UNL     1       4.933  29.002  55.810  1.00  0.00    -0.044 SA
HETATM    3  C   UNL     1       6.591  28.554  55.736  1.00  0.00     0.100 A 
HETATM    4  C   UNL     1       7.229  28.990  56.888  1.00  0.00     0.056 A 
HETATM    5  C   UNL     1       8.667  28.828  57.238  1.00  0.00     0.072 C 
HETATM    6  N   UNL     1       6.406  29.634  57.800  1.00  0.00    -0.228 NA
ENDROOT
BRANCH   1   7
HETATM    7  N   UNL     1       4.194  30.291  58.075  1.00  0.00    -0.287 N 
HETATM    8  C   UNL     1       4.176  31.228  59.062  1.00  0.00     0.326 C 
HETATM    9  N   UNL     1       5.363  31.595  59.624  1.00  0.00    -0.309 N 
HETATM   10  O   UNL     1       3.070  31.644  59.405  1.00  0.00    -0.247 OA
HETATM   11  H   UNL     1       6.159  31.033  59.366  1.00  0.00     0.170 HD
HETATM   12  H   UNL     1       3.268  29.978  57.812  1.00  0.00     0.172 HD
BRANCH   9  13
HETATM   13  C   UNL     1       5.588  32.561  60.628  1.00  0.00     0.036 A 
HETATM   14  C   UNL     1       6.423  32.363  61.731  1.00  0.00     0.036 A 
HETATM   15  C   UNL     1       6.605  33.372  62.690  1.00  0.00    -0.060 A 
HETATM   16  C   UNL     1       7.483  33.126  63.882  1.00  0.00     0.048 C 
HETATM   17  C   UNL     1       5.916  34.581  62.552  1.00  0.00     0.007 A 
HETATM   18  C   UNL     1       5.075  34.785  61.460  1.00  0.00     0.003 A 
HETATM   19  C   UNL     1       4.912  33.781  60.504  1.00  0.00     0.029 A 
ENDBRANCH   9  13
ENDBRANCH   1   7
BRANCH   3  20
HETATM   20  C   UNL     1       7.174  27.846  54.609  1.00  0.00     0.260 C 
HETATM   21  N   UNL     1       6.895  26.498  54.527  1.00  0.00    -0.352 N 
HETATM   22  H   UNL     1       6.256  26.090  55.193  1.00  0.00     0.163 HD
HETATM   23  O   UNL     1       7.882  28.404  53.775  1.00  0.00    -0.267 OA
BRANCH  21  24
HETATM   24  C   UNL     1       7.372  25.678  53.435  1.00  0.00     0.161 C 
BRANCH  24  25
HETATM   25  C   UNL     1       7.700  24.251  53.816  1.00  0.00    -0.040 A 
HETATM   26  C   UNL     1       7.916  23.825  55.135  1.00  0.00     0.010 A 
HETATM   27  C   UNL     1       8.219  22.488  55.413  1.00  0.00     0.024 A 
HETATM   28  C   UNL     1       8.316  21.565  54.375  1.00  0.00     0.034 A 
HETATM   29 CL   UNL     1       8.692  19.922  54.720  1.00  0.00    -0.084 Cl
HETATM   30  C   UNL     1       8.113  21.967  53.059  1.00  0.00     0.024 A 
HETATM   31  C   UNL     1       7.805  23.302  52.783  1.00  0.00     0.010 A 
ENDBRANCH  24  25
ENDBRANCH  21  24
ENDBRANCH   3  20
TORSDOF 5
ENDMDL
MODEL 8
REMARK VINA RESULT:      -8.8      4.096     10.504
REMARK  5 active torsions:
REMARK  status: ('A' for Active; 'I' for Inactive)
REMARK    1  A    between atoms: C_4  and  N_5 
REMARK       I    between atoms: N_5  and  C_6 
REMARK       I    between atoms: C_6  and  N_7 
REMARK    2  A    between atoms: N_7  and  C_8 
REMARK    3  A    between atoms: C_10  and  C_11 
REMARK       I    between atoms: C_11  and  N_12 
REMARK    4  A    between atoms: N_12  and  C_13 
REMARK    5  A    between atoms: C_13  and  C_14 
ROOT
HETATM    1  C   UNL     1       8.198  29.659  57.550  1.00  0.00     0.175 A 
HETATM    2  S   UNL     1       6.983  29.703  56.361  1.00  0.00    -0.044 SA
HETATM    3  C   UNL     1       6.714  28.017  56.562  1.00  0.00     0.100 A 
HETATM    4  C   UNL     1       7.586  27.532  57.527  1.00  0.00     0.056 A 
HETATM    5  C   UNL     1       7.707  26.128  58.006  1.00  0.00     0.072 C 
HETATM    6  N   UNL     1       8.414  28.488  58.095  1.00  0.00    -0.228 NA
ENDROOT
BRANCH   1   7
HETATM    7  N   UNL     1       8.888  30.760  57.972  1.00  0.00    -0.287 N 
HETATM    8  C   UNL     1       8.824  31.549  59.078  1.00  0.00     0.326 C 
HETATM    9  N   UNL     1       7.757  31.400  59.915  1.00  0.00    -0.309 N 
HETATM   10  O   UNL     1       9.722  32.379  59.214  1.00  0.00    -0.247 OA
HETATM   11  H   UNL     1       7.013  30.813  59.571  1.00  0.00     0.170 HD
HETATM   12  H   UNL     1       9.631  31.028  57.339  1.00  0.00     0.172 HD
BRANCH   9  13
HETATM   13  C   UNL     1       7.500  32.079  61.124  1.00  0.00     0.036 A 
HETATM   14  C   UNL     1       6.558  33.102  61.262  1.00  0.00     0.036 A 
HETATM   15  C   UNL     1       6.349  33.731  62.500  1.00  0.00    -0.060 A 
HETATM   16  C   UNL     1       5.354  34.849  62.618  1.00  0.00     0.048 C 
HETATM   17  C   UNL     1       7.118  33.346  63.602  1.00  0.00     0.007 A 
HETATM   18  C   UNL     1       8.065  32.332  63.474  1.00  0.00     0.003 A 
HETATM   19  C   UNL     1       8.255  31.703  62.242  1.00  0.00     0.029 A 
ENDBRANCH   9  13
ENDBRANCH   1   7
BRANCH   3  20
HETATM   20  C   UNL     1       5.727  27.272  55.799  1.00  0.00     0.260 C 
HETATM   21  N   UNL     1       6.167  26.715  54.616  1.00  0.00    -0.352 N 
HETATM   22  H   UNL     1       7.146  26.785  54.378  1.00  0.00     0.163 HD
HETATM   23  O   UNL     1       4.564  27.146  56.170  1.00  0.00    -0.267 OA
BRANCH  21  24
HETATM   24  C   UNL     1       5.307  25.911  53.776  1.00  0.00     0.161 C 
BRANCH  24  25
HETATM   25  C   UNL     1       4.956  26.542  52.447  1.00  0.00    -0.040 A 
HETATM   26  C   UNL     1       4.416  27.829  52.312  1.00  0.00     0.010 A 
HETATM   27  C   UNL     1       4.112  28.348  51.048  1.00  0.00     0.024 A 
HETATM   28  C   UNL     1       4.339  27.582  49.908  1.00  0.00     0.034 A 
HETATM   29 CL   UNL     1       3.961  28.220  48.356  1.00  0.00    -0.084 Cl
HETATM   30  C   UNL     1       4.867  26.299  50.020  1.00  0.00     0.024 A 
HETATM   31  C   UNL     1       5.175  25.785  51.281  1.00  0.00     0.010 A 
ENDBRANCH  24  25
ENDBRANCH  21  24
ENDBRANCH   3  20
TORSDOF 5
ENDMDL
MODEL 9
REMARK VINA RESULT:      -8.8      6.301      9.618
REMARK  5 active torsions:
REMARK  status: ('A' for Active; 'I' for Inactive)
REMARK    1  A    between atoms: C_4  and  N_5 
REMARK       I    between atoms: N_5  and  C_6 
REMARK       I    between atoms: C_6  and  N_7 
REMARK    2  A    between atoms: N_7  and  C_8 
REMARK    3  A    between atoms: C_10  and  C_11 
REMARK       I    between atoms: C_11  and  N_12 
REMARK    4  A    between atoms: N_12  and  C_13 
REMARK    5  A    between atoms: C_13  and  C_14 
ROOT
HETATM    1  C   UNL     1       4.333  29.418  52.768  1.00  0.00     0.175 A 
HETATM    2  S   UNL     1       5.571  28.254  52.723  1.00  0.00    -0.044 SA
HETATM    3  C   UNL     1       5.489  28.088  54.432  1.00  0.00     0.100 A 
HETATM    4  C   UNL     1       4.517  28.947  54.923  1.00  0.00     0.056 A 
HETATM    5  C   UNL     1       4.121  29.140  56.346  1.00  0.00     0.072 C 
HETATM    6  N   UNL     1       3.852  29.687  53.956  1.00  0.00    -0.228 NA
ENDROOT
BRANCH   1   7
HETATM    7  N   UNL     1       3.812  30.016  51.656  1.00  0.00    -0.287 N 
HETATM    8  C   UNL     1       3.307  29.551  50.482  1.00  0.00     0.326 C 
HETATM    9  N   UNL     1       3.482  28.232  50.182  1.00  0.00    -0.309 N 
HETATM   10  O   UNL     1       2.764  30.378  49.750  1.00  0.00    -0.247 OA
HETATM   11  H   UNL     1       4.106  27.726  50.791  1.00  0.00     0.170 HD
HETATM   12  H   UNL     1       3.761  31.024  51.735  1.00  0.00     0.172 HD
BRANCH   9  13
HETATM   13  C   UNL     1       3.020  27.529  49.049  1.00  0.00     0.036 A 
HETATM   14  C   UNL     1       1.850  27.847  48.355  1.00  0.00     0.036 A 
HETATM   15  C   UNL     1       1.453  27.107  47.229  1.00  0.00    -0.060 A 
HETATM   16  C   UNL     1       0.176  27.447  46.518  1.00  0.00     0.048 C 
HETATM   17  C   UNL     1       2.228  26.018  46.818  1.00  0.00     0.007 A 
HETATM   18  C   UNL     1       3.393  25.689  47.507  1.00  0.00     0.003 A 
HETATM   19  C   UNL     1       3.787  26.439  48.617  1.00  0.00     0.029 A 
ENDBRANCH   9  13
ENDBRANCH   1   7
BRANCH   3  20
HETATM   20  C   UNL     1       6.342  27.185  55.185  1.00  0.00     0.260 C 
HETATM   21  N   UNL     1       5.883  25.892  55.329  1.00  0.00    -0.352 N 
HETATM   22  H   UNL     1       5.034  25.620  54.855  1.00  0.00     0.163 HD
HETATM   23  O   UNL     1       7.409  27.541  55.678  1.00  0.00    -0.267 OA
BRANCH  21  24
HETATM   24  C   UNL     1       6.647  24.875  56.017  1.00  0.00     0.161 C 
BRANCH  24  25
HETATM   25  C   UNL     1       7.141  23.752  55.131  1.00  0.00    -0.040 A 
HETATM   26  C   UNL     1       7.307  23.869  53.743  1.00  0.00     0.010 A 
HETATM   27  C   UNL     1       7.766  22.786  52.985  1.00  0.00     0.024 A 
HETATM   28  C   UNL     1       8.057  21.574  53.607  1.00  0.00     0.034 A 
HETATM   29 CL   UNL     1       8.617  20.243  52.672  1.00  0.00    -0.084 Cl
HETATM   30  C   UNL     1       7.892  21.435  54.981  1.00  0.00     0.024 A 
HETATM   31  C   UNL     1       7.439  22.518  55.737  1.00  0.00     0.010 A 
ENDBRANCH  24  25
ENDBRANCH  21  24
ENDBRANCH   3  20
TORSDOF 5
ENDMDL
MODEL 10
REMARK VINA RESULT:      -8.7      3.794      9.922
REMARK  5 active torsions:
REMARK  status: ('A' for Active; 'I' for Inactive)
REMARK    1  A    between atoms: C_4  and  N_5 
REMARK       I    between atoms: N_5  and  C_6 
REMARK       I    between atoms: C_6  and  N_7 
REMARK    2  A    between atoms: N_7  and  C_8 
REMARK    3  A    between atoms: C_10  and  C_11 
REMARK       I    between atoms: C_11  and  N_12 
REMARK    4  A    between atoms: N_12  and  C_13 
REMARK    5  A    between atoms: C_13  and  C_14 
ROOT
HETATM    1  C   UNL     1       4.825  29.742  56.407  1.00  0.00     0.175 A 
HETATM    2  S   UNL     1       6.207  28.756  56.294  1.00  0.00    -0.044 SA
HETATM    3  C   UNL     1       5.723  28.245  54.725  1.00  0.00     0.100 A 
HETATM    4  C   UNL     1       4.524  28.863  54.398  1.00  0.00     0.056 A 
HETATM    5  C   UNL     1       3.740  28.699  53.143  1.00  0.00     0.072 C 
HETATM    6  N   UNL     1       4.035  29.730  55.363  1.00  0.00    -0.228 NA
ENDROOT
BRANCH   1   7
HETATM    7  N   UNL     1       4.552  30.545  57.477  1.00  0.00    -0.287 N 
HETATM    8  C   UNL     1       5.313  31.118  58.449  1.00  0.00     0.326 C 
HETATM    9  N   UNL     1       6.611  30.715  58.570  1.00  0.00    -0.309 N 
HETATM   10  O   UNL     1       4.751  31.931  59.181  1.00  0.00    -0.247 OA
HETATM   11  H   UNL     1       6.871  29.911  58.022  1.00  0.00     0.170 HD
HETATM   12  H   UNL     1       3.573  30.796  57.545  1.00  0.00     0.172 HD
BRANCH   9  13
HETATM   13  C   UNL     1       7.586  31.189  59.474  1.00  0.00     0.036 A 
HETATM   14  C   UNL     1       7.336  31.468  60.820  1.00  0.00     0.036 A 
HETATM   15  C   UNL     1       8.357  31.931  61.665  1.00  0.00    -0.060 A 
HETATM   16  C   UNL     1       8.058  32.252  63.100  1.00  0.00     0.048 C 
HETATM   17  C   UNL     1       9.635  32.144  61.140  1.00  0.00     0.007 A 
HETATM   18  C   UNL     1       9.894  31.876  59.798  1.00  0.00     0.003 A 
HETATM   19  C   UNL     1       8.875  31.402  58.969  1.00  0.00     0.029 A 
ENDBRANCH   9  13
ENDBRANCH   1   7
BRANCH   3  20
HETATM   20  C   UNL     1       6.484  27.300  53.927  1.00  0.00     0.260 C 
HETATM   21  N   UNL     1       5.877  26.086  53.678  1.00  0.00    -0.352 N 
HETATM   22  H   UNL     1       4.928  25.942  53.990  1.00  0.00     0.163 HD
HETATM   23  O   UNL     1       7.608  27.551  53.499  1.00  0.00    -0.267 OA
BRANCH  21  24
HETATM   24  C   UNL     1       6.499  25.067  52.862  1.00  0.00     0.161 C 
BRANCH  24  25
HETATM   25  C   UNL     1       7.049  23.889  53.635  1.00  0.00    -0.040 A 
HETATM   26  C   UNL     1       6.995  23.780  55.033  1.00  0.00     0.010 A 
HETATM   27  C   UNL     1       7.528  22.661  55.682  1.00  0.00     0.024 A 
HETATM   28  C   UNL     1       8.127  21.645  54.942  1.00  0.00     0.034 A 
HETATM   29 CL   UNL     1       8.785  20.273  55.744  1.00  0.00    -0.084 Cl
HETATM   30  C   UNL     1       8.198  21.737  53.555  1.00  0.00     0.024 A 
HETATM   31  C   UNL     1       7.660  22.852  52.907  1.00  0.00     0.010 A 
ENDBRANCH  24  25
ENDBRANCH  21  24
ENDBRANCH   3  20
TORSDOF 5
ENDMDL
