MODEL 1
REMARK VINA RESULT:      -9.2      0.000      0.000
REMARK  3 active torsions:
REMARK  status: ('A' for Active; 'I' for Inactive)
REMARK       I    between atoms: N_2  and  C_3 
REMARK    1  A    between atoms: C_3  and  C_4 
REMARK    2  A    between atoms: C_6  and  N_7 
REMARK       I    between atoms: N_7  and  C_8 
REMARK    3  A    between atoms: C_8  and  C_9 
ROOT
HETATM    1  N   UNL     1       7.406  27.625  56.660  1.00  0.00    -0.321 N 
HETATM    2  C   UNL     1       7.614  26.375  57.219  1.00  0.00     0.280 C 
HETATM    3  O   UNL     1       7.749  26.147  58.416  1.00  0.00    -0.265 OA
HETATM    4  H   UNL     1       7.356  27.630  55.646  1.00  0.00     0.169 HD
ENDROOT
BRANCH   1   5
HETATM    5  C   UNL     1       7.331  28.869  57.315  1.00  0.00     0.036 A 
HETATM    6  C   UNL     1       8.430  29.515  57.883  1.00  0.00     0.046 A 
HETATM    7  C   UNL     1       8.285  30.783  58.461  1.00  0.00     0.034 A 
HETATM    8  C   UNL     1       7.022  31.379  58.533  1.00  0.00     0.017 A 
HETATM    9  C   UNL     1       5.916  30.728  57.993  1.00  0.00     0.003 A 
HETATM   10  C   UNL     1       6.071  29.481  57.382  1.00  0.00     0.029 A 
BRANCH   7  11
HETATM   11  C   UNL     1       9.433  31.496  59.071  1.00  0.00     0.251 C 
HETATM   12  N   UNL     1       9.654  31.448  60.423  1.00  0.00    -0.361 N 
HETATM   13  C   UNL     1       9.031  30.601  61.416  1.00  0.00     0.149 C 
HETATM   14  H   UNL     1      10.453  32.000  60.711  1.00  0.00     0.162 HD
HETATM   15  O   UNL     1      10.208  32.120  58.348  1.00  0.00    -0.268 OA
ENDBRANCH   7  11
ENDBRANCH   1   5
BRANCH   2  16
HETATM   16  C   UNL     1       7.692  25.322  56.225  1.00  0.00     0.144 A 
HETATM   17  O   UNL     1       7.786  24.015  56.633  1.00  0.00    -0.304 OA
HETATM   18  C   UNL     1       7.820  23.245  55.511  1.00  0.00     0.086 A 
HETATM   19  C   UNL     1       7.752  24.042  54.374  1.00  0.00     0.001 A 
HETATM   20  C   UNL     1       7.905  21.855  55.485  1.00  0.00     0.038 A 
HETATM   21  C   UNL     1       7.675  25.377  54.844  1.00  0.00     0.057 A 
HETATM   22  C   UNL     1       7.766  23.420  53.114  1.00  0.00     0.014 A 
HETATM   23  C   UNL     1       7.849  22.021  53.056  1.00  0.00     0.001 A 
HETATM   24  C   UNL     1       7.918  21.255  54.222  1.00  0.00     0.003 A 
ENDBRANCH   2  16
TORSDOF 3
ENDMDL
MODEL 2
REMARK VINA RESULT:      -9.1      1.347      2.211
REMARK  3 active torsions:
REMARK  status: ('A' for Active; 'I' for Inactive)
REMARK       I    between atoms: N_2  and  C_3 
REMARK    1  A    between atoms: C_3  and  C_4 
REMARK    2  A    between atoms: C_6  and  N_7 
REMARK       I    between atoms: N_7  and  C_8 
REMARK    3  A    between atoms: C_8  and  C_9 
ROOT
HETATM    1  N   UNL     1       8.738  27.382  56.735  1.00  0.00    -0.321 N 
HETATM    2  C   UNL     1       8.137  26.306  57.366  1.00  0.00     0.280 C 
HETATM    3  O   UNL     1       7.734  26.296  58.525  1.00  0.00    -0.265 OA
HETATM    4  H   UNL     1       9.044  27.196  55.785  1.00  0.00     0.169 HD
ENDROOT
BRANCH   1   5
HETATM    5  C   UNL     1       9.034  28.650  57.271  1.00  0.00     0.036 A 
HETATM    6  C   UNL     1       8.184  29.347  58.131  1.00  0.00     0.046 A 
HETATM    7  C   UNL     1       8.579  30.576  58.674  1.00  0.00     0.034 A 
HETATM    8  C   UNL     1       9.800  31.146  58.302  1.00  0.00     0.017 A 
HETATM    9  C   UNL     1      10.641  30.469  57.422  1.00  0.00     0.003 A 
HETATM   10  C   UNL     1      10.261  29.224  56.914  1.00  0.00     0.029 A 
BRANCH   7  11
HETATM   11  C   UNL     1       7.699  31.340  59.592  1.00  0.00     0.251 C 
HETATM   12  N   UNL     1       7.748  31.134  60.947  1.00  0.00    -0.361 N 
HETATM   13  C   UNL     1       8.717  30.386  61.719  1.00  0.00     0.149 C 
HETATM   14  H   UNL     1       7.077  31.698  61.455  1.00  0.00     0.162 HD
HETATM   15  O   UNL     1       6.933  32.183  59.131  1.00  0.00    -0.268 OA
ENDBRANCH   7  11
ENDBRANCH   1   5
BRANCH   2  16
HETATM   16  C   UNL     1       8.048  25.135  56.515  1.00  0.00     0.144 A 
HETATM   17  O   UNL     1       7.909  25.295  55.159  1.00  0.00    -0.304 OA
HETATM   18  C   UNL     1       7.876  24.050  54.609  1.00  0.00     0.086 A 
HETATM   19  C   UNL     1       7.988  23.079  55.599  1.00  0.00     0.001 A 
HETATM   20  C   UNL     1       7.752  23.768  53.251  1.00  0.00     0.038 A 
HETATM   21  C   UNL     1       8.093  23.788  56.822  1.00  0.00     0.057 A 
HETATM   22  C   UNL     1       7.980  21.726  55.218  1.00  0.00     0.014 A 
HETATM   23  C   UNL     1       7.859  21.411  53.857  1.00  0.00     0.001 A 
HETATM   24  C   UNL     1       7.746  22.416  52.893  1.00  0.00     0.003 A 
ENDBRANCH   2  16
TORSDOF 3
ENDMDL
MODEL 3
REMARK VINA RESULT:      -8.5      5.831      8.010
REMARK  3 active torsions:
REMARK  status: ('A' for Active; 'I' for Inactive)
REMARK       I    between atoms: N_2  and  C_3 
REMARK    1  A    between atoms: C_3  and  C_4 
REMARK    2  A    between atoms: C_6  and  N_7 
REMARK       I    between atoms: N_7  and  C_8 
REMARK    3  A    between atoms: C_8  and  C_9 
ROOT
HETATM    1  N   UNL     1       5.762  25.331  52.115  1.00  0.00    -0.321 N 
HETATM    2  C   UNL     1       6.915  25.413  52.877  1.00  0.00     0.280 C 
HETATM    3  O   UNL     1       7.614  26.414  53.001  1.00  0.00    -0.265 OA
HETATM    4  H   UNL     1       5.334  24.411  52.097  1.00  0.00     0.169 HD
ENDROOT
BRANCH   1   5
HETATM    5  C   UNL     1       5.170  26.332  51.323  1.00  0.00     0.036 A 
HETATM    6  C   UNL     1       5.079  26.269  49.932  1.00  0.00     0.046 A 
HETATM    7  C   UNL     1       4.416  27.277  49.219  1.00  0.00     0.034 A 
HETATM    8  C   UNL     1       3.901  28.388  49.893  1.00  0.00     0.017 A 
HETATM    9  C   UNL     1       4.013  28.472  51.279  1.00  0.00     0.003 A 
HETATM   10  C   UNL     1       4.640  27.446  51.990  1.00  0.00     0.029 A 
BRANCH   7  11
HETATM   11  C   UNL     1       4.300  27.238  47.741  1.00  0.00     0.251 C 
HETATM   12  N   UNL     1       3.123  26.877  47.137  1.00  0.00    -0.361 N 
HETATM   13  C   UNL     1       1.815  26.703  47.727  1.00  0.00     0.149 C 
HETATM   14  H   UNL     1       3.189  26.864  46.126  1.00  0.00     0.162 HD
HETATM   15  O   UNL     1       5.268  27.553  47.052  1.00  0.00    -0.268 OA
ENDBRANCH   7  11
ENDBRANCH   1   5
BRANCH   2  16
HETATM   16  C   UNL     1       7.257  24.157  53.516  1.00  0.00     0.144 A 
HETATM   17  O   UNL     1       7.754  23.127  52.756  1.00  0.00    -0.304 OA
HETATM   18  C   UNL     1       8.008  22.091  53.603  1.00  0.00     0.086 A 
HETATM   19  C   UNL     1       7.678  22.439  54.908  1.00  0.00     0.001 A 
HETATM   20  C   UNL     1       8.530  20.854  53.233  1.00  0.00     0.038 A 
HETATM   21  C   UNL     1       7.191  23.768  54.841  1.00  0.00     0.057 A 
HETATM   22  C   UNL     1       7.880  21.493  55.928  1.00  0.00     0.014 A 
HETATM   23  C   UNL     1       8.407  20.238  55.587  1.00  0.00     0.001 A 
HETATM   24  C   UNL     1       8.724  19.926  54.262  1.00  0.00     0.003 A 
ENDBRANCH   2  16
TORSDOF 3
ENDMDL
MODEL 4
REMARK VINA RESULT:      -8.4      3.432      9.474
REMARK  3 active torsions:
REMARK  status: ('A' for Active; 'I' for Inactive)
REMARK       I    between atoms: N_2  and  C_3 
REMARK    1  A    between atoms: C_3  and  C_4 
REMARK    2  A    between atoms: C_6  and  N_7 
REMARK       I    between atoms: N_7  and  C_8 
REMARK    3  A    between atoms: C_8  and  C_9 
ROOT
HETATM    1  N   UNL     1       8.097  30.843  59.957  1.00  0.00    -0.321 N 
HETATM    2  C   UNL     1       7.245  31.932  60.026  1.00  0.00     0.280 C 
HETATM    3  O   UNL     1       6.724  32.489  59.064  1.00  0.00    -0.265 OA
HETATM    4  H   UNL     1       8.465  30.540  60.852  1.00  0.00     0.169 HD
ENDROOT
BRANCH   1   5
HETATM    5  C   UNL     1       8.559  30.172  58.809  1.00  0.00     0.036 A 
HETATM    6  C   UNL     1       7.794  29.256  58.085  1.00  0.00     0.046 A 
HETATM    7  C   UNL     1       8.303  28.677  56.915  1.00  0.00     0.034 A 
HETATM    8  C   UNL     1       9.608  28.963  56.503  1.00  0.00     0.017 A 
HETATM    9  C   UNL     1      10.387  29.854  57.236  1.00  0.00     0.003 A 
HETATM   10  C   UNL     1       9.862  30.460  58.380  1.00  0.00     0.029 A 
BRANCH   7  11
HETATM   11  C   UNL     1       7.514  27.703  56.122  1.00  0.00     0.251 C 
HETATM   12  N   UNL     1       7.603  26.357  56.372  1.00  0.00    -0.361 N 
HETATM   13  C   UNL     1       8.228  25.678  57.485  1.00  0.00     0.149 C 
HETATM   14  H   UNL     1       7.036  25.802  55.742  1.00  0.00     0.162 HD
HETATM   15  O   UNL     1       6.757  28.111  55.245  1.00  0.00    -0.268 OA
ENDBRANCH   7  11
ENDBRANCH   1   5
BRANCH   2  16
HETATM   16  C   UNL     1       7.037  32.398  61.384  1.00  0.00     0.144 A 
HETATM   17  O   UNL     1       5.759  32.634  61.828  1.00  0.00    -0.304 OA
HETATM   18  C   UNL     1       5.854  33.033  63.126  1.00  0.00     0.086 A 
HETATM   19  C   UNL     1       7.184  33.060  63.530  1.00  0.00     0.001 A 
HETATM   20  C   UNL     1       4.781  33.365  63.950  1.00  0.00     0.038 A 
HETATM   21  C   UNL     1       7.938  32.654  62.400  1.00  0.00     0.057 A 
HETATM   22  C   UNL     1       7.478  33.442  64.850  1.00  0.00     0.014 A 
HETATM   23  C   UNL     1       6.419  33.780  65.705  1.00  0.00     0.001 A 
HETATM   24  C   UNL     1       5.094  33.743  65.260  1.00  0.00     0.003 A 
ENDBRANCH   2  16
TORSDOF 3
ENDMDL
MODEL 5
REMARK VINA RESULT:      -8.3      5.558      6.601
REMARK  3 active torsions:
REMARK  status: ('A' for Active; 'I' for Inactive)
REMARK       I    between atoms: N_2  and  C_3 
REMARK    1  A    between atoms: C_3  and  C_4 
REMARK    2  A    between atoms: C_6  and  N_7 
REMARK       I    between atoms: N_7  and  C_8 
REMARK    3  A    between atoms: C_8  and  C_9 
ROOT
HETATM    1  N   UNL     1       5.958  25.527  51.898  1.00  0.00    -0.321 N 
HETATM    2  C   UNL     1       5.883  25.410  53.275  1.00  0.00     0.280 C 
HETATM    3  O   UNL     1       5.336  26.211  54.027  1.00  0.00    -0.265 OA
HETATM    4  H   UNL     1       6.485  24.789  51.441  1.00  0.00     0.169 HD
ENDROOT
BRANCH   1   5
HETATM    5  C   UNL     1       5.465  26.565  51.084  1.00  0.00     0.036 A 
HETATM    6  C   UNL     1       5.761  27.914  51.283  1.00  0.00     0.046 A 
HETATM    7  C   UNL     1       5.283  28.882  50.390  1.00  0.00     0.034 A 
HETATM    8  C   UNL     1       4.448  28.508  49.333  1.00  0.00     0.017 A 
HETATM    9  C   UNL     1       4.126  27.167  49.145  1.00  0.00     0.003 A 
HETATM   10  C   UNL     1       4.637  26.199  50.014  1.00  0.00     0.029 A 
BRANCH   7  11
HETATM   11  C   UNL     1       5.581  30.324  50.572  1.00  0.00     0.251 C 
HETATM   12  N   UNL     1       4.858  31.087  51.452  1.00  0.00    -0.361 N 
HETATM   13  C   UNL     1       3.909  30.661  52.458  1.00  0.00     0.149 C 
HETATM   14  H   UNL     1       5.145  32.058  51.458  1.00  0.00     0.162 HD
HETATM   15  O   UNL     1       6.504  30.833  49.939  1.00  0.00    -0.268 OA
ENDBRANCH   7  11
ENDBRANCH   1   5
BRANCH   2  16
HETATM   16  C   UNL     1       6.559  24.229  53.777  1.00  0.00     0.144 A 
HETATM   17  O   UNL     1       6.980  23.266  52.893  1.00  0.00    -0.304 OA
HETATM   18  C   UNL     1       7.596  22.295  53.622  1.00  0.00     0.086 A 
HETATM   19  C   UNL     1       7.577  22.618  54.974  1.00  0.00     0.001 A 
HETATM   20  C   UNL     1       8.174  21.139  53.104  1.00  0.00     0.038 A 
HETATM   21  C   UNL     1       6.903  23.862  55.064  1.00  0.00     0.057 A 
HETATM   22  C   UNL     1       8.176  21.732  55.886  1.00  0.00     0.014 A 
HETATM   23  C   UNL     1       8.768  20.559  55.394  1.00  0.00     0.001 A 
HETATM   24  C   UNL     1       8.765  20.270  54.026  1.00  0.00     0.003 A 
ENDBRANCH   2  16
TORSDOF 3
ENDMDL
MODEL 6
REMARK VINA RESULT:      -8.3      2.695      9.024
REMARK  3 active torsions:
REMARK  status: ('A' for Active; 'I' for Inactive)
REMARK       I    between atoms: N_2  and  C_3 
REMARK    1  A    between atoms: C_3  and  C_4 
REMARK    2  A    between atoms: C_6  and  N_7 
REMARK       I    between atoms: N_7  and  C_8 
REMARK    3  A    between atoms: C_8  and  C_9 
ROOT
HETATM    1  N   UNL     1       7.584  30.023  58.917  1.00  0.00    -0.321 N 
HETATM    2  C   UNL     1       8.642  30.708  59.491  1.00  0.00     0.280 C 
HETATM    3  O   UNL     1       9.807  30.663  59.110  1.00  0.00    -0.265 OA
HETATM    4  H   UNL     1       6.695  30.149  59.390  1.00  0.00     0.169 HD
ENDROOT
BRANCH   1   5
HETATM    5  C   UNL     1       7.613  29.136  57.824  1.00  0.00     0.036 A 
HETATM    6  C   UNL     1       7.595  27.746  57.951  1.00  0.00     0.046 A 
HETATM    7  C   UNL     1       7.560  26.932  56.812  1.00  0.00     0.034 A 
HETATM    8  C   UNL     1       7.613  27.506  55.539  1.00  0.00     0.017 A 
HETATM    9  C   UNL     1       7.660  28.891  55.404  1.00  0.00     0.003 A 
HETATM   10  C   UNL     1       7.654  29.702  56.542  1.00  0.00     0.029 A 
BRANCH   7  11
HETATM   11  C   UNL     1       7.538  25.452  56.914  1.00  0.00     0.251 C 
HETATM   12  N   UNL     1       6.369  24.781  57.165  1.00  0.00    -0.361 N 
HETATM   13  C   UNL     1       5.012  25.283  57.153  1.00  0.00     0.149 C 
HETATM   14  H   UNL     1       6.498  23.779  57.238  1.00  0.00     0.162 HD
HETATM   15  O   UNL     1       8.580  24.821  56.751  1.00  0.00    -0.268 OA
ENDBRANCH   7  11
ENDBRANCH   1   5
BRANCH   2  16
HETATM   16  C   UNL     1       8.244  31.490  60.646  1.00  0.00     0.144 A 
HETATM   17  O   UNL     1       7.242  32.420  60.519  1.00  0.00    -0.304 OA
HETATM   18  C   UNL     1       7.059  32.982  61.745  1.00  0.00     0.086 A 
HETATM   19  C   UNL     1       7.936  32.426  62.670  1.00  0.00     0.001 A 
HETATM   20  C   UNL     1       6.127  33.971  62.051  1.00  0.00     0.038 A 
HETATM   21  C   UNL     1       8.698  31.470  61.951  1.00  0.00     0.057 A 
HETATM   22  C   UNL     1       7.889  32.880  63.999  1.00  0.00     0.014 A 
HETATM   23  C   UNL     1       6.959  33.873  64.338  1.00  0.00     0.001 A 
HETATM   24  C   UNL     1       6.095  34.409  63.379  1.00  0.00     0.003 A 
ENDBRANCH   2  16
TORSDOF 3
ENDMDL
MODEL 7
REMARK VINA RESULT:      -8.3      4.786      7.848
REMARK  3 active torsions:
REMARK  status: ('A' for Active; 'I' for Inactive)
REMARK       I    between atoms: N_2  and  C_3 
REMARK    1  A    between atoms: C_3  and  C_4 
REMARK    2  A    between atoms: C_6  and  N_7 
REMARK       I    between atoms: N_7  and  C_8 
REMARK    3  A    between atoms: C_8  and  C_9 
ROOT
HETATM    1  N   UNL     1       7.675  32.769  61.829  1.00  0.00    -0.321 N 
HETATM    2  C   UNL     1       7.037  32.223  60.729  1.00  0.00     0.280 C 
HETATM    3  O   UNL     1       5.826  32.228  60.535  1.00  0.00    -0.265 OA
HETATM    4  H   UNL     1       8.682  32.637  61.842  1.00  0.00     0.169 HD
ENDROOT
BRANCH   1   5
HETATM    5  C   UNL     1       7.096  33.407  62.942  1.00  0.00     0.036 A 
HETATM    6  C   UNL     1       6.095  34.375  62.849  1.00  0.00     0.046 A 
HETATM    7  C   UNL     1       5.523  34.917  64.007  1.00  0.00     0.034 A 
HETATM    8  C   UNL     1       6.001  34.541  65.266  1.00  0.00     0.017 A 
HETATM    9  C   UNL     1       7.020  33.596  65.367  1.00  0.00     0.003 A 
HETATM   10  C   UNL     1       7.560  33.028  64.210  1.00  0.00     0.029 A 
BRANCH   7  11
HETATM   11  C   UNL     1       4.456  35.945  63.941  1.00  0.00     0.251 C 
HETATM   12  N   UNL     1       3.150  35.591  63.718  1.00  0.00    -0.361 N 
HETATM   13  C   UNL     1       2.550  34.275  63.730  1.00  0.00     0.149 C 
HETATM   14  H   UNL     1       2.530  36.390  63.667  1.00  0.00     0.162 HD
HETATM   15  O   UNL     1       4.747  37.127  64.110  1.00  0.00    -0.268 OA
ENDBRANCH   7  11
ENDBRANCH   1   5
BRANCH   2  16
HETATM   16  C   UNL     1       7.958  31.591  59.803  1.00  0.00     0.144 A 
HETATM   17  O   UNL     1       7.568  30.458  59.132  1.00  0.00    -0.304 OA
HETATM   18  C   UNL     1       8.601  30.096  58.323  1.00  0.00     0.086 A 
HETATM   19  C   UNL     1       9.662  30.984  58.464  1.00  0.00     0.001 A 
HETATM   20  C   UNL     1       8.611  28.999  57.465  1.00  0.00     0.038 A 
HETATM   21  C   UNL     1       9.240  31.939  59.422  1.00  0.00     0.057 A 
HETATM   22  C   UNL     1      10.821  30.774  57.697  1.00  0.00     0.014 A 
HETATM   23  C   UNL     1      10.860  29.678  56.822  1.00  0.00     0.001 A 
HETATM   24  C   UNL     1       9.773  28.807  56.711  1.00  0.00     0.003 A 
ENDBRANCH   2  16
TORSDOF 3
ENDMDL
MODEL 8
REMARK VINA RESULT:      -8.2      5.798      8.842
REMARK  3 active torsions:
REMARK  status: ('A' for Active; 'I' for Inactive)
REMARK       I    between atoms: N_2  and  C_3 
REMARK    1  A    between atoms: C_3  and  C_4 
REMARK    2  A    between atoms: C_6  and  N_7 
REMARK       I    between atoms: N_7  and  C_8 
REMARK    3  A    between atoms: C_8  and  C_9 
ROOT
HETATM    1  N   UNL     1       6.788  25.027  52.246  1.00  0.00    -0.321 N 
HETATM    2  C   UNL     1       5.439  25.289  52.081  1.00  0.00     0.280 C 
HETATM    3  O   UNL     1       4.536  24.825  52.770  1.00  0.00    -0.265 OA
HETATM    4  H   UNL     1       7.390  25.468  51.557  1.00  0.00     0.169 HD
ENDROOT
BRANCH   1   5
HETATM    5  C   UNL     1       7.401  24.181  53.189  1.00  0.00     0.036 A 
HETATM    6  C   UNL     1       7.631  22.821  52.978  1.00  0.00     0.046 A 
HETATM    7  C   UNL     1       8.306  22.059  53.942  1.00  0.00     0.034 A 
HETATM    8  C   UNL     1       8.692  22.643  55.151  1.00  0.00     0.017 A 
HETATM    9  C   UNL     1       8.441  23.994  55.380  1.00  0.00     0.003 A 
HETATM   10  C   UNL     1       7.803  24.760  54.401  1.00  0.00     0.029 A 
BRANCH   7  11
HETATM   11  C   UNL     1       8.567  20.612  53.746  1.00  0.00     0.251 C 
HETATM   12  N   UNL     1       8.844  19.797  54.814  1.00  0.00    -0.361 N 
HETATM   13  C   UNL     1       8.725  20.078  56.227  1.00  0.00     0.149 C 
HETATM   14  H   UNL     1       9.031  18.840  54.539  1.00  0.00     0.162 HD
HETATM   15  O   UNL     1       8.514  20.137  52.614  1.00  0.00    -0.268 OA
ENDBRANCH   7  11
ENDBRANCH   1   5
BRANCH   2  16
HETATM   16  C   UNL     1       5.171  26.171  50.960  1.00  0.00     0.144 A 
HETATM   17  O   UNL     1       5.579  27.480  51.020  1.00  0.00    -0.304 OA
HETATM   18  C   UNL     1       5.225  28.064  49.841  1.00  0.00     0.086 A 
HETATM   19  C   UNL     1       4.587  27.144  49.017  1.00  0.00     0.001 A 
HETATM   20  C   UNL     1       5.464  29.390  49.492  1.00  0.00     0.038 A 
HETATM   21  C   UNL     1       4.553  25.930  49.748  1.00  0.00     0.057 A 
HETATM   22  C   UNL     1       4.153  27.565  47.748  1.00  0.00     0.014 A 
HETATM   23  C   UNL     1       4.382  28.895  47.366  1.00  0.00     0.001 A 
HETATM   24  C   UNL     1       5.025  29.790  48.225  1.00  0.00     0.003 A 
ENDBRANCH   2  16
TORSDOF 3
ENDMDL
MODEL 9
REMARK VINA RESULT:      -8.1      2.523      3.307
REMARK  3 active torsions:
REMARK  status: ('A' for Active; 'I' for Inactive)
REMARK       I    between atoms: N_2  and  C_3 
REMARK    1  A    between atoms: C_3  and  C_4 
REMARK    2  A    between atoms: C_6  and  N_7 
REMARK       I    between atoms: N_7  and  C_8 
REMARK    3  A    between atoms: C_8  and  C_9 
ROOT
HETATM    1  N   UNL     1       6.827  26.978  56.238  1.00  0.00    -0.321 N 
HETATM    2  C   UNL     1       6.126  25.802  56.439  1.00  0.00     0.280 C 
HETATM    3  O   UNL     1       5.184  25.659  57.212  1.00  0.00    -0.265 OA
HETATM    4  H   UNL     1       7.604  26.900  55.589  1.00  0.00     0.169 HD
ENDROOT
BRANCH   1   5
HETATM    5  C   UNL     1       6.639  28.222  56.870  1.00  0.00     0.036 A 
HETATM    6  C   UNL     1       5.453  28.955  56.804  1.00  0.00     0.046 A 
HETATM    7  C   UNL     1       5.321  30.155  57.514  1.00  0.00     0.034 A 
HETATM    8  C   UNL     1       6.403  30.660  58.241  1.00  0.00     0.017 A 
HETATM    9  C   UNL     1       7.599  29.948  58.289  1.00  0.00     0.003 A 
HETATM   10  C   UNL     1       7.714  28.732  57.611  1.00  0.00     0.029 A 
BRANCH   7  11
HETATM   11  C   UNL     1       4.074  30.955  57.466  1.00  0.00     0.251 C 
HETATM   12  N   UNL     1       3.881  31.899  56.490  1.00  0.00    -0.361 N 
HETATM   13  C   UNL     1       4.652  32.138  55.291  1.00  0.00     0.149 C 
HETATM   14  H   UNL     1       3.002  32.393  56.589  1.00  0.00     0.162 HD
HETATM   15  O   UNL     1       3.194  30.753  58.301  1.00  0.00    -0.268 OA
ENDBRANCH   7  11
ENDBRANCH   1   5
BRANCH   2  16
HETATM   16  C   UNL     1       6.641  24.699  55.649  1.00  0.00     0.144 A 
HETATM   17  O   UNL     1       6.955  23.515  56.269  1.00  0.00    -0.304 OA
HETATM   18  C   UNL     1       7.387  22.659  55.301  1.00  0.00     0.086 A 
HETATM   19  C   UNL     1       7.359  23.279  54.057  1.00  0.00     0.001 A 
HETATM   20  C   UNL     1       7.797  21.344  55.509  1.00  0.00     0.038 A 
HETATM   21  C   UNL     1       6.882  24.593  54.293  1.00  0.00     0.057 A 
HETATM   22  C   UNL     1       7.765  22.544  52.930  1.00  0.00     0.014 A 
HETATM   23  C   UNL     1       8.181  21.216  53.107  1.00  0.00     0.001 A 
HETATM   24  C   UNL     1       8.197  20.629  54.375  1.00  0.00     0.003 A 
ENDBRANCH   2  16
TORSDOF 3
ENDMDL
MODEL 10
REMARK VINA RESULT:      -8.1      3.525      9.262
REMARK  3 active torsions:
REMARK  status: ('A' for Active; 'I' for Inactive)
REMARK       I    between atoms: N_2  and  C_3 
REMARK    1  A    between atoms: C_3  and  C_4 
REMARK    2  A    between atoms: C_6  and  N_7 
REMARK       I    between atoms: N_7  and  C_8 
REMARK    3  A    between atoms: C_8  and  C_9 
ROOT
HETATM    1  N   UNL     1       6.900  30.535  58.905  1.00  0.00    -0.321 N 
HETATM    2  C   UNL     1       6.432  31.837  58.937  1.00  0.00     0.280 C 
HETATM    3  O   UNL     1       6.057  32.482  57.963  1.00  0.00    -0.265 OA
HETATM    4  H   UNL     1       7.205  30.174  59.803  1.00  0.00     0.169 HD
ENDROOT
BRANCH   1   5
HETATM    5  C   UNL     1       7.068  29.699  57.785  1.00  0.00     0.036 A 
HETATM    6  C   UNL     1       6.039  28.946  57.216  1.00  0.00     0.046 A 
HETATM    7  C   UNL     1       6.272  28.188  56.062  1.00  0.00     0.034 A 
HETATM    8  C   UNL     1       7.555  28.126  55.511  1.00  0.00     0.017 A 
HETATM    9  C   UNL     1       8.593  28.853  56.089  1.00  0.00     0.003 A 
HETATM   10  C   UNL     1       8.349  29.640  57.217  1.00  0.00     0.029 A 
BRANCH   7  11
HETATM   11  C   UNL     1       5.200  27.379  55.433  1.00  0.00     0.251 C 
HETATM   12  N   UNL     1       4.951  26.095  55.847  1.00  0.00    -0.361 N 
HETATM   13  C   UNL     1       5.458  25.401  57.009  1.00  0.00     0.149 C 
HETATM   14  H   UNL     1       4.214  25.647  55.316  1.00  0.00     0.162 HD
HETATM   15  O   UNL     1       4.512  27.877  54.543  1.00  0.00    -0.268 OA
ENDBRANCH   7  11
ENDBRANCH   1   5
BRANCH   2  16
HETATM   16  C   UNL     1       6.453  32.408  60.271  1.00  0.00     0.144 A 
HETATM   17  O   UNL     1       7.389  31.974  61.176  1.00  0.00    -0.304 OA
HETATM   18  C   UNL     1       7.198  32.685  62.322  1.00  0.00     0.086 A 
HETATM   19  C   UNL     1       6.142  33.577  62.169  1.00  0.00     0.001 A 
HETATM   20  C   UNL     1       7.947  32.555  63.489  1.00  0.00     0.038 A 
HETATM   21  C   UNL     1       5.666  33.387  60.848  1.00  0.00     0.057 A 
HETATM   22  C   UNL     1       5.801  34.406  63.252  1.00  0.00     0.014 A 
HETATM   23  C   UNL     1       6.539  34.300  64.439  1.00  0.00     0.001 A 
HETATM   24  C   UNL     1       7.592  33.388  64.554  1.00  0.00     0.003 A 
ENDBRANCH   2  16
TORSDOF 3
ENDMDL
