MODEL 1
REMARK VINA RESULT:      -9.0      0.000      0.000
REMARK  5 active torsions:
REMARK  status: ('A' for Active; 'I' for Inactive)
REMARK       I    between atoms: C_2  and  N_3 
REMARK    1  A    between atoms: N_3  and  C_4 
REMARK    2  A    between atoms: C_7  and  C_8 
REMARK    3  A    between atoms: C_8  and  N_9 
REMARK    4  A    between atoms: C_12  and  C_13 
REMARK    5  A    between atoms: C_14  and  O_15 
ROOT
HETATM    1  N   UNL     1       4.042  33.294  60.556  1.00  0.00    -0.060 N 
HETATM    2  H   UNL     1       5.029  33.490  60.754  1.00  0.00     0.280 HD
HETATM    3  C   UNL     1       3.416  32.648  61.796  1.00  0.00     0.272 C 
HETATM    4  C   UNL     1       3.556  33.451  63.116  1.00  0.00     0.190 C 
HETATM    5  O   UNL     1       2.827  34.698  63.020  1.00  0.00    -0.339 OA
HETATM    6  C   UNL     1       3.529  35.731  62.467  1.00  0.00     0.077 A 
HETATM    7  C   UNL     1       3.871  35.734  61.116  1.00  0.00     0.001 A 
HETATM    8  C   UNL     1       3.417  34.626  60.223  1.00  0.00     0.276 C 
HETATM    9  C   UNL     1       3.812  36.829  63.277  1.00  0.00     0.037 A 
HETATM   10  C   UNL     1       4.513  37.914  62.760  1.00  0.00     0.003 A 
HETATM   11  C   UNL     1       4.908  37.910  61.425  1.00  0.00     0.001 A 
HETATM   12  C   UNL     1       4.582  36.830  60.602  1.00  0.00     0.012 A 
ENDROOT
BRANCH   1  13
HETATM   13  C   UNL     1       3.993  32.389  59.343  1.00  0.00     0.273 C 
BRANCH  13  14
HETATM   14  C   UNL     1       5.320  31.818  58.923  1.00  0.00    -0.032 A 
HETATM   15  C   UNL     1       6.476  32.126  59.653  1.00  0.00     0.011 A 
HETATM   16  C   UNL     1       7.718  31.597  59.284  1.00  0.00     0.030 A 
HETATM   17  C   UNL     1       7.832  30.744  58.188  1.00  0.00     0.034 A 
HETATM   18  C   UNL     1       6.678  30.437  57.456  1.00  0.00     0.030 A 
HETATM   19  C   UNL     1       5.433  30.971  57.815  1.00  0.00     0.011 A 
BRANCH  17  20
HETATM   20  N   UNL     1       9.044  30.150  57.778  1.00  0.00    -0.328 N 
HETATM   21  C   UNL     1      10.295  30.745  57.737  1.00  0.00     0.218 C 
HETATM   22  C   UNL     1      11.385  29.792  57.313  1.00  0.00     0.117 C 
HETATM   23  O   UNL     1      10.558  31.906  58.026  1.00  0.00    -0.274 OA
HETATM   24  H   UNL     1       8.996  29.179  57.494  1.00  0.00     0.169 HD
ENDBRANCH  17  20
ENDBRANCH  13  14
ENDBRANCH   1  13
BRANCH   4  25
HETATM   25  C   UNL     1       4.930  33.525  63.795  1.00  0.00     0.006 A 
HETATM   26  C   UNL     1       5.000  33.796  65.184  1.00  0.00     0.077 A 
HETATM   27  C   UNL     1       6.240  33.899  65.823  1.00  0.00     0.037 A 
HETATM   28  C   UNL     1       7.420  33.702  65.108  1.00  0.00     0.003 A 
HETATM   29  C   UNL     1       7.367  33.378  63.759  1.00  0.00     0.001 A 
HETATM   30  C   UNL     1       6.134  33.279  63.110  1.00  0.00     0.012 A 
BRANCH  26  31
HETATM   31  O   UNL     1       3.794  33.914  65.829  1.00  0.00    -0.355 OA
HETATM   32  C   UNL     1       3.563  35.094  66.591  1.00  0.00     0.210 C 
ENDBRANCH  26  31
ENDBRANCH   4  25
TORSDOF 5
ENDMDL
MODEL 2
REMARK VINA RESULT:      -8.8      4.185      8.895
REMARK  5 active torsions:
REMARK  status: ('A' for Active; 'I' for Inactive)
REMARK       I    between atoms: C_2  and  N_3 
REMARK    1  A    between atoms: N_3  and  C_4 
REMARK    2  A    between atoms: C_7  and  C_8 
REMARK    3  A    between atoms: C_8  and  N_9 
REMARK    4  A    between atoms: C_12  and  C_13 
REMARK    5  A    between atoms: C_14  and  O_15 
ROOT
HETATM    1  N   UNL     1       5.267  35.256  66.421  1.00  0.00    -0.060 N 
HETATM    2  H   UNL     1       5.740  35.849  65.731  1.00  0.00     0.280 HD
HETATM    3  C   UNL     1       3.793  35.129  66.024  1.00  0.00     0.272 C 
HETATM    4  C   UNL     1       3.525  34.610  64.587  1.00  0.00     0.190 C 
HETATM    5  O   UNL     1       3.995  33.247  64.454  1.00  0.00    -0.339 OA
HETATM    6  C   UNL     1       5.312  33.127  64.114  1.00  0.00     0.077 A 
HETATM    7  C   UNL     1       6.325  33.474  65.006  1.00  0.00     0.001 A 
HETATM    8  C   UNL     1       5.988  33.931  66.387  1.00  0.00     0.276 C 
HETATM    9  C   UNL     1       5.613  32.554  62.880  1.00  0.00     0.037 A 
HETATM   10  C   UNL     1       6.940  32.396  62.490  1.00  0.00     0.003 A 
HETATM   11  C   UNL     1       7.964  32.787  63.347  1.00  0.00     0.001 A 
HETATM   12  C   UNL     1       7.662  33.316  64.604  1.00  0.00     0.012 A 
ENDROOT
BRANCH   1  13
HETATM   13  C   UNL     1       5.450  35.903  67.777  1.00  0.00     0.273 C 
BRANCH  13  14
HETATM   14  C   UNL     1       6.137  35.043  68.802  1.00  0.00    -0.032 A 
HETATM   15  C   UNL     1       7.446  35.341  69.202  1.00  0.00     0.011 A 
HETATM   16  C   UNL     1       8.098  34.558  70.161  1.00  0.00     0.030 A 
HETATM   17  C   UNL     1       7.457  33.468  70.747  1.00  0.00     0.034 A 
HETATM   18  C   UNL     1       6.149  33.166  70.347  1.00  0.00     0.030 A 
HETATM   19  C   UNL     1       5.494  33.942  69.381  1.00  0.00     0.011 A 
BRANCH  17  20
HETATM   20  N   UNL     1       8.040  32.655  71.741  1.00  0.00    -0.328 N 
HETATM   21  C   UNL     1       7.856  32.748  73.111  1.00  0.00     0.218 C 
HETATM   22  C   UNL     1       8.580  31.667  73.877  1.00  0.00     0.117 C 
HETATM   23  O   UNL     1       7.172  33.577  73.700  1.00  0.00    -0.274 OA
HETATM   24  H   UNL     1       8.650  31.915  71.417  1.00  0.00     0.169 HD
ENDBRANCH  17  20
ENDBRANCH  13  14
ENDBRANCH   1  13
BRANCH   4  25
HETATM   25  C   UNL     1       3.809  35.539  63.399  1.00  0.00     0.006 A 
HETATM   26  C   UNL     1       2.981  35.465  62.251  1.00  0.00     0.077 A 
HETATM   27  C   UNL     1       3.236  36.280  61.143  1.00  0.00     0.037 A 
HETATM   28  C   UNL     1       4.285  37.196  61.167  1.00  0.00     0.003 A 
HETATM   29  C   UNL     1       5.069  37.321  62.306  1.00  0.00     0.001 A 
HETATM   30  C   UNL     1       4.827  36.510  63.417  1.00  0.00     0.012 A 
BRANCH  26  31
HETATM   31  O   UNL     1       1.932  34.584  62.330  1.00  0.00    -0.355 OA
HETATM   32  C   UNL     1       0.918  34.669  61.334  1.00  0.00     0.210 C 
ENDBRANCH  26  31
ENDBRANCH   4  25
TORSDOF 5
ENDMDL
MODEL 3
REMARK VINA RESULT:      -8.7      1.507      1.646
REMARK  5 active torsions:
REMARK  status: ('A' for Active; 'I' for Inactive)
REMARK       I    between atoms: C_2  and  N_3 
REMARK    1  A    between atoms: N_3  and  C_4 
REMARK    2  A    between atoms: C_7  and  C_8 
REMARK    3  A    between atoms: C_8  and  N_9 
REMARK    4  A    between atoms: C_12  and  C_13 
REMARK    5  A    between atoms: C_14  and  O_15 
ROOT
HETATM    1  N   UNL     1       3.700  34.200  60.386  1.00  0.00    -0.060 N 
HETATM    2  H   UNL     1       4.724  34.218  60.425  1.00  0.00     0.280 HD
HETATM    3  C   UNL     1       3.183  33.364  61.562  1.00  0.00     0.272 C 
HETATM    4  C   UNL     1       3.666  33.809  62.968  1.00  0.00     0.190 C 
HETATM    5  O   UNL     1       3.149  35.125  63.278  1.00  0.00    -0.339 OA
HETATM    6  C   UNL     1       3.915  36.162  62.828  1.00  0.00     0.077 A 
HETATM    7  C   UNL     1       4.030  36.440  61.467  1.00  0.00     0.001 A 
HETATM    8  C   UNL     1       3.259  35.641  60.468  1.00  0.00     0.276 C 
HETATM    9  C   UNL     1       4.504  36.993  63.778  1.00  0.00     0.037 A 
HETATM   10  C   UNL     1       5.283  38.073  63.372  1.00  0.00     0.003 A 
HETATM   11  C   UNL     1       5.451  38.334  62.016  1.00  0.00     0.001 A 
HETATM   12  C   UNL     1       4.821  37.528  61.065  1.00  0.00     0.012 A 
ENDROOT
BRANCH   1  13
HETATM   13  C   UNL     1       3.305  33.620  59.045  1.00  0.00     0.273 C 
BRANCH  13  14
HETATM   14  C   UNL     1       4.182  32.501  58.555  1.00  0.00    -0.032 A 
HETATM   15  C   UNL     1       5.573  32.588  58.698  1.00  0.00     0.011 A 
HETATM   16  C   UNL     1       6.405  31.553  58.257  1.00  0.00     0.030 A 
HETATM   17  C   UNL     1       5.869  30.407  57.673  1.00  0.00     0.034 A 
HETATM   18  C   UNL     1       4.479  30.318  57.527  1.00  0.00     0.030 A 
HETATM   19  C   UNL     1       3.641  31.356  57.959  1.00  0.00     0.011 A 
BRANCH  17  20
HETATM   20  N   UNL     1       6.643  29.313  57.235  1.00  0.00    -0.328 N 
HETATM   21  C   UNL     1       7.755  28.771  57.861  1.00  0.00     0.218 C 
HETATM   22  C   UNL     1       8.297  27.556  57.149  1.00  0.00     0.117 C 
HETATM   23  O   UNL     1       8.276  29.172  58.896  1.00  0.00    -0.274 OA
HETATM   24  H   UNL     1       6.347  28.866  56.376  1.00  0.00     0.169 HD
ENDBRANCH  17  20
ENDBRANCH  13  14
ENDBRANCH   1  13
BRANCH   4  25
HETATM   25  C   UNL     1       5.125  33.547  63.367  1.00  0.00     0.006 A 
HETATM   26  C   UNL     1       5.460  33.460  64.740  1.00  0.00     0.077 A 
HETATM   27  C   UNL     1       6.787  33.252  65.132  1.00  0.00     0.037 A 
HETATM   28  C   UNL     1       7.788  33.093  64.176  1.00  0.00     0.003 A 
HETATM   29  C   UNL     1       7.467  33.119  62.826  1.00  0.00     0.001 A 
HETATM   30  C   UNL     1       6.146  33.331  62.423  1.00  0.00     0.012 A 
BRANCH  26  31
HETATM   31  O   UNL     1       4.410  33.563  65.617  1.00  0.00    -0.355 OA
HETATM   32  C   UNL     1       4.645  34.216  66.860  1.00  0.00     0.210 C 
ENDBRANCH  26  31
ENDBRANCH   4  25
TORSDOF 5
ENDMDL
MODEL 4
REMARK VINA RESULT:      -8.4      2.310      3.974
REMARK  5 active torsions:
REMARK  status: ('A' for Active; 'I' for Inactive)
REMARK       I    between atoms: C_2  and  N_3 
REMARK    1  A    between atoms: N_3  and  C_4 
REMARK    2  A    between atoms: C_7  and  C_8 
REMARK    3  A    between atoms: C_8  and  N_9 
REMARK    4  A    between atoms: C_12  and  C_13 
REMARK    5  A    between atoms: C_14  and  O_15 
ROOT
HETATM    1  N   UNL     1       5.862  34.711  63.217  1.00  0.00    -0.060 N 
HETATM    2  H   UNL     1       6.435  35.182  62.510  1.00  0.00     0.280 HD
HETATM    3  C   UNL     1       5.656  35.671  64.394  1.00  0.00     0.272 C 
HETATM    4  C   UNL     1       5.052  37.054  64.037  1.00  0.00     0.190 C 
HETATM    5  O   UNL     1       3.703  36.893  63.535  1.00  0.00    -0.339 OA
HETATM    6  C   UNL     1       3.617  36.652  62.193  1.00  0.00     0.077 A 
HETATM    7  C   UNL     1       4.051  35.447  61.645  1.00  0.00     0.001 A 
HETATM    8  C   UNL     1       4.566  34.360  62.529  1.00  0.00     0.276 C 
HETATM    9  C   UNL     1       2.993  37.614  61.402  1.00  0.00     0.037 A 
HETATM   10  C   UNL     1       2.866  37.412  60.030  1.00  0.00     0.003 A 
HETATM   11  C   UNL     1       3.341  36.236  59.457  1.00  0.00     0.001 A 
HETATM   12  C   UNL     1       3.923  35.252  60.260  1.00  0.00     0.012 A 
ENDROOT
BRANCH   1  13
HETATM   13  C   UNL     1       6.586  33.444  63.621  1.00  0.00     0.273 C 
BRANCH  13  14
HETATM   14  C   UNL     1       7.269  32.718  62.495  1.00  0.00    -0.032 A 
HETATM   15  C   UNL     1       8.479  32.049  62.725  1.00  0.00     0.011 A 
HETATM   16  C   UNL     1       9.124  31.361  61.692  1.00  0.00     0.030 A 
HETATM   17  C   UNL     1       8.575  31.317  60.412  1.00  0.00     0.034 A 
HETATM   18  C   UNL     1       7.367  31.988  60.179  1.00  0.00     0.030 A 
HETATM   19  C   UNL     1       6.721  32.686  61.207  1.00  0.00     0.011 A 
BRANCH  17  20
HETATM   20  N   UNL     1       9.153  30.618  59.332  1.00  0.00    -0.328 N 
HETATM   21  C   UNL     1       9.996  31.131  58.360  1.00  0.00     0.218 C 
HETATM   22  C   UNL     1      10.486  30.081  57.393  1.00  0.00     0.117 C 
HETATM   23  O   UNL     1      10.363  32.296  58.254  1.00  0.00    -0.274 OA
HETATM   24  H   UNL     1       8.938  29.631  59.268  1.00  0.00     0.169 HD
ENDBRANCH  17  20
ENDBRANCH  13  14
ENDBRANCH   1  13
BRANCH   4  25
HETATM   25  C   UNL     1       5.927  38.077  63.300  1.00  0.00     0.006 A 
HETATM   26  C   UNL     1       6.285  39.280  63.957  1.00  0.00     0.077 A 
HETATM   27  C   UNL     1       7.057  40.242  63.298  1.00  0.00     0.037 A 
HETATM   28  C   UNL     1       7.512  40.014  62.001  1.00  0.00     0.003 A 
HETATM   29  C   UNL     1       7.218  38.815  61.365  1.00  0.00     0.001 A 
HETATM   30  C   UNL     1       6.444  37.850  62.011  1.00  0.00     0.012 A 
BRANCH  26  31
HETATM   31  O   UNL     1       5.852  39.402  65.254  1.00  0.00    -0.355 OA
HETATM   32  C   UNL     1       6.092  40.637  65.920  1.00  0.00     0.210 C 
ENDBRANCH  26  31
ENDBRANCH   4  25
TORSDOF 5
ENDMDL
MODEL 5
REMARK VINA RESULT:      -8.3      4.967     10.664
REMARK  5 active torsions:
REMARK  status: ('A' for Active; 'I' for Inactive)
REMARK       I    between atoms: C_2  and  N_3 
REMARK    1  A    between atoms: N_3  and  C_4 
REMARK    2  A    between atoms: C_7  and  C_8 
REMARK    3  A    between atoms: C_8  and  N_9 
REMARK    4  A    between atoms: C_12  and  C_13 
REMARK    5  A    between atoms: C_14  and  O_15 
ROOT
HETATM    1  N   UNL     1       8.169  28.440  56.096  1.00  0.00    -0.060 N 
HETATM    2  H   UNL     1       8.616  27.923  55.332  1.00  0.00     0.280 HD
HETATM    3  C   UNL     1       6.717  28.729  55.704  1.00  0.00     0.272 C 
HETATM    4  C   UNL     1       5.865  27.493  55.314  1.00  0.00     0.190 C 
HETATM    5  O   UNL     1       5.705  26.619  56.457  1.00  0.00    -0.339 OA
HETATM    6  C   UNL     1       6.711  25.712  56.630  1.00  0.00     0.077 A 
HETATM    7  C   UNL     1       7.989  26.112  57.015  1.00  0.00     0.001 A 
HETATM    8  C   UNL     1       8.270  27.549  57.310  1.00  0.00     0.276 C 
HETATM    9  C   UNL     1       6.394  24.361  56.502  1.00  0.00     0.037 A 
HETATM   10  C   UNL     1       7.380  23.394  56.682  1.00  0.00     0.003 A 
HETATM   11  C   UNL     1       8.675  23.780  57.016  1.00  0.00     0.001 A 
HETATM   12  C   UNL     1       8.979  25.132  57.191  1.00  0.00     0.012 A 
ENDROOT
BRANCH   1  13
HETATM   13  C   UNL     1       8.972  29.704  56.322  1.00  0.00     0.273 C 
BRANCH  13  14
HETATM   14  C   UNL     1       8.745  30.370  57.651  1.00  0.00    -0.032 A 
HETATM   15  C   UNL     1       9.834  30.664  58.482  1.00  0.00     0.011 A 
HETATM   16  C   UNL     1       9.643  31.292  59.718  1.00  0.00     0.030 A 
HETATM   17  C   UNL     1       8.366  31.648  60.147  1.00  0.00     0.034 A 
HETATM   18  C   UNL     1       7.275  31.353  59.319  1.00  0.00     0.030 A 
HETATM   19  C   UNL     1       7.460  30.717  58.084  1.00  0.00     0.011 A 
BRANCH  17  20
HETATM   20  N   UNL     1       8.102  32.311  61.364  1.00  0.00    -0.328 N 
HETATM   21  C   UNL     1       8.161  31.772  62.639  1.00  0.00     0.218 C 
HETATM   22  C   UNL     1       7.886  32.787  63.720  1.00  0.00     0.117 C 
HETATM   23  O   UNL     1       8.426  30.610  62.927  1.00  0.00    -0.274 OA
HETATM   24  H   UNL     1       7.855  33.290  61.299  1.00  0.00     0.169 HD
ENDBRANCH  17  20
ENDBRANCH  13  14
ENDBRANCH   1  13
BRANCH   4  25
HETATM   25  C   UNL     1       6.136  26.801  53.971  1.00  0.00     0.006 A 
HETATM   26  C   UNL     1       5.104  26.749  53.001  1.00  0.00     0.077 A 
HETATM   27  C   UNL     1       5.314  26.099  51.781  1.00  0.00     0.037 A 
HETATM   28  C   UNL     1       6.550  25.527  51.490  1.00  0.00     0.003 A 
HETATM   29  C   UNL     1       7.590  25.620  52.406  1.00  0.00     0.001 A 
HETATM   30  C   UNL     1       7.390  26.262  53.630  1.00  0.00     0.012 A 
BRANCH  26  31
HETATM   31  O   UNL     1       3.938  27.390  53.337  1.00  0.00    -0.355 OA
HETATM   32  C   UNL     1       3.561  28.526  52.568  1.00  0.00     0.210 C 
ENDBRANCH  26  31
ENDBRANCH   4  25
TORSDOF 5
ENDMDL
MODEL 6
REMARK VINA RESULT:      -8.1      5.591      8.834
REMARK  5 active torsions:
REMARK  status: ('A' for Active; 'I' for Inactive)
REMARK       I    between atoms: C_2  and  N_3 
REMARK    1  A    between atoms: N_3  and  C_4 
REMARK    2  A    between atoms: C_7  and  C_8 
REMARK    3  A    between atoms: C_8  and  N_9 
REMARK    4  A    between atoms: C_12  and  C_13 
REMARK    5  A    between atoms: C_14  and  O_15 
ROOT
HETATM    1  N   UNL     1       5.609  27.867  54.985  1.00  0.00    -0.060 N 
HETATM    2  H   UNL     1       6.336  28.456  54.565  1.00  0.00     0.280 HD
HETATM    3  C   UNL     1       6.170  27.241  56.266  1.00  0.00     0.272 C 
HETATM    4  C   UNL     1       6.733  28.239  57.312  1.00  0.00     0.190 C 
HETATM    5  O   UNL     1       5.669  29.078  57.822  1.00  0.00    -0.339 OA
HETATM    6  C   UNL     1       5.416  30.196  57.081  1.00  0.00     0.077 A 
HETATM    7  C   UNL     1       4.848  30.111  55.812  1.00  0.00     0.001 A 
HETATM    8  C   UNL     1       4.442  28.785  55.257  1.00  0.00     0.276 C 
HETATM    9  C   UNL     1       5.657  31.434  57.674  1.00  0.00     0.037 A 
HETATM   10  C   UNL     1       5.403  32.606  56.967  1.00  0.00     0.003 A 
HETATM   11  C   UNL     1       4.884  32.538  55.677  1.00  0.00     0.001 A 
HETATM   12  C   UNL     1       4.599  31.297  55.103  1.00  0.00     0.012 A 
ENDROOT
BRANCH   1  13
HETATM   13  C   UNL     1       5.213  26.829  53.956  1.00  0.00     0.273 C 
BRANCH  13  14
HETATM   14  C   UNL     1       6.119  25.631  53.884  1.00  0.00    -0.032 A 
HETATM   15  C   UNL     1       6.958  25.452  52.776  1.00  0.00     0.011 A 
HETATM   16  C   UNL     1       7.814  24.349  52.695  1.00  0.00     0.030 A 
HETATM   17  C   UNL     1       7.859  23.406  53.720  1.00  0.00     0.034 A 
HETATM   18  C   UNL     1       7.020  23.580  54.828  1.00  0.00     0.030 A 
HETATM   19  C   UNL     1       6.155  24.679  54.910  1.00  0.00     0.011 A 
BRANCH  17  20
HETATM   20  N   UNL     1       8.719  22.288  53.721  1.00  0.00    -0.328 N 
HETATM   21  C   UNL     1       8.398  20.987  53.367  1.00  0.00     0.218 C 
HETATM   22  C   UNL     1       9.584  20.054  53.417  1.00  0.00     0.117 C 
HETATM   23  O   UNL     1       7.297  20.577  53.018  1.00  0.00    -0.274 OA
HETATM   24  H   UNL     1       9.678  22.456  53.999  1.00  0.00     0.169 HD
ENDBRANCH  17  20
ENDBRANCH  13  14
ENDBRANCH   1  13
BRANCH   4  25
HETATM   25  C   UNL     1       8.065  28.943  57.021  1.00  0.00     0.006 A 
HETATM   26  C   UNL     1       8.745  29.597  58.078  1.00  0.00     0.077 A 
HETATM   27  C   UNL     1       9.946  30.272  57.835  1.00  0.00     0.037 A 
HETATM   28  C   UNL     1      10.505  30.280  56.559  1.00  0.00     0.003 A 
HETATM   29  C   UNL     1       9.881  29.595  55.525  1.00  0.00     0.001 A 
HETATM   30  C   UNL     1       8.679  28.922  55.755  1.00  0.00     0.012 A 
BRANCH  26  31
HETATM   31  O   UNL     1       8.164  29.491  59.316  1.00  0.00    -0.355 OA
HETATM   32  C   UNL     1       8.333  30.574  60.224  1.00  0.00     0.210 C 
ENDBRANCH  26  31
ENDBRANCH   4  25
TORSDOF 5
ENDMDL
MODEL 7
REMARK VINA RESULT:      -7.9     10.646     12.941
REMARK  5 active torsions:
REMARK  status: ('A' for Active; 'I' for Inactive)
REMARK       I    between atoms: C_2  and  N_3 
REMARK    1  A    between atoms: N_3  and  C_4 
REMARK    2  A    between atoms: C_7  and  C_8 
REMARK    3  A    between atoms: C_8  and  N_9 
REMARK    4  A    between atoms: C_12  and  C_13 
REMARK    5  A    between atoms: C_14  and  O_15 
ROOT
HETATM    1  N   UNL     1       5.510  28.351  52.165  1.00  0.00    -0.060 N 
HETATM    2  H   UNL     1       6.110  28.758  51.440  1.00  0.00     0.280 HD
HETATM    3  C   UNL     1       4.520  29.422  52.634  1.00  0.00     0.272 C 
HETATM    4  C   UNL     1       3.659  30.076  51.521  1.00  0.00     0.190 C 
HETATM    5  O   UNL     1       2.783  29.090  50.924  1.00  0.00    -0.339 OA
HETATM    6  C   UNL     1       3.338  28.378  49.899  1.00  0.00     0.077 A 
HETATM    7  C   UNL     1       4.355  27.454  50.126  1.00  0.00     0.001 A 
HETATM    8  C   UNL     1       4.822  27.175  51.517  1.00  0.00     0.276 C 
HETATM    9  C   UNL     1       2.787  28.536  48.629  1.00  0.00     0.037 A 
HETATM   10  C   UNL     1       3.305  27.823  47.551  1.00  0.00     0.003 A 
HETATM   11  C   UNL     1       4.357  26.934  47.751  1.00  0.00     0.001 A 
HETATM   12  C   UNL     1       4.876  26.742  49.034  1.00  0.00     0.012 A 
ENDROOT
BRANCH   1  13
HETATM   13  C   UNL     1       6.411  27.865  53.281  1.00  0.00     0.273 C 
BRANCH  13  14
HETATM   14  C   UNL     1       6.761  26.403  53.221  1.00  0.00    -0.032 A 
HETATM   15  C   UNL     1       6.181  25.508  54.130  1.00  0.00     0.011 A 
HETATM   16  C   UNL     1       6.487  24.143  54.085  1.00  0.00     0.030 A 
HETATM   17  C   UNL     1       7.369  23.642  53.129  1.00  0.00     0.034 A 
HETATM   18  C   UNL     1       7.951  24.535  52.222  1.00  0.00     0.030 A 
HETATM   19  C   UNL     1       7.656  25.904  52.268  1.00  0.00     0.011 A 
BRANCH  17  20
HETATM   20  N   UNL     1       7.699  22.276  53.005  1.00  0.00    -0.328 N 
HETATM   21  C   UNL     1       8.682  21.587  53.697  1.00  0.00     0.218 C 
HETATM   22  C   UNL     1       8.713  20.115  53.365  1.00  0.00     0.117 C 
HETATM   23  O   UNL     1       9.457  22.057  54.522  1.00  0.00    -0.274 OA
HETATM   24  H   UNL     1       7.149  21.738  52.347  1.00  0.00     0.169 HD
ENDBRANCH  17  20
ENDBRANCH  13  14
ENDBRANCH   1  13
BRANCH   4  25
HETATM   25  C   UNL     1       4.328  31.059  50.550  1.00  0.00     0.006 A 
HETATM   26  C   UNL     1       3.561  32.116  50.001  1.00  0.00     0.077 A 
HETATM   27  C   UNL     1       4.137  33.008  49.091  1.00  0.00     0.037 A 
HETATM   28  C   UNL     1       5.480  32.889  48.740  1.00  0.00     0.003 A 
HETATM   29  C   UNL     1       6.260  31.893  49.313  1.00  0.00     0.001 A 
HETATM   30  C   UNL     1       5.694  30.994  50.219  1.00  0.00     0.012 A 
BRANCH  26  31
HETATM   31  O   UNL     1       2.265  32.205  50.444  1.00  0.00    -0.355 OA
HETATM   32  C   UNL     1       1.224  32.023  49.491  1.00  0.00     0.210 C 
ENDBRANCH  26  31
ENDBRANCH   4  25
TORSDOF 5
ENDMDL
MODEL 8
REMARK VINA RESULT:      -7.7      3.980      9.727
REMARK  5 active torsions:
REMARK  status: ('A' for Active; 'I' for Inactive)
REMARK       I    between atoms: C_2  and  N_3 
REMARK    1  A    between atoms: N_3  and  C_4 
REMARK    2  A    between atoms: C_7  and  C_8 
REMARK    3  A    between atoms: C_8  and  N_9 
REMARK    4  A    between atoms: C_12  and  C_13 
REMARK    5  A    between atoms: C_14  and  O_15 
ROOT
HETATM    1  N   UNL     1       7.749  29.261  57.400  1.00  0.00    -0.060 N 
HETATM    2  H   UNL     1       8.117  29.053  56.467  1.00  0.00     0.280 HD
HETATM    3  C   UNL     1       6.324  29.805  57.251  1.00  0.00     0.272 C 
HETATM    4  C   UNL     1       5.337  28.901  56.468  1.00  0.00     0.190 C 
HETATM    5  O   UNL     1       5.118  27.664  57.186  1.00  0.00    -0.339 OA
HETATM    6  C   UNL     1       6.028  26.680  56.922  1.00  0.00     0.077 A 
HETATM    7  C   UNL     1       7.351  26.784  57.346  1.00  0.00     0.001 A 
HETATM    8  C   UNL     1       7.790  27.957  58.159  1.00  0.00     0.276 C 
HETATM    9  C   UNL     1       5.567  25.522  56.298  1.00  0.00     0.037 A 
HETATM   10  C   UNL     1       6.450  24.483  56.019  1.00  0.00     0.003 A 
HETATM   11  C   UNL     1       7.787  24.593  56.389  1.00  0.00     0.001 A 
HETATM   12  C   UNL     1       8.237  25.734  57.057  1.00  0.00     0.012 A 
ENDROOT
BRANCH   1  13
HETATM   13  C   UNL     1       8.687  30.259  58.047  1.00  0.00     0.273 C 
BRANCH  13  14
HETATM   14  C   UNL     1       8.157  30.909  59.296  1.00  0.00    -0.032 A 
HETATM   15  C   UNL     1       8.672  30.545  60.547  1.00  0.00     0.011 A 
HETATM   16  C   UNL     1       8.198  31.145  61.719  1.00  0.00     0.030 A 
HETATM   17  C   UNL     1       7.210  32.126  61.668  1.00  0.00     0.034 A 
HETATM   18  C   UNL     1       6.692  32.490  60.418  1.00  0.00     0.030 A 
HETATM   19  C   UNL     1       7.156  31.886  59.242  1.00  0.00     0.011 A 
BRANCH  17  20
HETATM   20  N   UNL     1       6.708  32.796  62.803  1.00  0.00    -0.328 N 
HETATM   21  C   UNL     1       5.615  32.431  63.573  1.00  0.00     0.218 C 
HETATM   22  C   UNL     1       5.403  33.338  64.760  1.00  0.00     0.117 C 
HETATM   23  O   UNL     1       4.875  31.473  63.380  1.00  0.00    -0.274 OA
HETATM   24  H   UNL     1       7.208  33.626  63.094  1.00  0.00     0.169 HD
ENDBRANCH  17  20
ENDBRANCH  13  14
ENDBRANCH   1  13
BRANCH   4  25
HETATM   25  C   UNL     1       5.495  28.777  54.946  1.00  0.00     0.006 A 
HETATM   26  C   UNL     1       4.537  29.389  54.100  1.00  0.00     0.077 A 
HETATM   27  C   UNL     1       4.641  29.266  52.711  1.00  0.00     0.037 A 
HETATM   28  C   UNL     1       5.705  28.572  52.141  1.00  0.00     0.003 A 
HETATM   29  C   UNL     1       6.684  28.017  52.955  1.00  0.00     0.001 A 
HETATM   30  C   UNL     1       6.588  28.128  54.343  1.00  0.00     0.012 A 
BRANCH  26  31
HETATM   31  O   UNL     1       3.555  30.107  54.735  1.00  0.00    -0.355 OA
HETATM   32  C   UNL     1       3.066  31.278  54.089  1.00  0.00     0.210 C 
ENDBRANCH  26  31
ENDBRANCH   4  25
TORSDOF 5
ENDMDL
MODEL 9
REMARK VINA RESULT:      -7.1     10.280     12.917
REMARK  5 active torsions:
REMARK  status: ('A' for Active; 'I' for Inactive)
REMARK       I    between atoms: C_2  and  N_3 
REMARK    1  A    between atoms: N_3  and  C_4 
REMARK    2  A    between atoms: C_7  and  C_8 
REMARK    3  A    between atoms: C_8  and  N_9 
REMARK    4  A    between atoms: C_12  and  C_13 
REMARK    5  A    between atoms: C_14  and  O_15 
ROOT
HETATM    1  N   UNL     1       4.532  29.039  52.334  1.00  0.00    -0.060 N 
HETATM    2  H   UNL     1       5.353  29.283  51.772  1.00  0.00     0.280 HD
HETATM    3  C   UNL     1       3.514  30.179  52.228  1.00  0.00     0.272 C 
HETATM    4  C   UNL     1       3.089  30.572  50.789  1.00  0.00     0.190 C 
HETATM    5  O   UNL     1       2.384  29.474  50.162  1.00  0.00    -0.339 OA
HETATM    6  C   UNL     1       3.186  28.560  49.539  1.00  0.00     0.077 A 
HETATM    7  C   UNL     1       4.020  27.713  50.266  1.00  0.00     0.001 A 
HETATM    8  C   UNL     1       4.008  27.746  51.759  1.00  0.00     0.276 C 
HETATM    9  C   UNL     1       3.072  28.435  48.156  1.00  0.00     0.037 A 
HETATM   10  C   UNL     1       3.856  27.509  47.473  1.00  0.00     0.003 A 
HETATM   11  C   UNL     1       4.734  26.692  48.179  1.00  0.00     0.001 A 
HETATM   12  C   UNL     1       4.811  26.785  49.570  1.00  0.00     0.012 A 
ENDROOT
BRANCH   1  13
HETATM   13  C   UNL     1       5.004  28.812  53.755  1.00  0.00     0.273 C 
BRANCH  13  14
HETATM   14  C   UNL     1       5.820  27.565  53.960  1.00  0.00    -0.032 A 
HETATM   15  C   UNL     1       7.006  27.378  53.237  1.00  0.00     0.011 A 
HETATM   16  C   UNL     1       7.783  26.229  53.421  1.00  0.00     0.030 A 
HETATM   17  C   UNL     1       7.399  25.247  54.333  1.00  0.00     0.034 A 
HETATM   18  C   UNL     1       6.212  25.431  55.054  1.00  0.00     0.030 A 
HETATM   19  C   UNL     1       5.426  26.575  54.868  1.00  0.00     0.011 A 
BRANCH  17  20
HETATM   20  N   UNL     1       8.148  24.080  54.593  1.00  0.00    -0.328 N 
HETATM   21  C   UNL     1       8.185  22.924  53.829  1.00  0.00     0.218 C 
HETATM   22  C   UNL     1       9.152  21.897  54.365  1.00  0.00     0.117 C 
HETATM   23  O   UNL     1       7.547  22.707  52.805  1.00  0.00    -0.274 OA
HETATM   24  H   UNL     1       8.730  24.093  55.420  1.00  0.00     0.169 HD
ENDBRANCH  17  20
ENDBRANCH  13  14
ENDBRANCH   1  13
BRANCH   4  25
HETATM   25  C   UNL     1       4.090  31.325  49.901  1.00  0.00     0.006 A 
HETATM   26  C   UNL     1       3.601  32.162  48.868  1.00  0.00     0.077 A 
HETATM   27  C   UNL     1       4.491  32.836  48.025  1.00  0.00     0.037 A 
HETATM   28  C   UNL     1       5.867  32.720  48.214  1.00  0.00     0.003 A 
HETATM   29  C   UNL     1       6.360  31.950  49.259  1.00  0.00     0.001 A 
HETATM   30  C   UNL     1       5.481  31.268  50.103  1.00  0.00     0.012 A 
BRANCH  26  31
HETATM   31  O   UNL     1       2.236  32.273  48.787  1.00  0.00    -0.355 OA
HETATM   32  C   UNL     1       1.610  31.885  47.569  1.00  0.00     0.210 C 
ENDBRANCH  26  31
ENDBRANCH   4  25
TORSDOF 5
ENDMDL
MODEL 10
REMARK VINA RESULT:      -6.9      8.080     11.200
REMARK  5 active torsions:
REMARK  status: ('A' for Active; 'I' for Inactive)
REMARK       I    between atoms: C_2  and  N_3 
REMARK    1  A    between atoms: N_3  and  C_4 
REMARK    2  A    between atoms: C_7  and  C_8 
REMARK    3  A    between atoms: C_8  and  N_9 
REMARK    4  A    between atoms: C_12  and  C_13 
REMARK    5  A    between atoms: C_14  and  O_15 
ROOT
HETATM    1  N   UNL     1       4.981  28.890  54.437  1.00  0.00    -0.060 N 
HETATM    2  H   UNL     1       5.748  28.736  53.775  1.00  0.00     0.280 HD
HETATM    3  C   UNL     1       4.338  27.538  54.761  1.00  0.00     0.272 C 
HETATM    4  C   UNL     1       5.301  26.444  55.291  1.00  0.00     0.190 C 
HETATM    5  O   UNL     1       5.844  26.839  56.574  1.00  0.00    -0.339 OA
HETATM    6  C   UNL     1       6.967  27.614  56.507  1.00  0.00     0.077 A 
HETATM    7  C   UNL     1       6.915  28.924  56.036  1.00  0.00     0.001 A 
HETATM    8  C   UNL     1       5.607  29.534  55.650  1.00  0.00     0.276 C 
HETATM    9  C   UNL     1       8.151  27.084  57.015  1.00  0.00     0.037 A 
HETATM   10  C   UNL     1       9.321  27.838  56.983  1.00  0.00     0.003 A 
HETATM   11  C   UNL     1       9.298  29.130  56.468  1.00  0.00     0.001 A 
HETATM   12  C   UNL     1       8.100  29.677  56.003  1.00  0.00     0.012 A 
ENDROOT
BRANCH   1  13
HETATM   13  C   UNL     1       4.009  29.855  53.791  1.00  0.00     0.273 C 
BRANCH  13  14
HETATM   14  C   UNL     1       4.140  29.982  52.298  1.00  0.00    -0.032 A 
HETATM   15  C   UNL     1       5.330  29.598  51.665  1.00  0.00     0.011 A 
HETATM   16  C   UNL     1       5.468  29.700  50.277  1.00  0.00     0.030 A 
HETATM   17  C   UNL     1       4.421  30.177  49.490  1.00  0.00     0.034 A 
HETATM   18  C   UNL     1       3.232  30.564  50.121  1.00  0.00     0.030 A 
HETATM   19  C   UNL     1       3.092  30.473  51.512  1.00  0.00     0.011 A 
BRANCH  17  20
HETATM   20  N   UNL     1       4.478  30.277  48.084  1.00  0.00    -0.328 N 
HETATM   21  C   UNL     1       4.716  31.420  47.336  1.00  0.00     0.218 C 
HETATM   22  C   UNL     1       4.778  31.149  45.853  1.00  0.00     0.117 C 
HETATM   23  O   UNL     1       4.891  32.552  47.772  1.00  0.00    -0.274 OA
HETATM   24  H   UNL     1       4.342  29.419  47.565  1.00  0.00     0.169 HD
ENDBRANCH  17  20
ENDBRANCH  13  14
ENDBRANCH   1  13
BRANCH   4  25
HETATM   25  C   UNL     1       6.289  25.790  54.315  1.00  0.00     0.006 A 
HETATM   26  C   UNL     1       6.944  24.592  54.694  1.00  0.00     0.077 A 
HETATM   27  C   UNL     1       7.871  23.992  53.836  1.00  0.00     0.037 A 
HETATM   28  C   UNL     1       8.134  24.544  52.584  1.00  0.00     0.003 A 
HETATM   29  C   UNL     1       7.457  25.685  52.174  1.00  0.00     0.001 A 
HETATM   30  C   UNL     1       6.534  26.296  53.025  1.00  0.00     0.012 A 
BRANCH  26  31
HETATM   31  O   UNL     1       6.584  24.077  55.914  1.00  0.00    -0.355 OA
HETATM   32  C   UNL     1       7.625  23.680  56.800  1.00  0.00     0.210 C 
ENDBRANCH  26  31
ENDBRANCH   4  25
TORSDOF 5
ENDMDL
