MODEL 1
REMARK VINA RESULT:     -10.4      0.000      0.000
REMARK  6 active torsions:
REMARK  status: ('A' for Active; 'I' for Inactive)
REMARK    1  A    between atoms: N_9  and  C_10 
REMARK    2  A    between atoms: C_10  and  C_11 
REMARK       I    between atoms: C_11  and  N_12 
REMARK    3  A    between atoms: N_12  and  C_13 
REMARK    4  A    between atoms: C_16  and  C_17 
REMARK       I    between atoms: C_17  and  N_18 
REMARK    5  A    between atoms: N_18  and  C_19 
REMARK    6  A    between atoms: C_20  and  O_21 
ROOT
HETATM    1  C   UNL     1       6.333  27.414  54.246  1.00  0.00     0.240 C 
HETATM    2  N   UNL     1       6.289  27.406  55.632  1.00  0.00    -0.326 N 
HETATM    3  O   UNL     1       6.815  28.311  53.557  1.00  0.00    -0.271 OA
HETATM    4  H   UNL     1       6.098  26.510  56.077  1.00  0.00     0.169 HD
ENDROOT
BRANCH   2   5
HETATM    5  C   UNL     1       6.556  28.482  56.502  1.00  0.00     0.034 A 
HETATM    6  C   UNL     1       5.801  29.657  56.542  1.00  0.00     0.030 A 
HETATM    7  C   UNL     1       6.099  30.668  57.465  1.00  0.00     0.019 A 
HETATM    8  C   UNL     1       7.160  30.512  58.362  1.00  0.00     0.032 A 
HETATM    9  C   UNL     1       7.915  29.335  58.331  1.00  0.00     0.019 A 
HETATM   10  C   UNL     1       7.618  28.331  57.402  1.00  0.00     0.030 A 
BRANCH   8  11
HETATM   11  C   UNL     1       7.465  31.543  59.395  1.00  0.00     0.256 C 
HETATM   12  N   UNL     1       6.555  31.607  60.437  1.00  0.00    -0.321 N 
HETATM   13  H   UNL     1       5.617  31.292  60.231  1.00  0.00     0.169 HD
HETATM   14  O   UNL     1       8.413  32.298  59.209  1.00  0.00    -0.267 OA
BRANCH  12  15
HETATM   15  C   UNL     1       6.728  32.351  61.627  1.00  0.00     0.068 A 
HETATM   16  C   UNL     1       5.966  33.485  61.962  1.00  0.00     0.095 A 
HETATM   17  C   UNL     1       6.210  34.155  63.169  1.00  0.00     0.039 A 
HETATM   18  C   UNL     1       7.207  33.707  64.037  1.00  0.00     0.003 A 
HETATM   19  C   UNL     1       7.989  32.610  63.690  1.00  0.00     0.002 A 
HETATM   20  C   UNL     1       7.761  31.944  62.483  1.00  0.00     0.032 A 
BRANCH  16  21
HETATM   21  O   UNL     1       5.130  34.022  61.015  1.00  0.00    -0.354 OA
HETATM   22  C   UNL     1       4.627  35.313  61.344  1.00  0.00     0.210 C 
ENDBRANCH  16  21
ENDBRANCH  12  15
ENDBRANCH   8  11
ENDBRANCH   2   5
BRANCH   1  23
HETATM   23  C   UNL     1       5.888  26.105  53.592  1.00  0.00     0.240 C 
BRANCH  23  24
HETATM   24  N   UNL     1       6.866  25.041  53.711  1.00  0.00    -0.259 N 
HETATM   25  C   UNL     1       7.909  24.853  52.869  1.00  0.00     0.326 A 
HETATM   26  N   UNL     1       8.564  23.703  53.222  1.00  0.00    -0.324 N 
HETATM   27  O   UNL     1       8.266  25.615  51.985  1.00  0.00    -0.247 OA
HETATM   28  C   UNL     1       8.059  23.129  54.458  1.00  0.00     0.116 A 
HETATM   29  H   UNL     1       9.418  23.426  52.753  1.00  0.00     0.165 HD
HETATM   30  C   UNL     1       9.121  23.253  55.555  1.00  0.00     0.041 C 
HETATM   31  C   UNL     1       6.877  24.098  54.701  1.00  0.00     0.256 A 
HETATM   32  C   UNL     1       7.568  21.698  54.232  1.00  0.00     0.041 C 
HETATM   33  C   UNL     1       8.762  22.494  56.832  1.00  0.00     0.007 C 
HETATM   34  C   UNL     1       8.349  21.040  56.578  1.00  0.00    -0.019 C 
HETATM   35  C   UNL     1       9.543  20.167  56.184  1.00  0.00     0.010 C 
HETATM   36  C   UNL     1       7.227  20.970  55.535  1.00  0.00     0.007 C 
HETATM   37  O   UNL     1       6.088  24.038  55.633  1.00  0.00    -0.270 OA
ENDBRANCH  23  24
ENDBRANCH   1  23
TORSDOF 6
ENDMDL
MODEL 2
REMARK VINA RESULT:     -10.3      2.087     10.926
REMARK  6 active torsions:
REMARK  status: ('A' for Active; 'I' for Inactive)
REMARK    1  A    between atoms: N_9  and  C_10 
REMARK    2  A    between atoms: C_10  and  C_11 
REMARK       I    between atoms: C_11  and  N_12 
REMARK    3  A    between atoms: N_12  and  C_13 
REMARK    4  A    between atoms: C_16  and  C_17 
REMARK       I    between atoms: C_17  and  N_18 
REMARK    5  A    between atoms: N_18  and  C_19 
REMARK    6  A    between atoms: C_20  and  O_21 
ROOT
HETATM    1  C   UNL     1       5.155  30.837  57.518  1.00  0.00     0.240 C 
HETATM    2  N   UNL     1       4.874  29.501  57.759  1.00  0.00    -0.326 N 
HETATM    3  O   UNL     1       6.028  31.252  56.758  1.00  0.00    -0.271 OA
HETATM    4  H   UNL     1       3.981  29.296  58.202  1.00  0.00     0.169 HD
ENDROOT
BRANCH   2   5
HETATM    5  C   UNL     1       5.650  28.384  57.390  1.00  0.00     0.034 A 
HETATM    6  C   UNL     1       6.988  28.211  57.753  1.00  0.00     0.030 A 
HETATM    7  C   UNL     1       7.685  27.053  57.387  1.00  0.00     0.019 A 
HETATM    8  C   UNL     1       7.046  26.050  56.651  1.00  0.00     0.032 A 
HETATM    9  C   UNL     1       5.705  26.214  56.290  1.00  0.00     0.019 A 
HETATM   10  C   UNL     1       5.015  27.377  56.653  1.00  0.00     0.030 A 
BRANCH   8  11
HETATM   11  C   UNL     1       7.743  24.780  56.296  1.00  0.00     0.256 C 
HETATM   12  N   UNL     1       6.966  23.865  55.604  1.00  0.00    -0.321 N 
HETATM   13  H   UNL     1       5.968  23.925  55.752  1.00  0.00     0.169 HD
HETATM   14  O   UNL     1       8.885  24.602  56.708  1.00  0.00    -0.267 OA
BRANCH  12  15
HETATM   15  C   UNL     1       7.447  22.688  54.987  1.00  0.00     0.068 A 
HETATM   16  C   UNL     1       7.589  22.533  53.596  1.00  0.00     0.095 A 
HETATM   17  C   UNL     1       8.080  21.326  53.078  1.00  0.00     0.039 A 
HETATM   18  C   UNL     1       8.422  20.277  53.932  1.00  0.00     0.003 A 
HETATM   19  C   UNL     1       8.245  20.413  55.305  1.00  0.00     0.002 A 
HETATM   20  C   UNL     1       7.745  21.608  55.830  1.00  0.00     0.032 A 
BRANCH  16  21
HETATM   21  O   UNL     1       7.069  23.495  52.768  1.00  0.00    -0.354 OA
HETATM   22  C   UNL     1       8.017  24.463  52.329  1.00  0.00     0.210 C 
ENDBRANCH  16  21
ENDBRANCH  12  15
ENDBRANCH   8  11
ENDBRANCH   2   5
BRANCH   1  23
HETATM   23  C   UNL     1       4.157  31.815  58.139  1.00  0.00     0.240 C 
BRANCH  23  24
HETATM   24  N   UNL     1       4.252  31.895  59.584  1.00  0.00    -0.259 N 
HETATM   25  C   UNL     1       3.358  31.360  60.448  1.00  0.00     0.326 A 
HETATM   26  N   UNL     1       3.708  31.711  61.724  1.00  0.00    -0.324 N 
HETATM   27  O   UNL     1       2.432  30.620  60.157  1.00  0.00    -0.247 OA
HETATM   28  C   UNL     1       4.988  32.395  61.785  1.00  0.00     0.116 A 
HETATM   29  H   UNL     1       3.199  31.347  62.522  1.00  0.00     0.165 HD
HETATM   30  C   UNL     1       6.018  31.502  62.484  1.00  0.00     0.041 C 
HETATM   31  C   UNL     1       5.269  32.502  60.267  1.00  0.00     0.256 A 
HETATM   32  C   UNL     1       4.836  33.778  62.422  1.00  0.00     0.041 C 
HETATM   33  C   UNL     1       7.337  32.216  62.779  1.00  0.00     0.007 C 
HETATM   34  C   UNL     1       7.152  33.563  63.488  1.00  0.00    -0.019 C 
HETATM   35  C   UNL     1       6.717  33.387  64.944  1.00  0.00     0.010 C 
HETATM   36  C   UNL     1       6.178  34.455  62.709  1.00  0.00     0.007 C 
HETATM   37  O   UNL     1       6.246  33.034  59.760  1.00  0.00    -0.270 OA
ENDBRANCH  23  24
ENDBRANCH   1  23
TORSDOF 6
ENDMDL
MODEL 3
REMARK VINA RESULT:     -10.2      1.769     11.286
REMARK  6 active torsions:
REMARK  status: ('A' for Active; 'I' for Inactive)
REMARK    1  A    between atoms: N_9  and  C_10 
REMARK    2  A    between atoms: C_10  and  C_11 
REMARK       I    between atoms: C_11  and  N_12 
REMARK    3  A    between atoms: N_12  and  C_13 
REMARK    4  A    between atoms: C_16  and  C_17 
REMARK       I    between atoms: C_17  and  N_18 
REMARK    5  A    between atoms: N_18  and  C_19 
REMARK    6  A    between atoms: C_20  and  O_21 
ROOT
HETATM    1  C   UNL     1       7.366  30.875  58.380  1.00  0.00     0.240 C 
HETATM    2  N   UNL     1       8.186  29.811  58.036  1.00  0.00    -0.326 N 
HETATM    3  O   UNL     1       6.152  30.927  58.187  1.00  0.00    -0.271 OA
HETATM    4  H   UNL     1       9.106  29.786  58.471  1.00  0.00     0.169 HD
ENDROOT
BRANCH   2   5
HETATM    5  C   UNL     1       7.863  28.715  57.211  1.00  0.00     0.034 A 
HETATM    6  C   UNL     1       7.841  28.771  55.815  1.00  0.00     0.030 A 
HETATM    7  C   UNL     1       7.554  27.628  55.058  1.00  0.00     0.019 A 
HETATM    8  C   UNL     1       7.285  26.412  55.693  1.00  0.00     0.032 A 
HETATM    9  C   UNL     1       7.312  26.348  57.089  1.00  0.00     0.019 A 
HETATM   10  C   UNL     1       7.593  27.495  57.843  1.00  0.00     0.030 A 
BRANCH   8  11
HETATM   11  C   UNL     1       7.033  25.165  54.914  1.00  0.00     0.256 C 
HETATM   12  N   UNL     1       8.094  24.275  54.886  1.00  0.00    -0.321 N 
HETATM   13  H   UNL     1       9.015  24.673  55.009  1.00  0.00     0.169 HD
HETATM   14  O   UNL     1       5.978  25.060  54.298  1.00  0.00    -0.267 OA
BRANCH  12  15
HETATM   15  C   UNL     1       8.036  22.951  54.393  1.00  0.00     0.068 A 
HETATM   16  C   UNL     1       7.837  21.819  55.203  1.00  0.00     0.095 A 
HETATM   17  C   UNL     1       7.790  20.545  54.619  1.00  0.00     0.039 A 
HETATM   18  C   UNL     1       7.943  20.394  53.240  1.00  0.00     0.003 A 
HETATM   19  C   UNL     1       8.180  21.508  52.441  1.00  0.00     0.002 A 
HETATM   20  C   UNL     1       8.241  22.780  53.016  1.00  0.00     0.032 A 
BRANCH  16  21
HETATM   21  O   UNL     1       7.882  21.967  56.567  1.00  0.00    -0.354 OA
HETATM   22  C   UNL     1       8.590  20.933  57.243  1.00  0.00     0.210 C 
ENDBRANCH  16  21
ENDBRANCH  12  15
ENDBRANCH   8  11
ENDBRANCH   2   5
BRANCH   1  23
HETATM   23  C   UNL     1       8.052  31.958  59.214  1.00  0.00     0.240 C 
BRANCH  23  24
HETATM   24  N   UNL     1       7.702  31.910  60.620  1.00  0.00    -0.259 N 
HETATM   25  C   UNL     1       8.213  31.030  61.514  1.00  0.00     0.326 A 
HETATM   26  N   UNL     1       7.589  31.208  62.720  1.00  0.00    -0.324 N 
HETATM   27  O   UNL     1       9.133  30.253  61.312  1.00  0.00    -0.247 OA
HETATM   28  C   UNL     1       6.707  32.362  62.728  1.00  0.00     0.116 A 
HETATM   29  H   UNL     1       7.883  30.689  63.539  1.00  0.00     0.165 HD
HETATM   30  C   UNL     1       7.283  33.445  63.645  1.00  0.00     0.041 C 
HETATM   31  C   UNL     1       6.827  32.760  61.237  1.00  0.00     0.256 A 
HETATM   32  C   UNL     1       5.276  31.951  63.081  1.00  0.00     0.041 C 
HETATM   33  C   UNL     1       6.324  34.612  63.879  1.00  0.00     0.007 C 
HETATM   34  C   UNL     1       4.921  34.168  64.307  1.00  0.00    -0.019 C 
HETATM   35  C   UNL     1       4.903  33.634  65.742  1.00  0.00     0.010 C 
HETATM   36  C   UNL     1       4.351  33.147  63.315  1.00  0.00     0.007 C 
HETATM   37  O   UNL     1       6.242  33.690  60.699  1.00  0.00    -0.270 OA
ENDBRANCH  23  24
ENDBRANCH   1  23
TORSDOF 6
ENDMDL
MODEL 4
REMARK VINA RESULT:     -10.2      1.814      2.385
REMARK  6 active torsions:
REMARK  status: ('A' for Active; 'I' for Inactive)
REMARK    1  A    between atoms: N_9  and  C_10 
REMARK    2  A    between atoms: C_10  and  C_11 
REMARK       I    between atoms: C_11  and  N_12 
REMARK    3  A    between atoms: N_12  and  C_13 
REMARK    4  A    between atoms: C_16  and  C_17 
REMARK       I    between atoms: C_17  and  N_18 
REMARK    5  A    between atoms: N_18  and  C_19 
REMARK    6  A    between atoms: C_20  and  O_21 
ROOT
HETATM    1  C   UNL     1       4.764  28.639  55.020  1.00  0.00     0.240 C 
HETATM    2  N   UNL     1       5.465  29.813  55.249  1.00  0.00    -0.326 N 
HETATM    3  O   UNL     1       3.847  28.212  55.719  1.00  0.00    -0.271 OA
HETATM    4  H   UNL     1       6.015  30.175  54.474  1.00  0.00     0.169 HD
ENDROOT
BRANCH   2   5
HETATM    5  C   UNL     1       5.441  30.609  56.413  1.00  0.00     0.034 A 
HETATM    6  C   UNL     1       4.448  31.551  56.692  1.00  0.00     0.030 A 
HETATM    7  C   UNL     1       4.465  32.276  57.891  1.00  0.00     0.019 A 
HETATM    8  C   UNL     1       5.481  32.062  58.827  1.00  0.00     0.032 A 
HETATM    9  C   UNL     1       6.474  31.115  58.557  1.00  0.00     0.019 A 
HETATM   10  C   UNL     1       6.456  30.399  57.354  1.00  0.00     0.030 A 
BRANCH   8  11
HETATM   11  C   UNL     1       5.495  32.774  60.138  1.00  0.00     0.256 C 
HETATM   12  N   UNL     1       5.872  31.993  61.218  1.00  0.00    -0.321 N 
HETATM   13  H   UNL     1       5.706  31.000  61.131  1.00  0.00     0.169 HD
HETATM   14  O   UNL     1       5.096  33.933  60.181  1.00  0.00    -0.267 OA
BRANCH  12  15
HETATM   15  C   UNL     1       6.155  32.478  62.516  1.00  0.00     0.068 A 
HETATM   16  C   UNL     1       5.171  32.801  63.466  1.00  0.00     0.095 A 
HETATM   17  C   UNL     1       5.552  33.272  64.731  1.00  0.00     0.039 A 
HETATM   18  C   UNL     1       6.901  33.427  65.049  1.00  0.00     0.003 A 
HETATM   19  C   UNL     1       7.877  33.147  64.098  1.00  0.00     0.002 A 
HETATM   20  C   UNL     1       7.505  32.689  62.831  1.00  0.00     0.032 A 
BRANCH  16  21
HETATM   21  O   UNL     1       3.856  32.826  63.072  1.00  0.00    -0.354 OA
HETATM   22  C   UNL     1       3.218  34.087  63.248  1.00  0.00     0.210 C 
ENDBRANCH  16  21
ENDBRANCH  12  15
ENDBRANCH   8  11
ENDBRANCH   2   5
BRANCH   1  23
HETATM   23  C   UNL     1       5.089  27.960  53.688  1.00  0.00     0.240 C 
BRANCH  23  24
HETATM   24  N   UNL     1       6.230  27.069  53.759  1.00  0.00    -0.259 N 
HETATM   25  C   UNL     1       7.523  27.467  53.740  1.00  0.00     0.326 A 
HETATM   26  N   UNL     1       8.330  26.360  53.723  1.00  0.00    -0.324 N 
HETATM   27  O   UNL     1       7.922  28.619  53.804  1.00  0.00    -0.247 OA
HETATM   28  C   UNL     1       7.585  25.124  53.892  1.00  0.00     0.116 A 
HETATM   29  H   UNL     1       9.337  26.450  53.778  1.00  0.00     0.165 HD
HETATM   30  C   UNL     1       7.922  24.500  55.250  1.00  0.00     0.041 C 
HETATM   31  C   UNL     1       6.152  25.709  53.876  1.00  0.00     0.256 A 
HETATM   32  C   UNL     1       7.815  24.185  52.706  1.00  0.00     0.041 C 
HETATM   33  C   UNL     1       7.347  23.095  55.429  1.00  0.00     0.007 C 
HETATM   34  C   UNL     1       7.662  22.156  54.258  1.00  0.00    -0.019 C 
HETATM   35  C   UNL     1       9.136  21.743  54.239  1.00  0.00     0.010 C 
HETATM   36  C   UNL     1       7.233  22.787  52.928  1.00  0.00     0.007 C 
HETATM   37  O   UNL     1       5.119  25.061  53.966  1.00  0.00    -0.270 OA
ENDBRANCH  23  24
ENDBRANCH   1  23
TORSDOF 6
ENDMDL
MODEL 5
REMARK VINA RESULT:     -10.1      2.754      4.795
REMARK  6 active torsions:
REMARK  status: ('A' for Active; 'I' for Inactive)
REMARK    1  A    between atoms: N_9  and  C_10 
REMARK    2  A    between atoms: C_10  and  C_11 
REMARK       I    between atoms: C_11  and  N_12 
REMARK    3  A    between atoms: N_12  and  C_13 
REMARK    4  A    between atoms: C_16  and  C_17 
REMARK       I    between atoms: C_17  and  N_18 
REMARK    5  A    between atoms: N_18  and  C_19 
REMARK    6  A    between atoms: C_20  and  O_21 
ROOT
HETATM    1  C   UNL     1       7.996  29.326  58.123  1.00  0.00     0.240 C 
HETATM    2  N   UNL     1       8.723  30.029  59.071  1.00  0.00    -0.326 N 
HETATM    3  O   UNL     1       6.790  29.453  57.916  1.00  0.00    -0.271 OA
HETATM    4  H   UNL     1       9.736  30.017  58.970  1.00  0.00     0.169 HD
ENDROOT
BRANCH   2   5
HETATM    5  C   UNL     1       8.217  30.826  60.118  1.00  0.00     0.034 A 
HETATM    6  C   UNL     1       8.707  30.798  61.426  1.00  0.00     0.030 A 
HETATM    7  C   UNL     1       8.183  31.651  62.405  1.00  0.00     0.019 A 
HETATM    8  C   UNL     1       7.159  32.547  62.083  1.00  0.00     0.032 A 
HETATM    9  C   UNL     1       6.669  32.584  60.774  1.00  0.00     0.019 A 
HETATM   10  C   UNL     1       7.191  31.725  59.800  1.00  0.00     0.030 A 
BRANCH   8  11
HETATM   11  C   UNL     1       6.621  33.508  63.088  1.00  0.00     0.256 C 
HETATM   12  N   UNL     1       6.069  32.922  64.215  1.00  0.00    -0.321 N 
HETATM   13  H   UNL     1       5.709  31.984  64.099  1.00  0.00     0.169 HD
HETATM   14  O   UNL     1       6.621  34.704  62.816  1.00  0.00    -0.267 OA
BRANCH  12  15
HETATM   15  C   UNL     1       5.681  33.611  65.387  1.00  0.00     0.068 A 
HETATM   16  C   UNL     1       4.369  34.045  65.645  1.00  0.00     0.095 A 
HETATM   17  C   UNL     1       4.081  34.719  66.841  1.00  0.00     0.039 A 
HETATM   18  C   UNL     1       5.089  34.965  67.773  1.00  0.00     0.003 A 
HETATM   19  C   UNL     1       6.396  34.572  67.503  1.00  0.00     0.002 A 
HETATM   20  C   UNL     1       6.694  33.911  66.309  1.00  0.00     0.032 A 
BRANCH  16  21
HETATM   21  O   UNL     1       3.438  33.968  64.639  1.00  0.00    -0.354 OA
HETATM   22  C   UNL     1       3.302  35.162  63.875  1.00  0.00     0.210 C 
ENDBRANCH  16  21
ENDBRANCH  12  15
ENDBRANCH   8  11
ENDBRANCH   2   5
BRANCH   1  23
HETATM   23  C   UNL     1       8.846  28.473  57.180  1.00  0.00     0.240 C 
BRANCH  23  24
HETATM   24  N   UNL     1       8.106  27.395  56.554  1.00  0.00    -0.259 N 
HETATM   25  C   UNL     1       7.823  26.209  57.143  1.00  0.00     0.326 A 
HETATM   26  N   UNL     1       7.201  25.397  56.232  1.00  0.00    -0.324 N 
HETATM   27  O   UNL     1       8.016  25.923  58.314  1.00  0.00    -0.247 OA
HETATM   28  C   UNL     1       6.890  26.086  54.991  1.00  0.00     0.116 A 
HETATM   29  H   UNL     1       6.845  24.488  56.503  1.00  0.00     0.165 HD
HETATM   30  C   UNL     1       5.373  26.245  54.855  1.00  0.00     0.041 C 
HETATM   31  C   UNL     1       7.577  27.439  55.295  1.00  0.00     0.256 A 
HETATM   32  C   UNL     1       7.547  25.383  53.801  1.00  0.00     0.041 C 
HETATM   33  C   UNL     1       4.940  26.771  53.487  1.00  0.00     0.007 C 
HETATM   34  C   UNL     1       5.555  25.996  52.316  1.00  0.00    -0.019 C 
HETATM   35  C   UNL     1       4.942  24.601  52.170  1.00  0.00     0.010 C 
HETATM   36  C   UNL     1       7.081  25.933  52.451  1.00  0.00     0.007 C 
HETATM   37  O   UNL     1       7.628  28.397  54.536  1.00  0.00    -0.270 OA
ENDBRANCH  23  24
ENDBRANCH   1  23
TORSDOF 6
ENDMDL
MODEL 6
REMARK VINA RESULT:     -10.0      2.466      3.812
REMARK  6 active torsions:
REMARK  status: ('A' for Active; 'I' for Inactive)
REMARK    1  A    between atoms: N_9  and  C_10 
REMARK    2  A    between atoms: C_10  and  C_11 
REMARK       I    between atoms: C_11  and  N_12 
REMARK    3  A    between atoms: N_12  and  C_13 
REMARK    4  A    between atoms: C_16  and  C_17 
REMARK       I    between atoms: C_17  and  N_18 
REMARK    5  A    between atoms: N_18  and  C_19 
REMARK    6  A    between atoms: C_20  and  O_21 
ROOT
HETATM    1  C   UNL     1       4.820  29.976  55.441  1.00  0.00     0.240 C 
HETATM    2  N   UNL     1       5.375  31.175  55.861  1.00  0.00    -0.326 N 
HETATM    3  O   UNL     1       4.095  29.252  56.121  1.00  0.00    -0.271 OA
HETATM    4  H   UNL     1       5.739  31.788  55.135  1.00  0.00     0.169 HD
ENDROOT
BRANCH   2   5
HETATM    5  C   UNL     1       5.425  31.678  57.176  1.00  0.00     0.034 A 
HETATM    6  C   UNL     1       6.462  31.414  58.074  1.00  0.00     0.030 A 
HETATM    7  C   UNL     1       6.466  31.986  59.352  1.00  0.00     0.019 A 
HETATM    8  C   UNL     1       5.426  32.833  59.747  1.00  0.00     0.032 A 
HETATM    9  C   UNL     1       4.388  33.107  58.852  1.00  0.00     0.019 A 
HETATM   10  C   UNL     1       4.385  32.527  57.577  1.00  0.00     0.030 A 
BRANCH   8  11
HETATM   11  C   UNL     1       5.432  33.504  61.080  1.00  0.00     0.256 C 
HETATM   12  N   UNL     1       5.686  32.663  62.151  1.00  0.00    -0.321 N 
HETATM   13  H   UNL     1       5.442  31.690  62.023  1.00  0.00     0.169 HD
HETATM   14  O   UNL     1       5.130  34.691  61.141  1.00  0.00    -0.267 OA
BRANCH  12  15
HETATM   15  C   UNL     1       5.941  33.084  63.476  1.00  0.00     0.068 A 
HETATM   16  C   UNL     1       4.938  33.322  64.432  1.00  0.00     0.095 A 
HETATM   17  C   UNL     1       5.292  33.735  65.725  1.00  0.00     0.039 A 
HETATM   18  C   UNL     1       6.633  33.916  66.066  1.00  0.00     0.003 A 
HETATM   19  C   UNL     1       7.625  33.720  65.112  1.00  0.00     0.002 A 
HETATM   20  C   UNL     1       7.281  33.320  63.817  1.00  0.00     0.032 A 
BRANCH  16  21
HETATM   21  O   UNL     1       3.627  33.328  64.026  1.00  0.00    -0.354 OA
HETATM   22  C   UNL     1       3.037  34.623  63.971  1.00  0.00     0.210 C 
ENDBRANCH  16  21
ENDBRANCH  12  15
ENDBRANCH   8  11
ENDBRANCH   2   5
BRANCH   1  23
HETATM   23  C   UNL     1       5.021  29.673  53.955  1.00  0.00     0.240 C 
BRANCH  23  24
HETATM   24  N   UNL     1       5.047  28.255  53.654  1.00  0.00    -0.259 N 
HETATM   25  C   UNL     1       3.984  27.539  53.219  1.00  0.00     0.326 A 
HETATM   26  N   UNL     1       4.342  26.220  53.133  1.00  0.00    -0.324 N 
HETATM   27  O   UNL     1       2.902  27.991  52.882  1.00  0.00    -0.247 OA
HETATM   28  C   UNL     1       5.760  26.009  53.368  1.00  0.00     0.116 A 
HETATM   29  H   UNL     1       3.701  25.530  52.758  1.00  0.00     0.165 HD
HETATM   30  C   UNL     1       6.439  25.566  52.068  1.00  0.00     0.041 C 
HETATM   31  C   UNL     1       6.153  27.457  53.748  1.00  0.00     0.256 A 
HETATM   32  C   UNL     1       5.980  25.048  54.539  1.00  0.00     0.041 C 
HETATM   33  C   UNL     1       7.888  25.121  52.264  1.00  0.00     0.007 C 
HETATM   34  C   UNL     1       8.062  24.100  53.393  1.00  0.00    -0.019 C 
HETATM   35  C   UNL     1       7.506  22.726  53.012  1.00  0.00     0.010 C 
HETATM   36  C   UNL     1       7.441  24.621  54.695  1.00  0.00     0.007 C 
HETATM   37  O   UNL     1       7.272  27.829  54.069  1.00  0.00    -0.270 OA
ENDBRANCH  23  24
ENDBRANCH   1  23
TORSDOF 6
ENDMDL
MODEL 7
REMARK VINA RESULT:     -10.0      2.145      3.194
REMARK  6 active torsions:
REMARK  status: ('A' for Active; 'I' for Inactive)
REMARK    1  A    between atoms: N_9  and  C_10 
REMARK    2  A    between atoms: C_10  and  C_11 
REMARK       I    between atoms: C_11  and  N_12 
REMARK    3  A    between atoms: N_12  and  C_13 
REMARK    4  A    between atoms: C_16  and  C_17 
REMARK       I    between atoms: C_17  and  N_18 
REMARK    5  A    between atoms: N_18  and  C_19 
REMARK    6  A    between atoms: C_20  and  O_21 
ROOT
HETATM    1  C   UNL     1       5.356  29.523  55.486  1.00  0.00     0.240 C 
HETATM    2  N   UNL     1       6.294  30.422  55.970  1.00  0.00    -0.326 N 
HETATM    3  O   UNL     1       4.384  29.106  56.113  1.00  0.00    -0.271 OA
HETATM    4  H   UNL     1       6.892  30.872  55.281  1.00  0.00     0.169 HD
ENDROOT
BRANCH   2   5
HETATM    5  C   UNL     1       6.463  30.845  57.304  1.00  0.00     0.034 A 
HETATM    6  C   UNL     1       5.627  31.764  57.942  1.00  0.00     0.030 A 
HETATM    7  C   UNL     1       5.830  32.105  59.286  1.00  0.00     0.019 A 
HETATM    8  C   UNL     1       6.878  31.525  60.007  1.00  0.00     0.032 A 
HETATM    9  C   UNL     1       7.715  30.600  59.376  1.00  0.00     0.019 A 
HETATM   10  C   UNL     1       7.512  30.268  58.031  1.00  0.00     0.030 A 
BRANCH   8  11
HETATM   11  C   UNL     1       7.085  31.822  61.455  1.00  0.00     0.256 C 
HETATM   12  N   UNL     1       6.322  32.869  61.946  1.00  0.00    -0.321 N 
HETATM   13  H   UNL     1       6.036  33.568  61.274  1.00  0.00     0.169 HD
HETATM   14  O   UNL     1       7.951  31.203  62.063  1.00  0.00    -0.267 OA
BRANCH  12  15
HETATM   15  C   UNL     1       6.188  33.209  63.312  1.00  0.00     0.068 A 
HETATM   16  C   UNL     1       4.956  33.282  63.986  1.00  0.00     0.095 A 
HETATM   17  C   UNL     1       4.926  33.624  65.345  1.00  0.00     0.039 A 
HETATM   18  C   UNL     1       6.110  33.899  66.031  1.00  0.00     0.003 A 
HETATM   19  C   UNL     1       7.326  33.867  65.358  1.00  0.00     0.002 A 
HETATM   20  C   UNL     1       7.365  33.539  64.000  1.00  0.00     0.032 A 
BRANCH  16  21
HETATM   21  O   UNL     1       3.797  33.199  63.255  1.00  0.00    -0.354 OA
HETATM   22  C   UNL     1       2.963  34.349  63.352  1.00  0.00     0.210 C 
ENDBRANCH  16  21
ENDBRANCH  12  15
ENDBRANCH   8  11
ENDBRANCH   2   5
BRANCH   1  23
HETATM   23  C   UNL     1       5.502  29.198  53.999  1.00  0.00     0.240 C 
BRANCH  23  24
HETATM   24  N   UNL     1       5.441  27.778  53.711  1.00  0.00    -0.259 N 
HETATM   25  C   UNL     1       4.322  27.113  53.339  1.00  0.00     0.326 A 
HETATM   26  N   UNL     1       4.608  25.777  53.247  1.00  0.00    -0.324 N 
HETATM   27  O   UNL     1       3.248  27.617  53.053  1.00  0.00    -0.247 OA
HETATM   28  C   UNL     1       6.024  25.497  53.412  1.00  0.00     0.116 A 
HETATM   29  H   UNL     1       3.915  25.118  52.912  1.00  0.00     0.165 HD
HETATM   30  C   UNL     1       6.611  25.010  52.083  1.00  0.00     0.041 C 
HETATM   31  C   UNL     1       6.508  26.926  53.756  1.00  0.00     0.256 A 
HETATM   32  C   UNL     1       6.256  24.534  54.579  1.00  0.00     0.041 C 
HETATM   33  C   UNL     1       8.045  24.494  52.208  1.00  0.00     0.007 C 
HETATM   34  C   UNL     1       8.226  23.473  53.337  1.00  0.00    -0.019 C 
HETATM   35  C   UNL     1       7.582  22.126  52.998  1.00  0.00     0.010 C 
HETATM   36  C   UNL     1       7.699  24.035  54.664  1.00  0.00     0.007 C 
HETATM   37  O   UNL     1       7.660  27.243  54.016  1.00  0.00    -0.270 OA
ENDBRANCH  23  24
ENDBRANCH   1  23
TORSDOF 6
ENDMDL
MODEL 8
REMARK VINA RESULT:      -9.7      1.860     11.167
REMARK  6 active torsions:
REMARK  status: ('A' for Active; 'I' for Inactive)
REMARK    1  A    between atoms: N_9  and  C_10 
REMARK    2  A    between atoms: C_10  and  C_11 
REMARK       I    between atoms: C_11  and  N_12 
REMARK    3  A    between atoms: N_12  and  C_13 
REMARK    4  A    between atoms: C_16  and  C_17 
REMARK       I    between atoms: C_17  and  N_18 
REMARK    5  A    between atoms: N_18  and  C_19 
REMARK    6  A    between atoms: C_20  and  O_21 
ROOT
HETATM    1  C   UNL     1       8.521  31.021  60.038  1.00  0.00     0.240 C 
HETATM    2  N   UNL     1       8.043  30.959  58.738  1.00  0.00    -0.326 N 
HETATM    3  O   UNL     1       9.033  30.087  60.652  1.00  0.00    -0.271 OA
HETATM    4  H   UNL     1       7.881  31.847  58.269  1.00  0.00     0.169 HD
ENDROOT
BRANCH   2   5
HETATM    5  C   UNL     1       7.829  29.803  57.961  1.00  0.00     0.034 A 
HETATM    6  C   UNL     1       8.854  28.974  57.498  1.00  0.00     0.030 A 
HETATM    7  C   UNL     1       8.564  27.816  56.767  1.00  0.00     0.019 A 
HETATM    8  C   UNL     1       7.236  27.472  56.492  1.00  0.00     0.032 A 
HETATM    9  C   UNL     1       6.205  28.293  56.958  1.00  0.00     0.019 A 
HETATM   10  C   UNL     1       6.502  29.454  57.683  1.00  0.00     0.030 A 
BRANCH   8  11
HETATM   11  C   UNL     1       6.892  26.214  55.767  1.00  0.00     0.256 C 
HETATM   12  N   UNL     1       7.978  25.524  55.254  1.00  0.00    -0.321 N 
HETATM   13  H   UNL     1       8.798  26.076  55.044  1.00  0.00     0.169 HD
HETATM   14  O   UNL     1       5.708  25.937  55.603  1.00  0.00    -0.267 OA
BRANCH  12  15
HETATM   15  C   UNL     1       7.933  24.220  54.710  1.00  0.00     0.068 A 
HETATM   16  C   UNL     1       7.955  23.943  53.332  1.00  0.00     0.095 A 
HETATM   17  C   UNL     1       7.910  22.613  52.889  1.00  0.00     0.039 A 
HETATM   18  C   UNL     1       7.839  21.565  53.807  1.00  0.00     0.003 A 
HETATM   19  C   UNL     1       7.777  21.837  55.169  1.00  0.00     0.002 A 
HETATM   20  C   UNL     1       7.808  23.160  55.619  1.00  0.00     0.032 A 
BRANCH  16  21
HETATM   21  O   UNL     1       7.830  24.984  52.446  1.00  0.00    -0.354 OA
HETATM   22  C   UNL     1       6.490  25.249  52.041  1.00  0.00     0.210 C 
ENDBRANCH  16  21
ENDBRANCH  12  15
ENDBRANCH   8  11
ENDBRANCH   2   5
BRANCH   1  23
HETATM   23  C   UNL     1       8.542  32.429  60.636  1.00  0.00     0.240 C 
BRANCH  23  24
HETATM   24  N   UNL     1       7.329  32.768  61.355  1.00  0.00    -0.259 N 
HETATM   25  C   UNL     1       7.213  32.796  62.703  1.00  0.00     0.326 A 
HETATM   26  N   UNL     1       5.909  33.058  63.031  1.00  0.00    -0.324 N 
HETATM   27  O   UNL     1       8.125  32.687  63.506  1.00  0.00    -0.247 OA
HETATM   28  C   UNL     1       5.095  33.379  61.872  1.00  0.00     0.116 A 
HETATM   29  H   UNL     1       5.632  33.189  63.997  1.00  0.00     0.165 HD
HETATM   30  C   UNL     1       4.682  34.854  61.924  1.00  0.00     0.041 C 
HETATM   31  C   UNL     1       6.148  33.124  60.767  1.00  0.00     0.256 A 
HETATM   32  C   UNL     1       3.915  32.412  61.751  1.00  0.00     0.041 C 
HETATM   33  C   UNL     1       3.655  35.232  60.858  1.00  0.00     0.007 C 
HETATM   34  C   UNL     1       2.448  34.288  60.816  1.00  0.00    -0.019 C 
HETATM   35  C   UNL     1       1.528  34.481  62.024  1.00  0.00     0.010 C 
HETATM   36  C   UNL     1       2.906  32.830  60.680  1.00  0.00     0.007 C 
HETATM   37  O   UNL     1       5.957  33.233  59.564  1.00  0.00    -0.270 OA
ENDBRANCH  23  24
ENDBRANCH   1  23
TORSDOF 6
ENDMDL
MODEL 9
REMARK VINA RESULT:      -9.5      2.112     11.482
REMARK  6 active torsions:
REMARK  status: ('A' for Active; 'I' for Inactive)
REMARK    1  A    between atoms: N_9  and  C_10 
REMARK    2  A    between atoms: C_10  and  C_11 
REMARK       I    between atoms: C_11  and  N_12 
REMARK    3  A    between atoms: N_12  and  C_13 
REMARK    4  A    between atoms: C_16  and  C_17 
REMARK       I    between atoms: C_17  and  N_18 
REMARK    5  A    between atoms: N_18  and  C_19 
REMARK    6  A    between atoms: C_20  and  O_21 
ROOT
HETATM    1  C   UNL     1       6.010  32.174  58.922  1.00  0.00     0.240 C 
HETATM    2  N   UNL     1       5.479  31.260  58.025  1.00  0.00    -0.326 N 
HETATM    3  O   UNL     1       7.176  32.189  59.313  1.00  0.00    -0.271 OA
HETATM    4  H   UNL     1       4.589  31.505  57.597  1.00  0.00     0.169 HD
ENDROOT
BRANCH   2   5
HETATM    5  C   UNL     1       6.069  30.061  57.576  1.00  0.00     0.034 A 
HETATM    6  C   UNL     1       7.437  29.908  57.337  1.00  0.00     0.030 A 
HETATM    7  C   UNL     1       7.960  28.673  56.934  1.00  0.00     0.019 A 
HETATM    8  C   UNL     1       7.114  27.572  56.767  1.00  0.00     0.032 A 
HETATM    9  C   UNL     1       5.745  27.717  57.011  1.00  0.00     0.019 A 
HETATM   10  C   UNL     1       5.226  28.956  57.407  1.00  0.00     0.030 A 
BRANCH   8  11
HETATM   11  C   UNL     1       7.648  26.229  56.396  1.00  0.00     0.256 C 
HETATM   12  N   UNL     1       6.949  25.586  55.388  1.00  0.00    -0.321 N 
HETATM   13  H   UNL     1       5.976  25.842  55.285  1.00  0.00     0.169 HD
HETATM   14  O   UNL     1       8.577  25.766  57.049  1.00  0.00    -0.267 OA
BRANCH  12  15
HETATM   15  C   UNL     1       7.369  24.409  54.727  1.00  0.00     0.068 A 
HETATM   16  C   UNL     1       7.840  24.378  53.402  1.00  0.00     0.095 A 
HETATM   17  C   UNL     1       8.239  23.160  52.834  1.00  0.00     0.039 A 
HETATM   18  C   UNL     1       8.166  21.978  53.573  1.00  0.00     0.003 A 
HETATM   19  C   UNL     1       7.664  21.999  54.870  1.00  0.00     0.002 A 
HETATM   20  C   UNL     1       7.253  23.207  55.440  1.00  0.00     0.032 A 
BRANCH  16  21
HETATM   21  O   UNL     1       7.722  25.508  52.633  1.00  0.00    -0.354 OA
HETATM   22  C   UNL     1       6.513  25.580  51.882  1.00  0.00     0.210 C 
ENDBRANCH  16  21
ENDBRANCH  12  15
ENDBRANCH   8  11
ENDBRANCH   2   5
BRANCH   1  23
HETATM   23  C   UNL     1       5.070  33.327  59.280  1.00  0.00     0.240 C 
BRANCH  23  24
HETATM   24  N   UNL     1       4.526  33.231  60.620  1.00  0.00    -0.259 N 
HETATM   25  C   UNL     1       3.588  32.337  61.010  1.00  0.00     0.326 A 
HETATM   26  N   UNL     1       3.239  32.596  62.309  1.00  0.00    -0.324 N 
HETATM   27  O   UNL     1       3.170  31.399  60.350  1.00  0.00    -0.247 OA
HETATM   28  C   UNL     1       4.070  33.621  62.917  1.00  0.00     0.116 A 
HETATM   29  H   UNL     1       2.599  31.989  62.807  1.00  0.00     0.165 HD
HETATM   30  C   UNL     1       4.950  32.994  64.003  1.00  0.00     0.041 C 
HETATM   31  C   UNL     1       4.902  34.017  61.673  1.00  0.00     0.256 A 
HETATM   32  C   UNL     1       3.217  34.791  63.412  1.00  0.00     0.041 C 
HETATM   33  C   UNL     1       5.707  34.026  64.838  1.00  0.00     0.007 C 
HETATM   34  C   UNL     1       4.809  35.142  65.384  1.00  0.00    -0.019 C 
HETATM   35  C   UNL     1       3.895  34.643  66.506  1.00  0.00     0.010 C 
HETATM   36  C   UNL     1       4.010  35.796  64.250  1.00  0.00     0.007 C 
HETATM   37  O   UNL     1       5.763  34.885  61.640  1.00  0.00    -0.270 OA
ENDBRANCH  23  24
ENDBRANCH   1  23
TORSDOF 6
ENDMDL
MODEL 10
REMARK VINA RESULT:      -9.4      2.534     11.785
REMARK  6 active torsions:
REMARK  status: ('A' for Active; 'I' for Inactive)
REMARK    1  A    between atoms: N_9  and  C_10 
REMARK    2  A    between atoms: C_10  and  C_11 
REMARK       I    between atoms: C_11  and  N_12 
REMARK    3  A    between atoms: N_12  and  C_13 
REMARK    4  A    between atoms: C_16  and  C_17 
REMARK       I    between atoms: C_17  and  N_18 
REMARK    5  A    between atoms: N_18  and  C_19 
REMARK    6  A    between atoms: C_20  and  O_21 
ROOT
HETATM    1  C   UNL     1       3.990  32.524  59.279  1.00  0.00     0.240 C 
HETATM    2  N   UNL     1       5.083  32.218  58.482  1.00  0.00    -0.326 N 
HETATM    3  O   UNL     1       3.370  31.720  59.973  1.00  0.00    -0.271 OA
HETATM    4  H   UNL     1       5.650  33.001  58.164  1.00  0.00     0.169 HD
ENDROOT
BRANCH   2   5
HETATM    5  C   UNL     1       5.546  30.936  58.123  1.00  0.00     0.034 A 
HETATM    6  C   UNL     1       4.753  29.965  57.508  1.00  0.00     0.030 A 
HETATM    7  C   UNL     1       5.294  28.726  57.140  1.00  0.00     0.019 A 
HETATM    8  C   UNL     1       6.642  28.446  57.384  1.00  0.00     0.032 A 
HETATM    9  C   UNL     1       7.443  29.417  57.994  1.00  0.00     0.019 A 
HETATM   10  C   UNL     1       6.896  30.651  58.367  1.00  0.00     0.030 A 
BRANCH   8  11
HETATM   11  C   UNL     1       7.261  27.161  56.952  1.00  0.00     0.256 C 
HETATM   12  N   UNL     1       6.548  26.469  55.986  1.00  0.00    -0.321 N 
HETATM   13  H   UNL     1       5.552  26.640  55.959  1.00  0.00     0.169 HD
HETATM   14  O   UNL     1       8.273  26.773  57.526  1.00  0.00    -0.267 OA
BRANCH  12  15
HETATM   15  C   UNL     1       7.019  25.342  55.274  1.00  0.00     0.068 A 
HETATM   16  C   UNL     1       7.512  25.393  53.958  1.00  0.00     0.095 A 
HETATM   17  C   UNL     1       7.962  24.219  53.337  1.00  0.00     0.039 A 
HETATM   18  C   UNL     1       7.918  23.000  54.015  1.00  0.00     0.003 A 
HETATM   19  C   UNL     1       7.395  22.940  55.303  1.00  0.00     0.002 A 
HETATM   20  C   UNL     1       6.933  24.103  55.925  1.00  0.00     0.032 A 
BRANCH  16  21
HETATM   21  O   UNL     1       7.367  26.557  53.244  1.00  0.00    -0.354 OA
HETATM   22  C   UNL     1       6.267  26.553  52.339  1.00  0.00     0.210 C 
ENDBRANCH  16  21
ENDBRANCH  12  15
ENDBRANCH   8  11
ENDBRANCH   2   5
BRANCH   1  23
HETATM   23  C   UNL     1       3.692  34.020  59.393  1.00  0.00     0.240 C 
BRANCH  23  24
HETATM   24  N   UNL     1       3.255  34.420  60.716  1.00  0.00    -0.259 N 
HETATM   25  C   UNL     1       1.962  34.573  61.089  1.00  0.00     0.326 A 
HETATM   26  N   UNL     1       1.923  35.052  62.371  1.00  0.00    -0.324 N 
HETATM   27  O   UNL     1       0.983  34.264  60.430  1.00  0.00    -0.247 OA
HETATM   28  C   UNL     1       3.236  35.099  62.991  1.00  0.00     0.116 A 
HETATM   29  H   UNL     1       1.041  35.166  62.857  1.00  0.00     0.165 HD
HETATM   30  C   UNL     1       3.313  34.060  64.115  1.00  0.00     0.041 C 
HETATM   31  C   UNL     1       4.087  34.677  61.770  1.00  0.00     0.256 A 
HETATM   32  C   UNL     1       3.574  36.522  63.441  1.00  0.00     0.041 C 
HETATM   33  C   UNL     1       4.582  34.177  64.959  1.00  0.00     0.007 C 
HETATM   34  C   UNL     1       4.850  35.601  65.459  1.00  0.00    -0.019 C 
HETATM   35  C   UNL     1       3.868  36.016  66.557  1.00  0.00     0.010 C 
HETATM   36  C   UNL     1       4.845  36.594  64.290  1.00  0.00     0.007 C 
HETATM   37  O   UNL     1       5.306  34.578  61.752  1.00  0.00    -0.270 OA
ENDBRANCH  23  24
ENDBRANCH   1  23
TORSDOF 6
ENDMDL
