MODEL 1
REMARK VINA RESULT:      -9.6      0.000      0.000
REMARK  3 active torsions:
REMARK  status: ('A' for Active; 'I' for Inactive)
REMARK    1  A    between atoms: C_8  and  C_9 
REMARK    2  A    between atoms: C_14  and  C_15 
REMARK    3  A    between atoms: C_16  and  O_17 
ROOT
HETATM    1  C   UNL     1       7.827  24.019  55.509  1.00  0.00     0.143 A 
HETATM    2  N   UNL     1       7.609  24.980  54.640  1.00  0.00    -0.223 NA
HETATM    3  C   UNL     1       7.539  26.170  55.353  1.00  0.00     0.149 A 
HETATM    4  C   UNL     1       7.755  25.910  56.699  1.00  0.00     0.046 A 
HETATM    5  C   UNL     1       7.811  26.726  57.943  1.00  0.00     0.070 C 
HETATM    6  C   UNL     1       7.418  28.210  57.847  1.00  0.00     0.045 C 
HETATM    7  C   UNL     1       6.360  28.515  56.778  1.00  0.00     0.132 C 
HETATM    8  N   UNL     1       6.848  28.515  55.415  1.00  0.00    -0.355 N 
HETATM    9  C   UNL     1       7.293  27.448  54.678  1.00  0.00     0.272 C 
HETATM   10  O   UNL     1       7.472  27.613  53.472  1.00  0.00    -0.266 OA
HETATM   11  N   UNL     1       7.944  24.547  56.763  1.00  0.00    -0.341 N 
HETATM   12  H   UNL     1       8.128  24.016  57.600  1.00  0.00     0.167 HD
HETATM   13  H   UNL     1       6.701  29.342  54.851  1.00  0.00     0.162 HD
ENDROOT
BRANCH   1  14
HETATM   14  C   UNL     1       7.920  22.577  55.160  1.00  0.00     0.059 A 
HETATM   15  C   UNL     1       8.089  21.503  56.016  1.00  0.00     0.040 A 
HETATM   16  C   UNL     1       8.231  21.370  57.483  1.00  0.00     0.071 C 
HETATM   17  N   UNL     1       8.103  20.400  55.203  1.00  0.00    -0.281 N 
HETATM   18  H   UNL     1       8.206  19.427  55.471  1.00  0.00     0.189 HD
HETATM   19  N   UNL     1       7.955  20.675  53.902  1.00  0.00    -0.179 NA
HETATM   20  C   UNL     1       7.840  22.009  53.861  1.00  0.00     0.067 A 
HETATM   21  C   UNL     1       7.655  22.703  52.562  1.00  0.00     0.073 C 
ENDBRANCH   1  14
BRANCH   6  22
HETATM   22  C   UNL     1       8.594  29.188  57.804  1.00  0.00    -0.019 A 
HETATM   23  C   UNL     1       8.552  30.392  58.542  1.00  0.00     0.074 A 
HETATM   24  C   UNL     1       9.622  31.293  58.472  1.00  0.00     0.037 A 
HETATM   25  C   UNL     1      10.738  31.008  57.685  1.00  0.00     0.003 A 
HETATM   26  C   UNL     1      10.791  29.823  56.959  1.00  0.00     0.001 A 
HETATM   27  C   UNL     1       9.728  28.921  57.017  1.00  0.00     0.010 A 
BRANCH  23  28
HETATM   28  O   UNL     1       7.416  30.617  59.278  1.00  0.00    -0.355 OA
HETATM   29  C   UNL     1       6.643  31.763  58.936  1.00  0.00     0.210 C 
ENDBRANCH  23  28
ENDBRANCH   6  22
TORSDOF 3
ENDMDL
MODEL 2
REMARK VINA RESULT:      -9.4      2.560      7.693
REMARK  3 active torsions:
REMARK  status: ('A' for Active; 'I' for Inactive)
REMARK    1  A    between atoms: C_8  and  C_9 
REMARK    2  A    between atoms: C_14  and  C_15 
REMARK    3  A    between atoms: C_16  and  O_17 
ROOT
HETATM    1  C   UNL     1       8.062  29.322  57.715  1.00  0.00     0.143 A 
HETATM    2  N   UNL     1       8.198  28.131  58.253  1.00  0.00    -0.223 NA
HETATM    3  C   UNL     1       7.521  27.234  57.438  1.00  0.00     0.149 A 
HETATM    4  C   UNL     1       6.987  27.914  56.352  1.00  0.00     0.046 A 
HETATM    5  C   UNL     1       6.181  27.542  55.157  1.00  0.00     0.070 C 
HETATM    6  C   UNL     1       5.645  26.103  55.072  1.00  0.00     0.045 C 
HETATM    7  C   UNL     1       5.336  25.462  56.432  1.00  0.00     0.132 C 
HETATM    8  N   UNL     1       6.497  25.028  57.181  1.00  0.00    -0.355 N 
HETATM    9  C   UNL     1       7.467  25.804  57.761  1.00  0.00     0.272 C 
HETATM   10  O   UNL     1       8.259  25.262  58.530  1.00  0.00    -0.266 OA
HETATM   11  N   UNL     1       7.354  29.226  56.551  1.00  0.00    -0.341 N 
HETATM   12  H   UNL     1       7.130  30.000  55.945  1.00  0.00     0.167 HD
HETATM   13  H   UNL     1       6.544  24.062  57.480  1.00  0.00     0.162 HD
ENDROOT
BRANCH   1  14
HETATM   14  C   UNL     1       8.600  30.577  58.305  1.00  0.00     0.059 A 
HETATM   15  C   UNL     1       7.928  31.516  59.067  1.00  0.00     0.040 A 
HETATM   16  C   UNL     1       6.536  31.638  59.557  1.00  0.00     0.071 C 
HETATM   17  N   UNL     1       8.867  32.467  59.366  1.00  0.00    -0.281 N 
HETATM   18  H   UNL     1       8.747  33.313  59.914  1.00  0.00     0.189 HD
HETATM   19  N   UNL     1      10.081  32.218  58.864  1.00  0.00    -0.179 NA
HETATM   20  C   UNL     1       9.932  31.059  58.210  1.00  0.00     0.067 A 
HETATM   21  C   UNL     1      11.086  30.443  57.508  1.00  0.00     0.073 C 
ENDBRANCH   1  14
BRANCH   6  22
HETATM   22  C   UNL     1       6.436  25.172  54.151  1.00  0.00    -0.019 A 
HETATM   23  C   UNL     1       6.725  25.554  52.821  1.00  0.00     0.074 A 
HETATM   24  C   UNL     1       7.425  24.682  51.978  1.00  0.00     0.037 A 
HETATM   25  C   UNL     1       7.850  23.437  52.444  1.00  0.00     0.003 A 
HETATM   26  C   UNL     1       7.576  23.054  53.752  1.00  0.00     0.001 A 
HETATM   27  C   UNL     1       6.874  23.914  54.598  1.00  0.00     0.010 A 
BRANCH  23  28
HETATM   28  O   UNL     1       6.259  26.783  52.425  1.00  0.00    -0.355 OA
HETATM   29  C   UNL     1       5.342  26.803  51.337  1.00  0.00     0.210 C 
ENDBRANCH  23  28
ENDBRANCH   6  22
TORSDOF 3
ENDMDL
MODEL 3
REMARK VINA RESULT:      -9.3      1.688      2.253
REMARK  3 active torsions:
REMARK  status: ('A' for Active; 'I' for Inactive)
REMARK    1  A    between atoms: C_8  and  C_9 
REMARK    2  A    between atoms: C_14  and  C_15 
REMARK    3  A    between atoms: C_16  and  O_17 
ROOT
HETATM    1  C   UNL     1       7.583  23.174  55.360  1.00  0.00     0.143 A 
HETATM    2  N   UNL     1       7.832  24.107  54.470  1.00  0.00    -0.223 NA
HETATM    3  C   UNL     1       7.161  25.253  54.879  1.00  0.00     0.149 A 
HETATM    4  C   UNL     1       6.512  25.000  56.079  1.00  0.00     0.046 A 
HETATM    5  C   UNL     1       5.654  25.783  57.010  1.00  0.00     0.070 C 
HETATM    6  C   UNL     1       5.208  27.186  56.565  1.00  0.00     0.045 C 
HETATM    7  C   UNL     1       5.033  27.342  55.049  1.00  0.00     0.132 C 
HETATM    8  N   UNL     1       6.267  27.454  54.298  1.00  0.00    -0.355 N 
HETATM    9  C   UNL     1       7.221  26.491  54.095  1.00  0.00     0.272 C 
HETATM   10  O   UNL     1       8.096  26.711  53.259  1.00  0.00    -0.266 OA
HETATM   11  N   UNL     1       6.806  23.684  56.362  1.00  0.00    -0.341 N 
HETATM   12  H   UNL     1       6.492  23.169  57.169  1.00  0.00     0.167 HD
HETATM   13  H   UNL     1       6.396  28.260  53.700  1.00  0.00     0.162 HD
ENDROOT
BRANCH   1  14
HETATM   14  C   UNL     1       8.076  21.774  55.270  1.00  0.00     0.059 A 
HETATM   15  C   UNL     1       8.482  20.945  56.300  1.00  0.00     0.040 A 
HETATM   16  C   UNL     1       8.579  21.103  57.769  1.00  0.00     0.071 C 
HETATM   17  N   UNL     1       8.831  19.768  55.692  1.00  0.00    -0.281 N 
HETATM   18  H   UNL     1       9.177  18.919  56.127  1.00  0.00     0.189 HD
HETATM   19  N   UNL     1       8.683  19.771  54.363  1.00  0.00    -0.179 NA
HETATM   20  C   UNL     1       8.218  20.997  54.089  1.00  0.00     0.067 A 
HETATM   21  C   UNL     1       7.921  21.388  52.688  1.00  0.00     0.073 C 
ENDBRANCH   1  14
BRANCH   6  22
HETATM   22  C   UNL     1       5.995  28.342  57.187  1.00  0.00    -0.019 A 
HETATM   23  C   UNL     1       5.402  29.616  57.333  1.00  0.00     0.074 A 
HETATM   24  C   UNL     1       6.141  30.674  57.877  1.00  0.00     0.037 A 
HETATM   25  C   UNL     1       7.460  30.478  58.287  1.00  0.00     0.003 A 
HETATM   26  C   UNL     1       8.051  29.227  58.152  1.00  0.00     0.001 A 
HETATM   27  C   UNL     1       7.325  28.167  57.606  1.00  0.00     0.010 A 
BRANCH  23  28
HETATM   28  O   UNL     1       4.109  29.742  56.890  1.00  0.00    -0.355 OA
HETATM   29  C   UNL     1       3.334  30.794  57.456  1.00  0.00     0.210 C 
ENDBRANCH  23  28
ENDBRANCH   6  22
TORSDOF 3
ENDMDL
MODEL 4
REMARK VINA RESULT:      -9.3      3.026      7.861
REMARK  3 active torsions:
REMARK  status: ('A' for Active; 'I' for Inactive)
REMARK    1  A    between atoms: C_8  and  C_9 
REMARK    2  A    between atoms: C_14  and  C_15 
REMARK    3  A    between atoms: C_16  and  O_17 
ROOT
HETATM    1  C   UNL     1       4.647  29.134  55.818  1.00  0.00     0.143 A 
HETATM    2  N   UNL     1       5.956  29.235  55.830  1.00  0.00    -0.223 NA
HETATM    3  C   UNL     1       6.464  27.956  56.020  1.00  0.00     0.149 A 
HETATM    4  C   UNL     1       5.414  27.052  56.093  1.00  0.00     0.046 A 
HETATM    5  C   UNL     1       5.289  25.580  56.278  1.00  0.00     0.070 C 
HETATM    6  C   UNL     1       6.565  24.788  56.610  1.00  0.00     0.045 C 
HETATM    7  C   UNL     1       7.605  25.575  57.417  1.00  0.00     0.132 C 
HETATM    8  N   UNL     1       8.361  26.549  56.657  1.00  0.00    -0.355 N 
HETATM    9  C   UNL     1       7.909  27.714  56.093  1.00  0.00     0.272 C 
HETATM   10  O   UNL     1       8.743  28.511  55.665  1.00  0.00    -0.266 OA
HETATM   11  N   UNL     1       4.282  27.824  55.952  1.00  0.00    -0.341 N 
HETATM   12  H   UNL     1       3.333  27.485  55.957  1.00  0.00     0.167 HD
HETATM   13  H   UNL     1       9.371  26.489  56.666  1.00  0.00     0.162 HD
ENDROOT
BRANCH   1  14
HETATM   14  C   UNL     1       3.716  30.286  55.686  1.00  0.00     0.059 A 
HETATM   15  C   UNL     1       3.150  30.796  54.533  1.00  0.00     0.040 A 
HETATM   16  C   UNL     1       3.232  30.434  53.099  1.00  0.00     0.071 C 
HETATM   17  N   UNL     1       2.370  31.842  54.952  1.00  0.00    -0.281 N 
HETATM   18  H   UNL     1       1.796  32.459  54.387  1.00  0.00     0.189 HD
HETATM   19  N   UNL     1       2.388  32.045  56.274  1.00  0.00    -0.179 NA
HETATM   20  C   UNL     1       3.210  31.094  56.739  1.00  0.00     0.067 A 
HETATM   21  C   UNL     1       3.486  30.992  58.194  1.00  0.00     0.073 C 
ENDBRANCH   1  14
BRANCH   6  22
HETATM   22  C   UNL     1       7.184  24.036  55.430  1.00  0.00    -0.019 A 
HETATM   23  C   UNL     1       7.944  22.865  55.644  1.00  0.00     0.074 A 
HETATM   24  C   UNL     1       8.530  22.202  54.559  1.00  0.00     0.037 A 
HETATM   25  C   UNL     1       8.361  22.684  53.260  1.00  0.00     0.003 A 
HETATM   26  C   UNL     1       7.611  23.833  53.038  1.00  0.00     0.001 A 
HETATM   27  C   UNL     1       7.027  24.504  54.113  1.00  0.00     0.010 A 
BRANCH  23  28
HETATM   28  O   UNL     1       8.086  22.460  56.948  1.00  0.00    -0.355 OA
HETATM   29  C   UNL     1       8.361  21.081  57.167  1.00  0.00     0.210 C 
ENDBRANCH  23  28
ENDBRANCH   6  22
TORSDOF 3
ENDMDL
MODEL 5
REMARK VINA RESULT:      -9.3      2.836      7.954
REMARK  3 active torsions:
REMARK  status: ('A' for Active; 'I' for Inactive)
REMARK    1  A    between atoms: C_8  and  C_9 
REMARK    2  A    between atoms: C_14  and  C_15 
REMARK    3  A    between atoms: C_16  and  O_17 
ROOT
HETATM    1  C   UNL     1       5.404  29.878  57.521  1.00  0.00     0.143 A 
HETATM    2  N   UNL     1       6.706  29.710  57.536  1.00  0.00    -0.223 NA
HETATM    3  C   UNL     1       6.954  28.386  57.200  1.00  0.00     0.149 A 
HETATM    4  C   UNL     1       5.750  27.746  56.942  1.00  0.00     0.046 A 
HETATM    5  C   UNL     1       5.341  26.372  56.543  1.00  0.00     0.070 C 
HETATM    6  C   UNL     1       6.426  25.282  56.505  1.00  0.00     0.045 C 
HETATM    7  C   UNL     1       7.553  25.478  57.527  1.00  0.00     0.132 C 
HETATM    8  N   UNL     1       8.516  26.505  57.187  1.00  0.00    -0.355 N 
HETATM    9  C   UNL     1       8.322  27.860  57.134  1.00  0.00     0.272 C 
HETATM   10  O   UNL     1       9.311  28.584  57.028  1.00  0.00    -0.266 OA
HETATM   11  N   UNL     1       4.792  28.716  57.143  1.00  0.00    -0.341 N 
HETATM   12  H   UNL     1       3.797  28.592  57.041  1.00  0.00     0.167 HD
HETATM   13  H   UNL     1       9.496  26.252  57.145  1.00  0.00     0.162 HD
ENDROOT
BRANCH   1  14
HETATM   14  C   UNL     1       4.715  31.148  57.873  1.00  0.00     0.059 A 
HETATM   15  C   UNL     1       5.031  32.035  58.885  1.00  0.00     0.040 A 
HETATM   16  C   UNL     1       6.084  32.077  59.925  1.00  0.00     0.071 C 
HETATM   17  N   UNL     1       4.104  33.038  58.781  1.00  0.00    -0.281 N 
HETATM   18  H   UNL     1       4.016  33.871  59.354  1.00  0.00     0.189 HD
HETATM   19  N   UNL     1       3.222  32.870  57.789  1.00  0.00    -0.179 NA
HETATM   20  C   UNL     1       3.587  31.712  57.222  1.00  0.00     0.067 A 
HETATM   21  C   UNL     1       2.832  31.179  56.059  1.00  0.00     0.073 C 
ENDBRANCH   1  14
BRANCH   6  22
HETATM   22  C   UNL     1       6.952  24.942  55.109  1.00  0.00    -0.019 A 
HETATM   23  C   UNL     1       7.338  23.621  54.790  1.00  0.00     0.074 A 
HETATM   24  C   UNL     1       7.845  23.327  53.518  1.00  0.00     0.037 A 
HETATM   25  C   UNL     1       7.965  24.330  52.555  1.00  0.00     0.003 A 
HETATM   26  C   UNL     1       7.584  25.632  52.858  1.00  0.00     0.001 A 
HETATM   27  C   UNL     1       7.082  25.936  54.124  1.00  0.00     0.010 A 
BRANCH  23  28
HETATM   28  O   UNL     1       7.211  22.690  55.791  1.00  0.00    -0.355 OA
HETATM   29  C   UNL     1       8.379  21.953  56.137  1.00  0.00     0.210 C 
ENDBRANCH  23  28
ENDBRANCH   6  22
TORSDOF 3
ENDMDL
MODEL 6
REMARK VINA RESULT:      -9.0      4.140      7.540
REMARK  3 active torsions:
REMARK  status: ('A' for Active; 'I' for Inactive)
REMARK    1  A    between atoms: C_8  and  C_9 
REMARK    2  A    between atoms: C_14  and  C_15 
REMARK    3  A    between atoms: C_16  and  O_17 
ROOT
HETATM    1  C   UNL     1       4.767  27.960  51.386  1.00  0.00     0.143 A 
HETATM    2  N   UNL     1       5.830  28.368  52.042  1.00  0.00    -0.223 NA
HETATM    3  C   UNL     1       6.121  27.398  52.993  1.00  0.00     0.149 A 
HETATM    4  C   UNL     1       5.213  26.356  52.877  1.00  0.00     0.046 A 
HETATM    5  C   UNL     1       4.989  25.059  53.573  1.00  0.00     0.070 C 
HETATM    6  C   UNL     1       5.829  24.762  54.826  1.00  0.00     0.045 C 
HETATM    7  C   UNL     1       6.219  26.007  55.634  1.00  0.00     0.132 C 
HETATM    8  N   UNL     1       7.285  26.801  55.059  1.00  0.00    -0.355 N 
HETATM    9  C   UNL     1       7.255  27.549  53.911  1.00  0.00     0.272 C 
HETATM   10  O   UNL     1       8.191  28.318  53.696  1.00  0.00    -0.266 OA
HETATM   11  N   UNL     1       4.379  26.735  51.848  1.00  0.00    -0.341 N 
HETATM   12  H   UNL     1       3.598  26.204  51.495  1.00  0.00     0.167 HD
HETATM   13  H   UNL     1       8.104  26.990  55.624  1.00  0.00     0.162 HD
ENDROOT
BRANCH   1  14
HETATM   14  C   UNL     1       4.097  28.736  50.308  1.00  0.00     0.059 A 
HETATM   15  C   UNL     1       3.353  29.895  50.431  1.00  0.00     0.040 A 
HETATM   16  C   UNL     1       2.963  30.752  51.574  1.00  0.00     0.071 C 
HETATM   17  N   UNL     1       2.968  30.206  49.153  1.00  0.00    -0.281 N 
HETATM   18  H   UNL     1       2.410  30.995  48.843  1.00  0.00     0.189 HD
HETATM   19  N   UNL     1       3.402  29.347  48.224  1.00  0.00    -0.179 NA
HETATM   20  C   UNL     1       4.099  28.439  48.920  1.00  0.00     0.067 A 
HETATM   21  C   UNL     1       4.751  27.302  48.222  1.00  0.00     0.073 C 
ENDBRANCH   1  14
BRANCH   6  22
HETATM   22  C   UNL     1       7.009  23.814  54.603  1.00  0.00    -0.019 A 
HETATM   23  C   UNL     1       7.883  23.493  55.666  1.00  0.00     0.074 A 
HETATM   24  C   UNL     1       8.976  22.647  55.443  1.00  0.00     0.037 A 
HETATM   25  C   UNL     1       9.207  22.107  54.177  1.00  0.00     0.003 A 
HETATM   26  C   UNL     1       8.350  22.413  53.125  1.00  0.00     0.001 A 
HETATM   27  C   UNL     1       7.261  23.260  53.336  1.00  0.00     0.010 A 
BRANCH  23  28
HETATM   28  O   UNL     1       7.607  24.075  56.879  1.00  0.00    -0.355 OA
HETATM   29  C   UNL     1       8.721  24.496  57.659  1.00  0.00     0.210 C 
ENDBRANCH  23  28
ENDBRANCH   6  22
TORSDOF 3
ENDMDL
MODEL 7
REMARK VINA RESULT:      -8.5      2.632      4.076
REMARK  3 active torsions:
REMARK  status: ('A' for Active; 'I' for Inactive)
REMARK    1  A    between atoms: C_8  and  C_9 
REMARK    2  A    between atoms: C_14  and  C_15 
REMARK    3  A    between atoms: C_16  and  O_17 
ROOT
HETATM    1  C   UNL     1       7.575  23.178  55.247  1.00  0.00     0.143 A 
HETATM    2  N   UNL     1       6.687  23.598  56.118  1.00  0.00    -0.223 NA
HETATM    3  C   UNL     1       6.501  24.956  55.893  1.00  0.00     0.149 A 
HETATM    4  C   UNL     1       7.288  25.354  54.822  1.00  0.00     0.046 A 
HETATM    5  C   UNL     1       7.535  26.633  54.102  1.00  0.00     0.070 C 
HETATM    6  C   UNL     1       6.919  27.916  54.686  1.00  0.00     0.045 C 
HETATM    7  C   UNL     1       6.782  27.912  56.214  1.00  0.00     0.132 C 
HETATM    8  N   UNL     1       5.694  27.107  56.729  1.00  0.00    -0.355 N 
HETATM    9  C   UNL     1       5.570  25.742  56.709  1.00  0.00     0.272 C 
HETATM   10  O   UNL     1       4.673  25.232  57.379  1.00  0.00    -0.266 OA
HETATM   11  N   UNL     1       7.946  24.209  54.430  1.00  0.00    -0.341 N 
HETATM   12  H   UNL     1       8.605  24.137  53.671  1.00  0.00     0.167 HD
HETATM   13  H   UNL     1       5.010  27.550  57.330  1.00  0.00     0.162 HD
ENDROOT
BRANCH   1  14
HETATM   14  C   UNL     1       8.095  21.786  55.181  1.00  0.00     0.059 A 
HETATM   15  C   UNL     1       8.491  20.974  56.228  1.00  0.00     0.040 A 
HETATM   16  C   UNL     1       8.550  21.146  57.697  1.00  0.00     0.071 C 
HETATM   17  N   UNL     1       8.875  19.798  55.639  1.00  0.00    -0.281 N 
HETATM   18  H   UNL     1       9.225  18.959  56.090  1.00  0.00     0.189 HD
HETATM   19  N   UNL     1       8.758  19.786  54.306  1.00  0.00    -0.179 NA
HETATM   20  C   UNL     1       8.278  21.002  54.011  1.00  0.00     0.067 A 
HETATM   21  C   UNL     1       8.007  21.375  52.600  1.00  0.00     0.073 C 
ENDBRANCH   1  14
BRANCH   6  22
HETATM   22  C   UNL     1       5.648  28.399  53.983  1.00  0.00    -0.019 A 
HETATM   23  C   UNL     1       4.969  29.550  54.442  1.00  0.00     0.074 A 
HETATM   24  C   UNL     1       3.791  29.966  53.810  1.00  0.00     0.037 A 
HETATM   25  C   UNL     1       3.284  29.258  52.720  1.00  0.00     0.003 A 
HETATM   26  C   UNL     1       3.947  28.126  52.258  1.00  0.00     0.001 A 
HETATM   27  C   UNL     1       5.119  27.700  52.885  1.00  0.00     0.010 A 
BRANCH  23  28
HETATM   28  O   UNL     1       5.513  30.187  55.530  1.00  0.00    -0.355 OA
HETATM   29  C   UNL     1       4.955  31.447  55.884  1.00  0.00     0.210 C 
ENDBRANCH  23  28
ENDBRANCH   6  22
TORSDOF 3
ENDMDL
MODEL 8
REMARK VINA RESULT:      -8.5      2.542      7.475
REMARK  3 active torsions:
REMARK  status: ('A' for Active; 'I' for Inactive)
REMARK    1  A    between atoms: C_8  and  C_9 
REMARK    2  A    between atoms: C_14  and  C_15 
REMARK    3  A    between atoms: C_16  and  O_17 
ROOT
HETATM    1  C   UNL     1       6.837  28.876  56.990  1.00  0.00     0.143 A 
HETATM    2  N   UNL     1       5.988  27.929  57.320  1.00  0.00    -0.223 NA
HETATM    3  C   UNL     1       6.058  26.954  56.335  1.00  0.00     0.149 A 
HETATM    4  C   UNL     1       7.011  27.320  55.395  1.00  0.00     0.046 A 
HETATM    5  C   UNL     1       7.548  26.727  54.139  1.00  0.00     0.070 C 
HETATM    6  C   UNL     1       6.858  25.468  53.587  1.00  0.00     0.045 C 
HETATM    7  C   UNL     1       5.356  25.387  53.890  1.00  0.00     0.132 C 
HETATM    8  N   UNL     1       5.025  25.020  55.251  1.00  0.00    -0.355 N 
HETATM    9  C   UNL     1       5.222  25.750  56.394  1.00  0.00     0.272 C 
HETATM   10  O   UNL     1       4.688  25.359  57.431  1.00  0.00    -0.266 OA
HETATM   11  N   UNL     1       7.492  28.531  55.842  1.00  0.00    -0.341 N 
HETATM   12  H   UNL     1       8.203  29.085  55.393  1.00  0.00     0.167 HD
HETATM   13  H   UNL     1       4.426  24.218  55.402  1.00  0.00     0.162 HD
ENDROOT
BRANCH   1  14
HETATM   14  C   UNL     1       7.036  30.133  57.760  1.00  0.00     0.059 A 
HETATM   15  C   UNL     1       6.077  31.042  58.169  1.00  0.00     0.040 A 
HETATM   16  C   UNL     1       4.606  31.122  58.020  1.00  0.00     0.071 C 
HETATM   17  N   UNL     1       6.771  32.010  58.845  1.00  0.00    -0.281 N 
HETATM   18  H   UNL     1       6.405  32.843  59.294  1.00  0.00     0.189 HD
HETATM   19  N   UNL     1       8.091  31.799  58.906  1.00  0.00    -0.179 NA
HETATM   20  C   UNL     1       8.267  30.647  58.244  1.00  0.00     0.067 A 
HETATM   21  C   UNL     1       9.628  30.072  58.097  1.00  0.00     0.073 C 
ENDBRANCH   1  14
BRANCH   6  22
HETATM   22  C   UNL     1       7.587  24.154  53.874  1.00  0.00    -0.019 A 
HETATM   23  C   UNL     1       8.274  23.966  55.095  1.00  0.00     0.074 A 
HETATM   24  C   UNL     1       8.962  22.770  55.334  1.00  0.00     0.037 A 
HETATM   25  C   UNL     1       8.968  21.754  54.379  1.00  0.00     0.003 A 
HETATM   26  C   UNL     1       8.291  21.926  53.177  1.00  0.00     0.001 A 
HETATM   27  C   UNL     1       7.607  23.117  52.926  1.00  0.00     0.010 A 
BRANCH  23  28
HETATM   28  O   UNL     1       8.242  25.015  55.980  1.00  0.00    -0.355 OA
HETATM   29  C   UNL     1       8.738  24.766  57.290  1.00  0.00     0.210 C 
ENDBRANCH  23  28
ENDBRANCH   6  22
TORSDOF 3
ENDMDL
MODEL 9
REMARK VINA RESULT:      -8.5      4.737      8.360
REMARK  3 active torsions:
REMARK  status: ('A' for Active; 'I' for Inactive)
REMARK    1  A    between atoms: C_8  and  C_9 
REMARK    2  A    between atoms: C_14  and  C_15 
REMARK    3  A    between atoms: C_16  and  O_17 
ROOT
HETATM    1  C   UNL     1       7.426  30.911  59.166  1.00  0.00     0.143 A 
HETATM    2  N   UNL     1       6.427  31.620  58.693  1.00  0.00    -0.223 NA
HETATM    3  C   UNL     1       5.765  32.173  59.781  1.00  0.00     0.149 A 
HETATM    4  C   UNL     1       6.417  31.804  60.949  1.00  0.00     0.046 A 
HETATM    5  C   UNL     1       6.220  32.059  62.403  1.00  0.00     0.070 C 
HETATM    6  C   UNL     1       4.939  32.791  62.836  1.00  0.00     0.045 C 
HETATM    7  C   UNL     1       3.726  32.527  61.935  1.00  0.00     0.132 C 
HETATM    8  N   UNL     1       3.742  33.224  60.666  1.00  0.00    -0.355 N 
HETATM    9  C   UNL     1       4.583  33.022  59.602  1.00  0.00     0.272 C 
HETATM   10  O   UNL     1       4.309  33.570  58.535  1.00  0.00    -0.266 OA
HETATM   11  N   UNL     1       7.466  31.017  60.527  1.00  0.00    -0.341 N 
HETATM   12  H   UNL     1       8.150  30.577  61.122  1.00  0.00     0.167 HD
HETATM   13  H   UNL     1       2.955  33.816  60.431  1.00  0.00     0.162 HD
ENDROOT
BRANCH   1  14
HETATM   14  C   UNL     1       8.360  30.111  58.328  1.00  0.00     0.059 A 
HETATM   15  C   UNL     1       8.120  28.901  57.703  1.00  0.00     0.040 A 
HETATM   16  C   UNL     1       6.948  28.000  57.622  1.00  0.00     0.071 C 
HETATM   17  N   UNL     1       9.289  28.597  57.057  1.00  0.00    -0.281 N 
HETATM   18  H   UNL     1       9.495  27.783  56.488  1.00  0.00     0.189 HD
HETATM   19  N   UNL     1      10.256  29.509  57.213  1.00  0.00    -0.179 NA
HETATM   20  C   UNL     1       9.698  30.446  57.992  1.00  0.00     0.067 A 
HETATM   21  C   UNL     1      10.476  31.645  58.391  1.00  0.00     0.073 C 
ENDBRANCH   1  14
BRANCH   6  22
HETATM   22  C   UNL     1       5.120  34.276  63.156  1.00  0.00    -0.019 A 
HETATM   23  C   UNL     1       4.660  34.807  64.382  1.00  0.00     0.074 A 
HETATM   24  C   UNL     1       4.805  36.173  64.652  1.00  0.00     0.037 A 
HETATM   25  C   UNL     1       5.411  37.018  63.722  1.00  0.00     0.003 A 
HETATM   26  C   UNL     1       5.872  36.505  62.515  1.00  0.00     0.001 A 
HETATM   27  C   UNL     1       5.727  35.145  62.234  1.00  0.00     0.010 A 
BRANCH  23  28
HETATM   28  O   UNL     1       4.056  33.922  65.241  1.00  0.00    -0.355 OA
HETATM   29  C   UNL     1       4.500  33.933  66.593  1.00  0.00     0.210 C 
ENDBRANCH  23  28
ENDBRANCH   6  22
TORSDOF 3
ENDMDL
MODEL 10
REMARK VINA RESULT:      -8.3      2.541      7.902
REMARK  3 active torsions:
REMARK  status: ('A' for Active; 'I' for Inactive)
REMARK    1  A    between atoms: C_8  and  C_9 
REMARK    2  A    between atoms: C_14  and  C_15 
REMARK    3  A    between atoms: C_16  and  O_17 
ROOT
HETATM    1  C   UNL     1       7.245  28.469  57.263  1.00  0.00     0.143 A 
HETATM    2  N   UNL     1       6.163  27.750  57.459  1.00  0.00    -0.223 NA
HETATM    3  C   UNL     1       6.308  26.582  56.723  1.00  0.00     0.149 A 
HETATM    4  C   UNL     1       7.542  26.591  56.087  1.00  0.00     0.046 A 
HETATM    5  C   UNL     1       8.279  25.666  55.184  1.00  0.00     0.070 C 
HETATM    6  C   UNL     1       7.531  24.429  54.658  1.00  0.00     0.045 C 
HETATM    7  C   UNL     1       6.021  24.633  54.478  1.00  0.00     0.132 C 
HETATM    8  N   UNL     1       5.252  24.626  55.704  1.00  0.00    -0.355 N 
HETATM    9  C   UNL     1       5.262  25.554  56.713  1.00  0.00     0.272 C 
HETATM   10  O   UNL     1       4.388  25.481  57.576  1.00  0.00    -0.266 OA
HETATM   11  N   UNL     1       8.113  27.789  56.456  1.00  0.00    -0.341 N 
HETATM   12  H   UNL     1       9.020  28.123  56.171  1.00  0.00     0.167 HD
HETATM   13  H   UNL     1       4.484  23.971  55.788  1.00  0.00     0.162 HD
ENDROOT
BRANCH   1  14
HETATM   14  C   UNL     1       7.470  29.823  57.837  1.00  0.00     0.059 A 
HETATM   15  C   UNL     1       8.671  30.405  58.199  1.00  0.00     0.040 A 
HETATM   16  C   UNL     1      10.082  29.959  58.165  1.00  0.00     0.071 C 
HETATM   17  N   UNL     1       8.336  31.651  58.660  1.00  0.00    -0.281 N 
HETATM   18  H   UNL     1       8.954  32.374  59.014  1.00  0.00     0.189 HD
HETATM   19  N   UNL     1       7.025  31.917  58.623  1.00  0.00    -0.179 NA
HETATM   20  C   UNL     1       6.481  30.802  58.117  1.00  0.00     0.067 A 
HETATM   21  C   UNL     1       5.012  30.712  57.917  1.00  0.00     0.073 C 
ENDBRANCH   1  14
BRANCH   6  22
HETATM   22  C   UNL     1       7.865  23.119  55.375  1.00  0.00    -0.019 A 
HETATM   23  C   UNL     1       7.938  21.906  54.656  1.00  0.00     0.074 A 
HETATM   24  C   UNL     1       8.216  20.709  55.327  1.00  0.00     0.037 A 
HETATM   25  C   UNL     1       8.432  20.704  56.706  1.00  0.00     0.003 A 
HETATM   26  C   UNL     1       8.367  21.894  57.423  1.00  0.00     0.001 A 
HETATM   27  C   UNL     1       8.085  23.092  56.763  1.00  0.00     0.010 A 
BRANCH  23  28
HETATM   28  O   UNL     1       7.696  21.981  53.307  1.00  0.00    -0.355 OA
HETATM   29  C   UNL     1       7.908  20.796  52.547  1.00  0.00     0.210 C 
ENDBRANCH  23  28
ENDBRANCH   6  22
TORSDOF 3
ENDMDL
