MODEL 1
REMARK VINA RESULT:      -9.0      0.000      0.000
REMARK  3 active torsions:
REMARK  status: ('A' for Active; 'I' for Inactive)
REMARK    1  A    between atoms: C_2  and  N_3 
REMARK       I    between atoms: N_3  and  C_4 
REMARK    2  A    between atoms: C_4  and  C_5 
REMARK    3  A    between atoms: C_20  and  C_21 
REMARK       I    between atoms: C_21  and  N_22 
ROOT
HETATM    1  C   UNL     1       4.578  27.283  52.995  1.00  0.00     0.032 A 
HETATM    2  C   UNL     1       5.183  26.254  52.270  1.00  0.00     0.036 A 
HETATM    3  C   UNL     1       5.175  26.303  50.865  1.00  0.00     0.046 A 
HETATM    4  C   UNL     1       4.554  27.382  50.203  1.00  0.00     0.030 A 
HETATM    5  C   UNL     1       3.958  28.379  50.963  1.00  0.00     0.063 A 
HETATM    6  N   UNL     1       3.445  29.266  50.059  1.00  0.00    -0.277 N 
HETATM    7  H   UNL     1       2.936  30.120  50.258  1.00  0.00     0.189 HD
HETATM    8  N   UNL     1       3.664  28.939  48.773  1.00  0.00    -0.168 NA
HETATM    9  C   UNL     1       4.349  27.777  48.848  1.00  0.00     0.156 A 
HETATM   10  C   UNL     1       3.949  28.365  52.359  1.00  0.00     0.034 A 
ENDROOT
BRANCH   2  11
HETATM   11  N   UNL     1       5.820  25.139  52.859  1.00  0.00    -0.323 N 
HETATM   12  C   UNL     1       6.955  25.146  53.649  1.00  0.00     0.256 C 
HETATM   13  O   UNL     1       7.594  26.125  54.013  1.00  0.00    -0.267 OA
HETATM   14  H   UNL     1       5.342  24.258  52.722  1.00  0.00     0.169 HD
BRANCH  12  15
HETATM   15  C   UNL     1       7.415  23.813  54.126  1.00  0.00     0.038 A 
HETATM   16  C   UNL     1       7.586  23.521  55.479  1.00  0.00     0.061 A 
HETATM   17  C   UNL     1       8.009  22.246  55.803  1.00  0.00     0.128 A 
HETATM   18 CL   UNL     1       8.255  21.797  57.440  1.00  0.00    -0.062 Cl
HETATM   19  N   UNL     1       8.261  21.270  54.914  1.00  0.00    -0.225 NA
HETATM   20  C   UNL     1       8.062  21.584  53.621  1.00  0.00     0.128 A 
HETATM   21 CL   UNL     1       8.377  20.309  52.520  1.00  0.00    -0.062 Cl
HETATM   22  C   UNL     1       7.643  22.820  53.172  1.00  0.00     0.061 A 
ENDBRANCH  12  15
ENDBRANCH   2  11
BRANCH   9  23
HETATM   23  C   UNL     1       4.798  27.067  47.642  1.00  0.00     0.270 C 
HETATM   24  N   UNL     1       6.056  27.408  47.228  1.00  0.00    -0.365 N 
HETATM   25  H   UNL     1       6.573  28.095  47.761  1.00  0.00     0.159 HD
HETATM   26  H   UNL     1       6.453  26.969  46.412  1.00  0.00     0.159 HD
HETATM   27  O   UNL     1       4.126  26.235  47.039  1.00  0.00    -0.266 OA
ENDBRANCH   9  23
TORSDOF 3
ENDMDL
MODEL 2
REMARK VINA RESULT:      -9.0      0.164      1.812
REMARK  3 active torsions:
REMARK  status: ('A' for Active; 'I' for Inactive)
REMARK    1  A    between atoms: C_2  and  N_3 
REMARK       I    between atoms: N_3  and  C_4 
REMARK    2  A    between atoms: C_4  and  C_5 
REMARK    3  A    between atoms: C_20  and  C_21 
REMARK       I    between atoms: C_21  and  N_22 
ROOT
HETATM    1  C   UNL     1       4.671  27.144  52.995  1.00  0.00     0.032 A 
HETATM    2  C   UNL     1       5.256  26.132  52.231  1.00  0.00     0.036 A 
HETATM    3  C   UNL     1       5.236  26.226  50.829  1.00  0.00     0.046 A 
HETATM    4  C   UNL     1       4.624  27.334  50.208  1.00  0.00     0.030 A 
HETATM    5  C   UNL     1       4.048  28.313  51.005  1.00  0.00     0.063 A 
HETATM    6  N   UNL     1       3.539  29.236  50.135  1.00  0.00    -0.277 N 
HETATM    7  H   UNL     1       3.043  30.089  50.367  1.00  0.00     0.189 HD
HETATM    8  N   UNL     1       3.742  28.948  48.837  1.00  0.00    -0.168 NA
HETATM    9  C   UNL     1       4.413  27.775  48.869  1.00  0.00     0.156 A 
HETATM   10  C   UNL     1       4.051  28.254  52.400  1.00  0.00     0.034 A 
ENDROOT
BRANCH   2  11
HETATM   11  N   UNL     1       5.884  24.990  52.779  1.00  0.00    -0.323 N 
HETATM   12  C   UNL     1       6.944  24.963  53.666  1.00  0.00     0.256 C 
HETATM   13  O   UNL     1       7.510  25.927  54.168  1.00  0.00    -0.267 OA
HETATM   14  H   UNL     1       5.455  24.110  52.524  1.00  0.00     0.169 HD
BRANCH  12  15
HETATM   15  C   UNL     1       7.414  23.609  54.067  1.00  0.00     0.038 A 
HETATM   16  C   UNL     1       7.715  22.616  53.136  1.00  0.00     0.061 A 
HETATM   17  C   UNL     1       8.150  21.399  53.626  1.00  0.00     0.128 A 
HETATM   18 CL   UNL     1       8.536  20.115  52.557  1.00  0.00    -0.062 Cl
HETATM   19  N   UNL     1       8.311  21.108  54.928  1.00  0.00    -0.225 NA
HETATM   20  C   UNL     1       8.033  22.100  55.793  1.00  0.00     0.128 A 
HETATM   21 CL   UNL     1       8.267  21.695  57.443  1.00  0.00    -0.062 Cl
HETATM   22  C   UNL     1       7.590  23.355  55.428  1.00  0.00     0.061 A 
ENDBRANCH  12  15
ENDBRANCH   2  11
BRANCH   9  23
HETATM   23  C   UNL     1       4.841  27.099  47.636  1.00  0.00     0.270 C 
HETATM   24  N   UNL     1       6.018  27.568  47.121  1.00  0.00    -0.365 N 
HETATM   25  H   UNL     1       6.497  28.317  47.606  1.00  0.00     0.159 HD
HETATM   26  H   UNL     1       6.397  27.162  46.279  1.00  0.00     0.159 HD
HETATM   27  O   UNL     1       4.221  26.189  47.094  1.00  0.00    -0.266 OA
ENDBRANCH   9  23
TORSDOF 3
ENDMDL
MODEL 3
REMARK VINA RESULT:      -8.9     10.730     12.482
REMARK  3 active torsions:
REMARK  status: ('A' for Active; 'I' for Inactive)
REMARK    1  A    between atoms: C_2  and  N_3 
REMARK       I    between atoms: N_3  and  C_4 
REMARK    2  A    between atoms: C_4  and  C_5 
REMARK    3  A    between atoms: C_20  and  C_21 
REMARK       I    between atoms: C_21  and  N_22 
ROOT
HETATM    1  C   UNL     1       7.901  32.344  63.327  1.00  0.00     0.032 A 
HETATM    2  C   UNL     1       7.049  32.025  62.268  1.00  0.00     0.036 A 
HETATM    3  C   UNL     1       5.723  32.494  62.283  1.00  0.00     0.046 A 
HETATM    4  C   UNL     1       5.267  33.273  63.365  1.00  0.00     0.030 A 
HETATM    5  C   UNL     1       6.145  33.560  64.400  1.00  0.00     0.063 A 
HETATM    6  N   UNL     1       5.426  34.312  65.288  1.00  0.00    -0.277 N 
HETATM    7  H   UNL     1       5.749  34.697  66.168  1.00  0.00     0.189 HD
HETATM    8  N   UNL     1       4.156  34.547  64.915  1.00  0.00    -0.168 NA
HETATM    9  C   UNL     1       4.044  33.912  63.727  1.00  0.00     0.156 A 
HETATM   10  C   UNL     1       7.468  33.115  64.417  1.00  0.00     0.034 A 
ENDROOT
BRANCH   2  11
HETATM   11  N   UNL     1       7.431  31.247  61.152  1.00  0.00    -0.323 N 
HETATM   12  C   UNL     1       8.147  31.666  60.045  1.00  0.00     0.256 C 
HETATM   13  O   UNL     1       8.612  32.781  59.848  1.00  0.00    -0.267 OA
HETATM   14  H   UNL     1       7.195  30.266  61.221  1.00  0.00     0.169 HD
BRANCH  12  15
HETATM   15  C   UNL     1       8.397  30.627  59.009  1.00  0.00     0.038 A 
HETATM   16  C   UNL     1       7.393  29.780  58.543  1.00  0.00     0.061 A 
HETATM   17  C   UNL     1       7.740  28.859  57.572  1.00  0.00     0.128 A 
HETATM   18 CL   UNL     1       6.574  27.769  56.945  1.00  0.00    -0.062 Cl
HETATM   19  N   UNL     1       8.969  28.727  57.043  1.00  0.00    -0.225 NA
HETATM   20  C   UNL     1       9.904  29.579  57.502  1.00  0.00     0.128 A 
HETATM   21 CL   UNL     1      11.452  29.390  56.791  1.00  0.00    -0.062 Cl
HETATM   22  C   UNL     1       9.681  30.538  58.468  1.00  0.00     0.061 A 
ENDBRANCH  12  15
ENDBRANCH   2  11
BRANCH   9  23
HETATM   23  C   UNL     1       2.790  33.924  62.961  1.00  0.00     0.270 C 
HETATM   24  N   UNL     1       1.664  33.816  63.730  1.00  0.00    -0.365 N 
HETATM   25  H   UNL     1       1.767  33.742  64.735  1.00  0.00     0.159 HD
HETATM   26  H   UNL     1       0.755  33.821  63.295  1.00  0.00     0.159 HD
HETATM   27  O   UNL     1       2.727  34.024  61.740  1.00  0.00    -0.266 OA
ENDBRANCH   9  23
TORSDOF 3
ENDMDL
MODEL 4
REMARK VINA RESULT:      -8.8      6.402      8.350
REMARK  3 active torsions:
REMARK  status: ('A' for Active; 'I' for Inactive)
REMARK    1  A    between atoms: C_2  and  N_3 
REMARK       I    between atoms: N_3  and  C_4 
REMARK    2  A    between atoms: C_4  and  C_5 
REMARK    3  A    between atoms: C_20  and  C_21 
REMARK       I    between atoms: C_21  and  N_22 
ROOT
HETATM    1  C   UNL     1      10.279  29.252  56.914  1.00  0.00     0.032 A 
HETATM    2  C   UNL     1       8.929  28.903  56.988  1.00  0.00     0.036 A 
HETATM    3  C   UNL     1       8.060  29.672  57.782  1.00  0.00     0.046 A 
HETATM    4  C   UNL     1       8.558  30.780  58.497  1.00  0.00     0.030 A 
HETATM    5  C   UNL     1       9.908  31.086  58.401  1.00  0.00     0.063 A 
HETATM    6  N   UNL     1      10.088  32.185  59.195  1.00  0.00    -0.277 N 
HETATM    7  H   UNL     1      10.954  32.682  59.366  1.00  0.00     0.189 HD
HETATM    8  N   UNL     1       8.968  32.627  59.793  1.00  0.00    -0.168 NA
HETATM    9  C   UNL     1       8.014  31.768  59.370  1.00  0.00     0.156 A 
HETATM   10  C   UNL     1      10.799  30.348  57.621  1.00  0.00     0.034 A 
ENDROOT
BRANCH   2  11
HETATM   11  N   UNL     1       8.357  27.806  56.305  1.00  0.00    -0.323 N 
HETATM   12  C   UNL     1       8.002  26.581  56.839  1.00  0.00     0.256 C 
HETATM   13  O   UNL     1       8.085  26.235  58.011  1.00  0.00    -0.267 OA
HETATM   14  H   UNL     1       8.138  27.982  55.333  1.00  0.00     0.169 HD
BRANCH  12  15
HETATM   15  C   UNL     1       7.428  25.601  55.876  1.00  0.00     0.038 A 
HETATM   16  C   UNL     1       6.444  25.949  54.953  1.00  0.00     0.061 A 
HETATM   17  C   UNL     1       5.993  24.956  54.103  1.00  0.00     0.128 A 
HETATM   18 CL   UNL     1       4.778  25.289  52.939  1.00  0.00    -0.062 Cl
HETATM   19  N   UNL     1       6.438  23.688  54.098  1.00  0.00    -0.225 NA
HETATM   20  C   UNL     1       7.404  23.398  54.988  1.00  0.00     0.128 A 
HETATM   21 CL   UNL     1       7.957  21.776  54.939  1.00  0.00    -0.062 Cl
HETATM   22  C   UNL     1       7.934  24.300  55.888  1.00  0.00     0.061 A 
ENDBRANCH  12  15
ENDBRANCH   2  11
BRANCH   9  23
HETATM   23  C   UNL     1       6.614  31.901  59.795  1.00  0.00     0.270 C 
HETATM   24  N   UNL     1       6.407  31.649  61.124  1.00  0.00    -0.365 N 
HETATM   25  H   UNL     1       7.201  31.401  61.701  1.00  0.00     0.159 HD
HETATM   26  H   UNL     1       5.479  31.720  61.511  1.00  0.00     0.159 HD
HETATM   27  O   UNL     1       5.690  32.210  59.049  1.00  0.00    -0.266 OA
ENDBRANCH   9  23
TORSDOF 3
ENDMDL
MODEL 5
REMARK VINA RESULT:      -8.7      3.580      7.918
REMARK  3 active torsions:
REMARK  status: ('A' for Active; 'I' for Inactive)
REMARK    1  A    between atoms: C_2  and  N_3 
REMARK       I    between atoms: N_3  and  C_4 
REMARK    2  A    between atoms: C_4  and  C_5 
REMARK    3  A    between atoms: C_20  and  C_21 
REMARK       I    between atoms: C_21  and  N_22 
ROOT
HETATM    1  C   UNL     1       7.092  25.766  55.669  1.00  0.00     0.032 A 
HETATM    2  C   UNL     1       6.992  25.166  54.412  1.00  0.00     0.036 A 
HETATM    3  C   UNL     1       7.321  23.807  54.267  1.00  0.00     0.046 A 
HETATM    4  C   UNL     1       7.751  23.066  55.387  1.00  0.00     0.030 A 
HETATM    5  C   UNL     1       7.842  23.703  56.616  1.00  0.00     0.063 A 
HETATM    6  N   UNL     1       8.284  22.747  57.488  1.00  0.00    -0.277 N 
HETATM    7  H   UNL     1       8.469  22.859  58.478  1.00  0.00     0.189 HD
HETATM    8  N   UNL     1       8.479  21.538  56.934  1.00  0.00    -0.168 NA
HETATM    9  C   UNL     1       8.152  21.720  55.636  1.00  0.00     0.156 A 
HETATM   10  C   UNL     1       7.522  25.050  56.797  1.00  0.00     0.034 A 
ENDROOT
BRANCH   2  11
HETATM   11  N   UNL     1       6.574  25.843  53.244  1.00  0.00    -0.323 N 
HETATM   12  C   UNL     1       5.364  25.708  52.587  1.00  0.00     0.256 C 
HETATM   13  O   UNL     1       4.420  25.003  52.920  1.00  0.00    -0.267 OA
HETATM   14  H   UNL     1       7.224  26.539  52.903  1.00  0.00     0.169 HD
BRANCH  12  15
HETATM   15  C   UNL     1       5.199  26.541  51.364  1.00  0.00     0.038 A 
HETATM   16  C   UNL     1       5.531  27.895  51.332  1.00  0.00     0.061 A 
HETATM   17  C   UNL     1       5.343  28.565  50.138  1.00  0.00     0.128 A 
HETATM   18 CL   UNL     1       5.715  30.234  50.005  1.00  0.00    -0.062 Cl
HETATM   19  N   UNL     1       4.871  28.007  49.010  1.00  0.00    -0.225 NA
HETATM   20  C   UNL     1       4.585  26.694  49.075  1.00  0.00     0.128 A 
HETATM   21 CL   UNL     1       4.003  26.016  47.612  1.00  0.00    -0.062 Cl
HETATM   22  C   UNL     1       4.729  25.918  50.207  1.00  0.00     0.061 A 
ENDBRANCH  12  15
ENDBRANCH   2  11
BRANCH   9  23
HETATM   23  C   UNL     1       8.222  20.622  54.662  1.00  0.00     0.270 C 
HETATM   24  N   UNL     1       9.059  19.603  55.027  1.00  0.00    -0.365 N 
HETATM   25  H   UNL     1       9.550  19.671  55.910  1.00  0.00     0.159 HD
HETATM   26  H   UNL     1       9.169  18.802  54.425  1.00  0.00     0.159 HD
HETATM   27  O   UNL     1       7.597  20.592  53.606  1.00  0.00    -0.266 OA
ENDBRANCH   9  23
TORSDOF 3
ENDMDL
MODEL 6
REMARK VINA RESULT:      -8.7      5.429      8.176
REMARK  3 active torsions:
REMARK  status: ('A' for Active; 'I' for Inactive)
REMARK    1  A    between atoms: C_2  and  N_3 
REMARK       I    between atoms: N_3  and  C_4 
REMARK    2  A    between atoms: C_4  and  C_5 
REMARK    3  A    between atoms: C_20  and  C_21 
REMARK       I    between atoms: C_21  and  N_22 
ROOT
HETATM    1  C   UNL     1       7.446  24.951  53.175  1.00  0.00     0.032 A 
HETATM    2  C   UNL     1       7.720  25.022  54.543  1.00  0.00     0.036 A 
HETATM    3  C   UNL     1       8.051  23.848  55.242  1.00  0.00     0.046 A 
HETATM    4  C   UNL     1       8.099  22.615  54.560  1.00  0.00     0.030 A 
HETATM    5  C   UNL     1       7.813  22.589  53.203  1.00  0.00     0.063 A 
HETATM    6  N   UNL     1       7.932  21.279  52.831  1.00  0.00    -0.277 N 
HETATM    7  H   UNL     1       7.790  20.888  51.907  1.00  0.00     0.189 HD
HETATM    8  N   UNL     1       8.282  20.448  53.829  1.00  0.00    -0.168 NA
HETATM    9  C   UNL     1       8.390  21.261  54.903  1.00  0.00     0.156 A 
HETATM   10  C   UNL     1       7.483  23.734  52.476  1.00  0.00     0.034 A 
ENDROOT
BRANCH   2  11
HETATM   11  N   UNL     1       7.688  26.217  55.295  1.00  0.00    -0.323 N 
HETATM   12  C   UNL     1       6.578  26.831  55.846  1.00  0.00     0.256 C 
HETATM   13  O   UNL     1       5.422  26.428  55.813  1.00  0.00    -0.267 OA
HETATM   14  H   UNL     1       8.597  26.619  55.488  1.00  0.00     0.169 HD
BRANCH  12  15
HETATM   15  C   UNL     1       6.841  28.098  56.582  1.00  0.00     0.038 A 
HETATM   16  C   UNL     1       5.815  28.935  57.019  1.00  0.00     0.061 A 
HETATM   17  C   UNL     1       6.180  30.081  57.700  1.00  0.00     0.128 A 
HETATM   18 CL   UNL     1       4.988  31.175  58.268  1.00  0.00    -0.062 Cl
HETATM   19  N   UNL     1       7.445  30.441  57.975  1.00  0.00    -0.225 NA
HETATM   20  C   UNL     1       8.404  29.596  57.557  1.00  0.00     0.128 A 
HETATM   21 CL   UNL     1      10.002  30.082  57.942  1.00  0.00    -0.062 Cl
HETATM   22  C   UNL     1       8.167  28.424  56.868  1.00  0.00     0.061 A 
ENDBRANCH  12  15
ENDBRANCH   2  11
BRANCH   9  23
HETATM   23  C   UNL     1       8.766  20.745  56.227  1.00  0.00     0.270 C 
HETATM   24  N   UNL     1       9.822  19.876  56.208  1.00  0.00    -0.365 N 
HETATM   25  H   UNL     1      10.257  19.659  55.320  1.00  0.00     0.159 HD
HETATM   26  H   UNL     1      10.158  19.473  57.069  1.00  0.00     0.159 HD
HETATM   27  O   UNL     1       8.203  21.049  57.274  1.00  0.00    -0.266 OA
ENDBRANCH   9  23
TORSDOF 3
ENDMDL
MODEL 7
REMARK VINA RESULT:      -8.6      5.484      7.162
REMARK  3 active torsions:
REMARK  status: ('A' for Active; 'I' for Inactive)
REMARK    1  A    between atoms: C_2  and  N_3 
REMARK       I    between atoms: N_3  and  C_4 
REMARK    2  A    between atoms: C_4  and  C_5 
REMARK    3  A    between atoms: C_20  and  C_21 
REMARK       I    between atoms: C_21  and  N_22 
ROOT
HETATM    1  C   UNL     1       9.112  28.966  57.543  1.00  0.00     0.032 A 
HETATM    2  C   UNL     1       7.926  28.399  57.073  1.00  0.00     0.036 A 
HETATM    3  C   UNL     1       6.711  29.080  57.269  1.00  0.00     0.046 A 
HETATM    4  C   UNL     1       6.701  30.319  57.940  1.00  0.00     0.030 A 
HETATM    5  C   UNL     1       7.902  30.842  58.397  1.00  0.00     0.063 A 
HETATM    6  N   UNL     1       7.577  32.026  58.999  1.00  0.00    -0.277 N 
HETATM    7  H   UNL     1       8.208  32.678  59.450  1.00  0.00     0.189 HD
HETATM    8  N   UNL     1       6.266  32.324  58.965  1.00  0.00    -0.168 NA
HETATM    9  C   UNL     1       5.714  31.279  58.312  1.00  0.00     0.156 A 
HETATM   10  C   UNL     1       9.127  30.197  58.218  1.00  0.00     0.034 A 
ENDROOT
BRANCH   2  11
HETATM   11  N   UNL     1       7.854  27.161  56.397  1.00  0.00    -0.323 N 
HETATM   12  C   UNL     1       7.963  25.898  56.949  1.00  0.00     0.256 C 
HETATM   13  O   UNL     1       8.104  25.621  58.133  1.00  0.00    -0.267 OA
HETATM   14  H   UNL     1       7.642  27.231  55.410  1.00  0.00     0.169 HD
BRANCH  12  15
HETATM   15  C   UNL     1       7.862  24.764  55.989  1.00  0.00     0.038 A 
HETATM   16  C   UNL     1       7.787  23.436  56.406  1.00  0.00     0.061 A 
HETATM   17  C   UNL     1       7.687  22.469  55.424  1.00  0.00     0.128 A 
HETATM   18 CL   UNL     1       7.598  20.808  55.841  1.00  0.00    -0.062 Cl
HETATM   19  N   UNL     1       7.652  22.715  54.103  1.00  0.00    -0.225 NA
HETATM   20  C   UNL     1       7.703  24.010  53.743  1.00  0.00     0.128 A 
HETATM   21 CL   UNL     1       7.637  24.283  52.052  1.00  0.00    -0.062 Cl
HETATM   22  C   UNL     1       7.804  25.064  54.627  1.00  0.00     0.061 A 
ENDBRANCH  12  15
ENDBRANCH   2  11
BRANCH   9  23
HETATM   23  C   UNL     1       4.269  31.209  58.052  1.00  0.00     0.270 C 
HETATM   24  N   UNL     1       3.565  30.508  58.992  1.00  0.00    -0.365 N 
HETATM   25  H   UNL     1       4.066  30.105  59.774  1.00  0.00     0.159 HD
HETATM   26  H   UNL     1       2.565  30.410  58.903  1.00  0.00     0.159 HD
HETATM   27  O   UNL     1       3.714  31.725  57.087  1.00  0.00    -0.266 OA
ENDBRANCH   9  23
TORSDOF 3
ENDMDL
MODEL 8
REMARK VINA RESULT:      -8.6      5.782      8.214
REMARK  3 active torsions:
REMARK  status: ('A' for Active; 'I' for Inactive)
REMARK    1  A    between atoms: C_2  and  N_3 
REMARK       I    between atoms: N_3  and  C_4 
REMARK    2  A    between atoms: C_4  and  C_5 
REMARK    3  A    between atoms: C_20  and  C_21 
REMARK       I    between atoms: C_21  and  N_22 
ROOT
HETATM    1  C   UNL     1       8.388  25.345  57.439  1.00  0.00     0.032 A 
HETATM    2  C   UNL     1       7.602  26.382  56.932  1.00  0.00     0.036 A 
HETATM    3  C   UNL     1       6.920  26.199  55.716  1.00  0.00     0.046 A 
HETATM    4  C   UNL     1       7.040  24.979  55.020  1.00  0.00     0.030 A 
HETATM    5  C   UNL     1       7.838  23.979  55.557  1.00  0.00     0.063 A 
HETATM    6  N   UNL     1       7.763  22.940  54.671  1.00  0.00    -0.277 N 
HETATM    7  H   UNL     1       8.225  22.041  54.739  1.00  0.00     0.189 HD
HETATM    8  N   UNL     1       6.975  23.175  53.606  1.00  0.00    -0.168 NA
HETATM    9  C   UNL     1       6.521  24.431  53.810  1.00  0.00     0.156 A 
HETATM   10  C   UNL     1       8.527  24.123  56.762  1.00  0.00     0.034 A 
ENDROOT
BRANCH   2  11
HETATM   11  N   UNL     1       7.435  27.632  57.568  1.00  0.00    -0.323 N 
HETATM   12  C   UNL     1       8.355  28.663  57.642  1.00  0.00     0.256 C 
HETATM   13  O   UNL     1       9.469  28.693  57.136  1.00  0.00    -0.267 OA
HETATM   14  H   UNL     1       6.514  27.790  57.955  1.00  0.00     0.169 HD
BRANCH  12  15
HETATM   15  C   UNL     1       7.911  29.869  58.392  1.00  0.00     0.038 A 
HETATM   16  C   UNL     1       6.777  30.597  58.035  1.00  0.00     0.061 A 
HETATM   17  C   UNL     1       6.458  31.695  58.812  1.00  0.00     0.128 A 
HETATM   18 CL   UNL     1       5.086  32.656  58.444  1.00  0.00    -0.062 Cl
HETATM   19  N   UNL     1       7.155  32.105  59.885  1.00  0.00    -0.225 NA
HETATM   20  C   UNL     1       8.228  31.363  60.211  1.00  0.00     0.128 A 
HETATM   21 CL   UNL     1       9.080  31.908  61.596  1.00  0.00    -0.062 Cl
HETATM   22  C   UNL     1       8.649  30.249  59.515  1.00  0.00     0.061 A 
ENDBRANCH  12  15
ENDBRANCH   2  11
BRANCH   9  23
HETATM   23  C   UNL     1       5.608  25.084  52.862  1.00  0.00     0.270 C 
HETATM   24  N   UNL     1       4.298  25.080  53.255  1.00  0.00    -0.365 N 
HETATM   25  H   UNL     1       4.057  24.648  54.138  1.00  0.00     0.159 HD
HETATM   26  H   UNL     1       3.596  25.510  52.672  1.00  0.00     0.159 HD
HETATM   27  O   UNL     1       5.960  25.598  51.805  1.00  0.00    -0.266 OA
ENDBRANCH   9  23
TORSDOF 3
ENDMDL
MODEL 9
REMARK VINA RESULT:      -8.5      3.750      8.303
REMARK  3 active torsions:
REMARK  status: ('A' for Active; 'I' for Inactive)
REMARK    1  A    between atoms: C_2  and  N_3 
REMARK       I    between atoms: N_3  and  C_4 
REMARK    2  A    between atoms: C_4  and  C_5 
REMARK    3  A    between atoms: C_20  and  C_21 
REMARK       I    between atoms: C_21  and  N_22 
ROOT
HETATM    1  C   UNL     1       7.996  23.364  52.486  1.00  0.00     0.032 A 
HETATM    2  C   UNL     1       7.346  24.562  52.789  1.00  0.00     0.036 A 
HETATM    3  C   UNL     1       7.243  24.972  54.130  1.00  0.00     0.046 A 
HETATM    4  C   UNL     1       7.790  24.171  55.152  1.00  0.00     0.030 A 
HETATM    5  C   UNL     1       8.421  22.984  54.808  1.00  0.00     0.063 A 
HETATM    6  N   UNL     1       8.834  22.436  55.990  1.00  0.00    -0.277 N 
HETATM    7  H   UNL     1       9.330  21.562  56.120  1.00  0.00     0.189 HD
HETATM    8  N   UNL     1       8.535  23.170  57.077  1.00  0.00    -0.168 NA
HETATM    9  C   UNL     1       7.890  24.245  56.573  1.00  0.00     0.156 A 
HETATM   10  C   UNL     1       8.544  22.547  53.488  1.00  0.00     0.034 A 
ENDROOT
BRANCH   2  11
HETATM   11  N   UNL     1       6.769  25.416  51.821  1.00  0.00    -0.323 N 
HETATM   12  C   UNL     1       5.428  25.543  51.509  1.00  0.00     0.256 C 
HETATM   13  O   UNL     1       4.490  24.963  52.042  1.00  0.00    -0.267 OA
HETATM   14  H   UNL     1       7.424  26.034  51.360  1.00  0.00     0.169 HD
BRANCH  12  15
HETATM   15  C   UNL     1       5.107  26.516  50.430  1.00  0.00     0.038 A 
HETATM   16  C   UNL     1       4.303  26.186  49.341  1.00  0.00     0.061 A 
HETATM   17  C   UNL     1       4.067  27.176  48.405  1.00  0.00     0.128 A 
HETATM   18 CL   UNL     1       3.096  26.860  47.027  1.00  0.00    -0.062 Cl
HETATM   19  N   UNL     1       4.548  28.429  48.473  1.00  0.00    -0.225 NA
HETATM   20  C   UNL     1       5.300  28.714  49.551  1.00  0.00     0.128 A 
HETATM   21 CL   UNL     1       5.881  30.326  49.610  1.00  0.00    -0.062 Cl
HETATM   22  C   UNL     1       5.607  27.814  50.550  1.00  0.00     0.061 A 
ENDBRANCH  12  15
ENDBRANCH   2  11
BRANCH   9  23
HETATM   23  C   UNL     1       7.387  25.318  57.442  1.00  0.00     0.270 C 
HETATM   24  N   UNL     1       6.024  25.351  57.558  1.00  0.00    -0.365 N 
HETATM   25  H   UNL     1       5.478  24.659  57.060  1.00  0.00     0.159 HD
HETATM   26  H   UNL     1       5.585  26.049  58.138  1.00  0.00     0.159 HD
HETATM   27  O   UNL     1       8.100  26.127  58.027  1.00  0.00    -0.266 OA
ENDBRANCH   9  23
TORSDOF 3
ENDMDL
MODEL 10
REMARK VINA RESULT:      -8.4      4.872      6.928
REMARK  3 active torsions:
REMARK  status: ('A' for Active; 'I' for Inactive)
REMARK    1  A    between atoms: C_2  and  N_3 
REMARK       I    between atoms: N_3  and  C_4 
REMARK    2  A    between atoms: C_4  and  C_5 
REMARK    3  A    between atoms: C_20  and  C_21 
REMARK       I    between atoms: C_21  and  N_22 
ROOT
HETATM    1  C   UNL     1       5.035  27.745  56.222  1.00  0.00     0.032 A 
HETATM    2  C   UNL     1       6.250  27.194  56.633  1.00  0.00     0.036 A 
HETATM    3  C   UNL     1       7.142  27.975  57.388  1.00  0.00     0.046 A 
HETATM    4  C   UNL     1       6.806  29.304  57.717  1.00  0.00     0.030 A 
HETATM    5  C   UNL     1       5.592  29.814  57.282  1.00  0.00     0.063 A 
HETATM    6  N   UNL     1       5.553  31.101  57.741  1.00  0.00    -0.277 N 
HETATM    7  H   UNL     1       4.811  31.778  57.606  1.00  0.00     0.189 HD
HETATM    8  N   UNL     1       6.636  31.471  58.448  1.00  0.00    -0.168 NA
HETATM    9  C   UNL     1       7.417  30.369  58.442  1.00  0.00     0.156 A 
HETATM   10  C   UNL     1       4.680  29.067  56.533  1.00  0.00     0.034 A 
ENDROOT
BRANCH   2  11
HETATM   11  N   UNL     1       6.659  25.873  56.340  1.00  0.00    -0.323 N 
HETATM   12  C   UNL     1       7.172  25.402  55.146  1.00  0.00     0.256 C 
HETATM   13  O   UNL     1       7.401  26.053  54.134  1.00  0.00    -0.267 OA
HETATM   14  H   UNL     1       6.616  25.234  57.123  1.00  0.00     0.169 HD
BRANCH  12  15
HETATM   15  C   UNL     1       7.507  23.952  55.116  1.00  0.00     0.038 A 
HETATM   16  C   UNL     1       7.579  23.225  53.929  1.00  0.00     0.061 A 
HETATM   17  C   UNL     1       7.908  21.886  54.025  1.00  0.00     0.128 A 
HETATM   18 CL   UNL     1       8.012  20.910  52.619  1.00  0.00    -0.062 Cl
HETATM   19  N   UNL     1       8.168  21.239  55.174  1.00  0.00    -0.225 NA
HETATM   20  C   UNL     1       8.111  21.980  56.295  1.00  0.00     0.128 A 
HETATM   21 CL   UNL     1       8.466  21.123  57.736  1.00  0.00    -0.062 Cl
HETATM   22  C   UNL     1       7.794  23.322  56.329  1.00  0.00     0.061 A 
ENDBRANCH  12  15
ENDBRANCH   2  11
BRANCH   9  23
HETATM   23  C   UNL     1       8.720  30.345  59.121  1.00  0.00     0.270 C 
HETATM   24  N   UNL     1       9.786  30.576  58.295  1.00  0.00    -0.365 N 
HETATM   25  H   UNL     1       9.611  30.745  57.312  1.00  0.00     0.159 HD
HETATM   26  H   UNL     1      10.722  30.586  58.670  1.00  0.00     0.159 HD
HETATM   27  O   UNL     1       8.872  30.140  60.321  1.00  0.00    -0.266 OA
ENDBRANCH   9  23
TORSDOF 3
ENDMDL
