MODEL 1
REMARK VINA RESULT:     -10.4      0.000      0.000
REMARK  7 active torsions:
REMARK  status: ('A' for Active; 'I' for Inactive)
REMARK       I    between atoms: C_2  and  N_3 
REMARK    1  A    between atoms: N_3  and  C_4 
REMARK    2  A    between atoms: C_7  and  N_8 
REMARK       I    between atoms: N_8  and  C_9 
REMARK    3  A    between atoms: C_9  and  C_10 
REMARK       I    between atoms: C_10  and  N_11 
REMARK    4  A    between atoms: N_11  and  C_12 
REMARK    5  A    between atoms: C_12  and  C_13 
REMARK    6  A    between atoms: C_13  and  O_14 
REMARK    7  A    between atoms: C_13  and  C_15 
ROOT
HETATM    1  C   UNL     1       9.610  29.820  57.651  1.00  0.00     0.309 C 
HETATM    2  N   UNL     1       8.675  28.829  57.778  1.00  0.00    -0.350 N 
HETATM    3  O   UNL     1      10.530  29.854  56.845  1.00  0.00    -0.262 OA
HETATM    4  H   UNL     1       7.889  29.011  58.396  1.00  0.00     0.163 HD
ENDROOT
BRANCH   1   5
HETATM    5  C   UNL     1       9.419  30.980  58.656  1.00  0.00     0.313 C 
HETATM    6  N   UNL     1       8.549  30.643  59.673  1.00  0.00    -0.319 N 
HETATM    7  H   UNL     1       8.209  29.686  59.634  1.00  0.00     0.169 HD
HETATM    8  O   UNL     1      10.024  32.026  58.471  1.00  0.00    -0.262 OA
BRANCH   6   9
HETATM    9  C   UNL     1       8.069  31.475  60.699  1.00  0.00     0.035 A 
HETATM   10  C   UNL     1       6.974  32.326  60.559  1.00  0.00     0.032 A 
HETATM   11  C   UNL     1       6.516  33.089  61.642  1.00  0.00     0.032 A 
HETATM   12  C   UNL     1       7.153  33.021  62.880  1.00  0.00     0.034 A 
HETATM   13  C   UNL     1       8.267  32.186  63.014  1.00  0.00     0.032 A 
HETATM   14  C   UNL     1       8.717  31.414  61.935  1.00  0.00     0.032 A 
BRANCH  12  15
HETATM   15  N   UNL     1       6.740  33.738  64.022  1.00  0.00    -0.328 N 
HETATM   16  C   UNL     1       5.594  33.537  64.773  1.00  0.00     0.218 C 
HETATM   17  C   UNL     1       5.504  34.480  65.947  1.00  0.00     0.117 C 
HETATM   18  O   UNL     1       4.731  32.687  64.589  1.00  0.00    -0.274 OA
HETATM   19  H   UNL     1       7.375  34.456  64.345  1.00  0.00     0.169 HD
ENDBRANCH  12  15
ENDBRANCH   6   9
ENDBRANCH   1   5
BRANCH   2  20
HETATM   20  C   UNL     1       8.638  27.641  56.945  1.00  0.00     0.159 C 
BRANCH  20  21
HETATM   21  C   UNL     1       7.429  26.730  57.246  1.00  0.00     0.171 C 
BRANCH  21  22
HETATM   22  O   UNL     1       7.750  25.897  58.371  1.00  0.00    -0.389 OA
HETATM   23  H   UNL     1       8.611  25.493  58.164  1.00  0.00     0.210 HD
ENDBRANCH  21  22
BRANCH  21  24
HETATM   24  C   UNL     1       6.989  25.891  56.078  1.00  0.00     0.000 A 
HETATM   25  C   UNL     1       7.625  24.704  55.584  1.00  0.00     0.001 A 
HETATM   26  C   UNL     1       6.903  24.264  54.469  1.00  0.00     0.044 A 
HETATM   27  C   UNL     1       8.761  23.965  55.984  1.00  0.00     0.014 A 
HETATM   28  C   UNL     1       7.274  23.117  53.746  1.00  0.00     0.030 A 
HETATM   29  N   UNL     1       5.863  25.149  54.291  1.00  0.00    -0.360 N 
HETATM   30  C   UNL     1       8.406  22.411  54.161  1.00  0.00     0.002 A 
HETATM   31  C   UNL     1       9.142  22.827  55.265  1.00  0.00     0.001 A 
HETATM   32  C   UNL     1       4.846  25.085  53.266  1.00  0.00     0.155 C 
HETATM   33  C   UNL     1       5.918  26.138  55.238  1.00  0.00     0.101 A 
ENDBRANCH  21  24
ENDBRANCH  20  21
ENDBRANCH   2  20
TORSDOF 7
ENDMDL
MODEL 2
REMARK VINA RESULT:     -10.3      1.217      1.840
REMARK  7 active torsions:
REMARK  status: ('A' for Active; 'I' for Inactive)
REMARK       I    between atoms: C_2  and  N_3 
REMARK    1  A    between atoms: N_3  and  C_4 
REMARK    2  A    between atoms: C_7  and  N_8 
REMARK       I    between atoms: N_8  and  C_9 
REMARK    3  A    between atoms: C_9  and  C_10 
REMARK       I    between atoms: C_10  and  N_11 
REMARK    4  A    between atoms: N_11  and  C_12 
REMARK    5  A    between atoms: C_12  and  C_13 
REMARK    6  A    between atoms: C_13  and  O_14 
REMARK    7  A    between atoms: C_13  and  C_15 
ROOT
HETATM    1  C   UNL     1       9.605  30.002  57.459  1.00  0.00     0.309 C 
HETATM    2  N   UNL     1       8.412  29.652  56.887  1.00  0.00    -0.350 N 
HETATM    3  O   UNL     1      10.706  29.544  57.185  1.00  0.00    -0.262 OA
HETATM    4  H   UNL     1       7.603  30.222  57.116  1.00  0.00     0.163 HD
ENDROOT
BRANCH   1   5
HETATM    5  C   UNL     1       9.469  31.093  58.546  1.00  0.00     0.313 C 
HETATM    6  N   UNL     1       8.564  30.737  59.524  1.00  0.00    -0.319 N 
HETATM    7  H   UNL     1       8.167  29.808  59.409  1.00  0.00     0.169 HD
HETATM    8  O   UNL     1      10.141  32.110  58.449  1.00  0.00    -0.262 OA
BRANCH   6   9
HETATM    9  C   UNL     1       8.120  31.517  60.605  1.00  0.00     0.035 A 
HETATM   10  C   UNL     1       7.092  32.454  60.514  1.00  0.00     0.032 A 
HETATM   11  C   UNL     1       6.664  33.161  61.646  1.00  0.00     0.032 A 
HETATM   12  C   UNL     1       7.264  32.949  62.887  1.00  0.00     0.034 A 
HETATM   13  C   UNL     1       8.312  32.027  62.973  1.00  0.00     0.032 A 
HETATM   14  C   UNL     1       8.732  31.312  61.844  1.00  0.00     0.032 A 
BRANCH  12  15
HETATM   15  N   UNL     1       6.875  33.602  64.075  1.00  0.00    -0.328 N 
HETATM   16  C   UNL     1       5.694  33.437  64.777  1.00  0.00     0.218 C 
HETATM   17  C   UNL     1       5.645  34.285  66.025  1.00  0.00     0.117 C 
HETATM   18  O   UNL     1       4.770  32.681  64.502  1.00  0.00    -0.274 OA
HETATM   19  H   UNL     1       7.556  34.235  64.473  1.00  0.00     0.169 HD
ENDBRANCH  12  15
ENDBRANCH   6   9
ENDBRANCH   1   5
BRANCH   2  20
HETATM   20  C   UNL     1       8.280  28.657  55.837  1.00  0.00     0.159 C 
BRANCH  20  21
HETATM   21  C   UNL     1       7.120  27.670  56.083  1.00  0.00     0.171 C 
BRANCH  21  22
HETATM   22  O   UNL     1       6.623  27.867  57.416  1.00  0.00    -0.389 OA
HETATM   23  H   UNL     1       7.195  28.547  57.814  1.00  0.00     0.210 HD
ENDBRANCH  21  22
BRANCH  21  24
HETATM   24  C   UNL     1       7.487  26.228  55.866  1.00  0.00     0.000 A 
HETATM   25  C   UNL     1       7.599  25.550  54.606  1.00  0.00     0.001 A 
HETATM   26  C   UNL     1       7.933  24.216  54.867  1.00  0.00     0.044 A 
HETATM   27  C   UNL     1       7.438  25.953  53.263  1.00  0.00     0.014 A 
HETATM   28  C   UNL     1       8.112  23.278  53.836  1.00  0.00     0.030 A 
HETATM   29  N   UNL     1       8.024  24.087  56.235  1.00  0.00    -0.360 N 
HETATM   30  C   UNL     1       7.938  23.704  52.517  1.00  0.00     0.002 A 
HETATM   31  C   UNL     1       7.606  25.022  52.231  1.00  0.00     0.001 A 
HETATM   32  C   UNL     1       8.361  22.884  56.964  1.00  0.00     0.155 C 
HETATM   33  C   UNL     1       7.740  25.281  56.843  1.00  0.00     0.101 A 
ENDBRANCH  21  24
ENDBRANCH  20  21
ENDBRANCH   2  20
TORSDOF 7
ENDMDL
MODEL 3
REMARK VINA RESULT:      -9.6      7.572     12.326
REMARK  7 active torsions:
REMARK  status: ('A' for Active; 'I' for Inactive)
REMARK       I    between atoms: C_2  and  N_3 
REMARK    1  A    between atoms: N_3  and  C_4 
REMARK    2  A    between atoms: C_7  and  N_8 
REMARK       I    between atoms: N_8  and  C_9 
REMARK    3  A    between atoms: C_9  and  C_10 
REMARK       I    between atoms: C_10  and  N_11 
REMARK    4  A    between atoms: N_11  and  C_12 
REMARK    5  A    between atoms: C_12  and  C_13 
REMARK    6  A    between atoms: C_13  and  O_14 
REMARK    7  A    between atoms: C_13  and  C_15 
ROOT
HETATM    1  C   UNL     1       4.959  26.925  50.894  1.00  0.00     0.309 C 
HETATM    2  N   UNL     1       5.970  26.006  50.970  1.00  0.00    -0.350 N 
HETATM    3  O   UNL     1       4.531  27.613  51.812  1.00  0.00    -0.262 OA
HETATM    4  H   UNL     1       6.310  25.619  50.094  1.00  0.00     0.163 HD
ENDROOT
BRANCH   1   5
HETATM    5  C   UNL     1       4.350  27.057  49.479  1.00  0.00     0.313 C 
HETATM    6  N   UNL     1       3.162  27.758  49.492  1.00  0.00    -0.319 N 
HETATM    7  H   UNL     1       2.896  28.115  50.406  1.00  0.00     0.169 HD
HETATM    8  O   UNL     1       4.946  26.562  48.532  1.00  0.00    -0.262 OA
BRANCH   6   9
HETATM    9  C   UNL     1       2.290  27.984  48.414  1.00  0.00     0.035 A 
HETATM   10  C   UNL     1       1.269  27.110  48.045  1.00  0.00     0.032 A 
HETATM   11  C   UNL     1       0.402  27.425  46.989  1.00  0.00     0.032 A 
HETATM   12  C   UNL     1       0.548  28.616  46.280  1.00  0.00     0.034 A 
HETATM   13  C   UNL     1       1.587  29.481  46.633  1.00  0.00     0.032 A 
HETATM   14  C   UNL     1       2.447  29.172  47.695  1.00  0.00     0.032 A 
BRANCH  12  15
HETATM   15  N   UNL     1      -0.297  29.015  45.223  1.00  0.00    -0.328 N 
HETATM   16  C   UNL     1      -0.921  28.202  44.293  1.00  0.00     0.218 C 
HETATM   17  C   UNL     1      -1.777  28.986  43.328  1.00  0.00     0.117 C 
HETATM   18  O   UNL     1      -0.865  26.980  44.224  1.00  0.00    -0.274 OA
HETATM   19  H   UNL     1      -0.493  30.005  45.166  1.00  0.00     0.169 HD
ENDBRANCH  12  15
ENDBRANCH   6   9
ENDBRANCH   1   5
BRANCH   2  20
HETATM   20  C   UNL     1       6.704  25.708  52.187  1.00  0.00     0.159 C 
BRANCH  20  21
HETATM   21  C   UNL     1       6.035  24.610  53.041  1.00  0.00     0.171 C 
BRANCH  21  22
HETATM   22  O   UNL     1       4.859  25.157  53.655  1.00  0.00    -0.389 OA
HETATM   23  H   UNL     1       4.116  24.619  53.330  1.00  0.00     0.210 HD
ENDBRANCH  21  22
BRANCH  21  24
HETATM   24  C   UNL     1       6.941  24.009  54.080  1.00  0.00     0.000 A 
HETATM   25  C   UNL     1       7.569  22.720  54.031  1.00  0.00     0.001 A 
HETATM   26  C   UNL     1       8.298  22.554  55.214  1.00  0.00     0.044 A 
HETATM   27  C   UNL     1       7.576  21.672  53.085  1.00  0.00     0.014 A 
HETATM   28  C   UNL     1       9.031  21.385  55.480  1.00  0.00     0.030 A 
HETATM   29  N   UNL     1       8.123  23.701  55.956  1.00  0.00    -0.360 N 
HETATM   30  C   UNL     1       9.012  20.362  54.528  1.00  0.00     0.002 A 
HETATM   31  C   UNL     1       8.296  20.501  53.345  1.00  0.00     0.001 A 
HETATM   32  C   UNL     1       8.703  23.984  57.250  1.00  0.00     0.155 C 
HETATM   33  C   UNL     1       7.297  24.570  55.294  1.00  0.00     0.101 A 
ENDBRANCH  21  24
ENDBRANCH  20  21
ENDBRANCH   2  20
TORSDOF 7
ENDMDL
MODEL 4
REMARK VINA RESULT:      -9.6      1.731     10.326
REMARK  7 active torsions:
REMARK  status: ('A' for Active; 'I' for Inactive)
REMARK       I    between atoms: C_2  and  N_3 
REMARK    1  A    between atoms: N_3  and  C_4 
REMARK    2  A    between atoms: C_7  and  N_8 
REMARK       I    between atoms: N_8  and  C_9 
REMARK    3  A    between atoms: C_9  and  C_10 
REMARK       I    between atoms: C_10  and  N_11 
REMARK    4  A    between atoms: N_11  and  C_12 
REMARK    5  A    between atoms: C_12  and  C_13 
REMARK    6  A    between atoms: C_13  and  O_14 
REMARK    7  A    between atoms: C_13  and  C_15 
ROOT
HETATM    1  C   UNL     1       9.492  31.285  58.518  1.00  0.00     0.309 C 
HETATM    2  N   UNL     1       8.486  31.285  59.445  1.00  0.00    -0.350 N 
HETATM    3  O   UNL     1      10.295  32.186  58.316  1.00  0.00    -0.262 OA
HETATM    4  H   UNL     1       7.993  30.408  59.594  1.00  0.00     0.163 HD
ENDROOT
BRANCH   1   5
HETATM    5  C   UNL     1       9.563  29.984  57.686  1.00  0.00     0.313 C 
HETATM    6  N   UNL     1       8.312  29.457  57.444  1.00  0.00    -0.319 N 
HETATM    7  H   UNL     1       7.544  30.019  57.802  1.00  0.00     0.169 HD
HETATM    8  O   UNL     1      10.658  29.568  57.334  1.00  0.00    -0.262 OA
BRANCH   6   9
HETATM    9  C   UNL     1       8.002  28.242  56.810  1.00  0.00     0.035 A 
HETATM   10  C   UNL     1       7.825  28.108  55.434  1.00  0.00     0.032 A 
HETATM   11  C   UNL     1       7.569  26.854  54.863  1.00  0.00     0.032 A 
HETATM   12  C   UNL     1       7.477  25.714  55.660  1.00  0.00     0.034 A 
HETATM   13  C   UNL     1       7.630  25.852  57.043  1.00  0.00     0.032 A 
HETATM   14  C   UNL     1       7.897  27.103  57.613  1.00  0.00     0.032 A 
BRANCH  12  15
HETATM   15  N   UNL     1       7.246  24.416  55.159  1.00  0.00    -0.328 N 
HETATM   16  C   UNL     1       8.155  23.378  55.062  1.00  0.00     0.218 C 
HETATM   17  C   UNL     1       7.535  22.121  54.503  1.00  0.00     0.117 C 
HETATM   18  O   UNL     1       9.332  23.391  55.407  1.00  0.00    -0.274 OA
HETATM   19  H   UNL     1       6.296  24.217  54.873  1.00  0.00     0.169 HD
ENDBRANCH  12  15
ENDBRANCH   6   9
ENDBRANCH   1   5
BRANCH   2  20
HETATM   20  C   UNL     1       8.221  32.388  60.352  1.00  0.00     0.159 C 
BRANCH  20  21
HETATM   21  C   UNL     1       7.939  31.926  61.797  1.00  0.00     0.171 C 
BRANCH  21  22
HETATM   22  O   UNL     1       7.906  30.491  61.824  1.00  0.00    -0.389 OA
HETATM   23  H   UNL     1       7.513  30.219  60.975  1.00  0.00     0.210 HD
ENDBRANCH  21  22
BRANCH  21  24
HETATM   24  C   UNL     1       6.676  32.493  62.385  1.00  0.00     0.000 A 
HETATM   25  C   UNL     1       6.514  33.055  63.695  1.00  0.00     0.001 A 
HETATM   26  C   UNL     1       5.174  33.433  63.836  1.00  0.00     0.044 A 
HETATM   27  C   UNL     1       7.391  33.269  64.781  1.00  0.00     0.014 A 
HETATM   28  C   UNL     1       4.684  34.016  65.017  1.00  0.00     0.030 A 
HETATM   29  N   UNL     1       4.543  33.116  62.653  1.00  0.00    -0.360 N 
HETATM   30  C   UNL     1       5.573  34.208  66.077  1.00  0.00     0.002 A 
HETATM   31  C   UNL     1       6.909  33.841  65.964  1.00  0.00     0.001 A 
HETATM   32  C   UNL     1       3.150  33.340  62.336  1.00  0.00     0.155 C 
HETATM   33  C   UNL     1       5.430  32.535  61.785  1.00  0.00     0.101 A 
ENDBRANCH  21  24
ENDBRANCH  20  21
ENDBRANCH   2  20
TORSDOF 7
ENDMDL
MODEL 5
REMARK VINA RESULT:      -9.5      2.202     10.949
REMARK  7 active torsions:
REMARK  status: ('A' for Active; 'I' for Inactive)
REMARK       I    between atoms: C_2  and  N_3 
REMARK    1  A    between atoms: N_3  and  C_4 
REMARK    2  A    between atoms: C_7  and  N_8 
REMARK       I    between atoms: N_8  and  C_9 
REMARK    3  A    between atoms: C_9  and  C_10 
REMARK       I    between atoms: C_10  and  N_11 
REMARK    4  A    between atoms: N_11  and  C_12 
REMARK    5  A    between atoms: C_12  and  C_13 
REMARK    6  A    between atoms: C_13  and  O_14 
REMARK    7  A    between atoms: C_13  and  C_15 
ROOT
HETATM    1  C   UNL     1       6.821  30.221  58.030  1.00  0.00     0.309 C 
HETATM    2  N   UNL     1       7.311  30.661  59.229  1.00  0.00    -0.350 N 
HETATM    3  O   UNL     1       6.020  30.805  57.312  1.00  0.00    -0.262 OA
HETATM    4  H   UNL     1       8.077  30.134  59.638  1.00  0.00     0.163 HD
ENDROOT
BRANCH   1   5
HETATM    5  C   UNL     1       7.382  28.845  57.603  1.00  0.00     0.313 C 
HETATM    6  N   UNL     1       6.603  28.248  56.633  1.00  0.00    -0.319 N 
HETATM    7  H   UNL     1       5.820  28.814  56.318  1.00  0.00     0.169 HD
HETATM    8  O   UNL     1       8.408  28.437  58.130  1.00  0.00    -0.262 OA
BRANCH   6   9
HETATM    9  C   UNL     1       6.754  26.963  56.085  1.00  0.00     0.035 A 
HETATM   10  C   UNL     1       6.418  25.788  56.757  1.00  0.00     0.032 A 
HETATM   11  C   UNL     1       6.545  24.542  56.128  1.00  0.00     0.032 A 
HETATM   12  C   UNL     1       7.020  24.449  54.821  1.00  0.00     0.034 A 
HETATM   13  C   UNL     1       7.382  25.625  54.156  1.00  0.00     0.032 A 
HETATM   14  C   UNL     1       7.243  26.871  54.779  1.00  0.00     0.032 A 
BRANCH  12  15
HETATM   15  N   UNL     1       7.155  23.236  54.113  1.00  0.00    -0.328 N 
HETATM   16  C   UNL     1       8.168  22.301  54.232  1.00  0.00     0.218 C 
HETATM   17  C   UNL     1       7.957  21.108  53.332  1.00  0.00     0.117 C 
HETATM   18  O   UNL     1       9.133  22.349  54.986  1.00  0.00    -0.274 OA
HETATM   19  H   UNL     1       6.404  23.014  53.474  1.00  0.00     0.169 HD
ENDBRANCH  12  15
ENDBRANCH   6   9
ENDBRANCH   1   5
BRANCH   2  20
HETATM   20  C   UNL     1       6.942  31.927  59.838  1.00  0.00     0.159 C 
BRANCH  20  21
HETATM   21  C   UNL     1       7.259  31.986  61.347  1.00  0.00     0.171 C 
BRANCH  21  22
HETATM   22  O   UNL     1       7.555  30.659  61.807  1.00  0.00    -0.389 OA
HETATM   23  H   UNL     1       8.474  30.687  62.126  1.00  0.00     0.210 HD
ENDBRANCH  21  22
BRANCH  21  24
HETATM   24  C   UNL     1       6.167  32.601  62.177  1.00  0.00     0.000 A 
HETATM   25  C   UNL     1       6.282  33.094  63.520  1.00  0.00     0.001 A 
HETATM   26  C   UNL     1       5.019  33.552  63.917  1.00  0.00     0.044 A 
HETATM   27  C   UNL     1       7.349  33.185  64.439  1.00  0.00     0.014 A 
HETATM   28  C   UNL     1       4.792  34.096  65.192  1.00  0.00     0.030 A 
HETATM   29  N   UNL     1       4.168  33.348  62.854  1.00  0.00    -0.360 N 
HETATM   30  C   UNL     1       5.866  34.165  66.083  1.00  0.00     0.002 A 
HETATM   31  C   UNL     1       7.129  33.717  65.714  1.00  0.00     0.001 A 
HETATM   32  C   UNL     1       2.762  33.683  62.803  1.00  0.00     0.155 C 
HETATM   33  C   UNL     1       4.841  32.761  61.815  1.00  0.00     0.101 A 
ENDBRANCH  21  24
ENDBRANCH  20  21
ENDBRANCH   2  20
TORSDOF 7
ENDMDL
MODEL 6
REMARK VINA RESULT:      -9.5      1.399      1.809
REMARK  7 active torsions:
REMARK  status: ('A' for Active; 'I' for Inactive)
REMARK       I    between atoms: C_2  and  N_3 
REMARK    1  A    between atoms: N_3  and  C_4 
REMARK    2  A    between atoms: C_7  and  N_8 
REMARK       I    between atoms: N_8  and  C_9 
REMARK    3  A    between atoms: C_9  and  C_10 
REMARK       I    between atoms: C_10  and  N_11 
REMARK    4  A    between atoms: N_11  and  C_12 
REMARK    5  A    between atoms: C_12  and  C_13 
REMARK    6  A    between atoms: C_13  and  O_14 
REMARK    7  A    between atoms: C_13  and  C_15 
ROOT
HETATM    1  C   UNL     1       9.194  30.059  58.211  1.00  0.00     0.309 C 
HETATM    2  N   UNL     1       8.070  29.301  58.022  1.00  0.00    -0.350 N 
HETATM    3  O   UNL     1      10.285  29.887  57.682  1.00  0.00    -0.262 OA
HETATM    4  H   UNL     1       7.203  29.653  58.418  1.00  0.00     0.163 HD
ENDROOT
BRANCH   1   5
HETATM    5  C   UNL     1       8.989  31.231  59.198  1.00  0.00     0.313 C 
HETATM    6  N   UNL     1       8.247  30.855  60.298  1.00  0.00    -0.319 N 
HETATM    7  H   UNL     1       7.993  29.871  60.316  1.00  0.00     0.169 HD
HETATM    8  O   UNL     1       9.479  32.319  58.931  1.00  0.00    -0.262 OA
BRANCH   6   9
HETATM    9  C   UNL     1       7.786  31.676  61.341  1.00  0.00     0.035 A 
HETATM   10  C   UNL     1       8.388  31.745  62.597  1.00  0.00     0.032 A 
HETATM   11  C   UNL     1       7.906  32.626  63.575  1.00  0.00     0.032 A 
HETATM   12  C   UNL     1       6.809  33.447  63.316  1.00  0.00     0.034 A 
HETATM   13  C   UNL     1       6.190  33.360  62.065  1.00  0.00     0.032 A 
HETATM   14  C   UNL     1       6.678  32.488  61.083  1.00  0.00     0.032 A 
BRANCH  12  15
HETATM   15  N   UNL     1       6.281  34.374  64.237  1.00  0.00    -0.328 N 
HETATM   16  C   UNL     1       5.210  34.192  65.094  1.00  0.00     0.218 C 
HETATM   17  C   UNL     1       4.954  35.401  65.960  1.00  0.00     0.117 C 
HETATM   18  O   UNL     1       4.528  33.181  65.220  1.00  0.00    -0.274 OA
HETATM   19  H   UNL     1       6.767  35.259  64.299  1.00  0.00     0.169 HD
ENDBRANCH  12  15
ENDBRANCH   6   9
ENDBRANCH   1   5
BRANCH   2  20
HETATM   20  C   UNL     1       8.008  28.152  57.137  1.00  0.00     0.159 C 
BRANCH  20  21
HETATM   21  C   UNL     1       7.908  28.542  55.648  1.00  0.00     0.171 C 
BRANCH  21  22
HETATM   22  O   UNL     1       7.056  29.692  55.529  1.00  0.00    -0.389 OA
HETATM   23  H   UNL     1       6.174  29.399  55.819  1.00  0.00     0.210 HD
ENDBRANCH  21  22
BRANCH  21  24
HETATM   24  C   UNL     1       7.421  27.432  54.757  1.00  0.00     0.000 A 
HETATM   25  C   UNL     1       7.437  26.027  55.047  1.00  0.00     0.001 A 
HETATM   26  C   UNL     1       6.920  25.354  53.934  1.00  0.00     0.044 A 
HETATM   27  C   UNL     1       7.855  25.264  56.159  1.00  0.00     0.014 A 
HETATM   28  C   UNL     1       6.804  23.954  53.897  1.00  0.00     0.030 A 
HETATM   29  N   UNL     1       6.597  26.315  53.001  1.00  0.00    -0.360 N 
HETATM   30  C   UNL     1       7.234  23.226  55.009  1.00  0.00     0.002 A 
HETATM   31  C   UNL     1       7.752  23.869  56.127  1.00  0.00     0.001 A 
HETATM   32  C   UNL     1       6.016  26.084  51.697  1.00  0.00     0.155 C 
HETATM   33  C   UNL     1       6.912  27.560  53.477  1.00  0.00     0.101 A 
ENDBRANCH  21  24
ENDBRANCH  20  21
ENDBRANCH   2  20
TORSDOF 7
ENDMDL
MODEL 7
REMARK VINA RESULT:      -9.3      2.030      2.778
REMARK  7 active torsions:
REMARK  status: ('A' for Active; 'I' for Inactive)
REMARK       I    between atoms: C_2  and  N_3 
REMARK    1  A    between atoms: N_3  and  C_4 
REMARK    2  A    between atoms: C_7  and  N_8 
REMARK       I    between atoms: N_8  and  C_9 
REMARK    3  A    between atoms: C_9  and  C_10 
REMARK       I    between atoms: C_10  and  N_11 
REMARK    4  A    between atoms: N_11  and  C_12 
REMARK    5  A    between atoms: C_12  and  C_13 
REMARK    6  A    between atoms: C_13  and  O_14 
REMARK    7  A    between atoms: C_13  and  C_15 
ROOT
HETATM    1  C   UNL     1       5.946  31.805  58.575  1.00  0.00     0.309 C 
HETATM    2  N   UNL     1       6.342  30.496  58.575  1.00  0.00    -0.350 N 
HETATM    3  O   UNL     1       5.851  32.537  57.599  1.00  0.00    -0.262 OA
HETATM    4  H   UNL     1       6.232  29.979  59.444  1.00  0.00     0.163 HD
ENDROOT
BRANCH   1   5
HETATM    5  C   UNL     1       5.596  32.343  59.982  1.00  0.00     0.313 C 
HETATM    6  N   UNL     1       6.714  32.788  60.657  1.00  0.00    -0.319 N 
HETATM    7  H   UNL     1       7.576  32.740  60.118  1.00  0.00     0.169 HD
HETATM    8  O   UNL     1       4.429  32.331  60.345  1.00  0.00    -0.262 OA
BRANCH   6   9
HETATM    9  C   UNL     1       6.788  33.248  61.983  1.00  0.00     0.035 A 
HETATM   10  C   UNL     1       6.117  34.376  62.451  1.00  0.00     0.032 A 
HETATM   11  C   UNL     1       6.194  34.747  63.800  1.00  0.00     0.032 A 
HETATM   12  C   UNL     1       6.951  34.001  64.702  1.00  0.00     0.034 A 
HETATM   13  C   UNL     1       7.645  32.883  64.227  1.00  0.00     0.032 A 
HETATM   14  C   UNL     1       7.559  32.505  62.881  1.00  0.00     0.032 A 
BRANCH  12  15
HETATM   15  N   UNL     1       7.059  34.295  66.077  1.00  0.00    -0.328 N 
HETATM   16  C   UNL     1       6.061  34.227  67.033  1.00  0.00     0.218 C 
HETATM   17  C   UNL     1       6.559  34.586  68.411  1.00  0.00     0.117 C 
HETATM   18  O   UNL     1       4.897  33.885  66.862  1.00  0.00    -0.274 OA
HETATM   19  H   UNL     1       7.983  34.550  66.401  1.00  0.00     0.169 HD
ENDBRANCH  12  15
ENDBRANCH   6   9
ENDBRANCH   1   5
BRANCH   2  20
HETATM   20  C   UNL     1       6.713  29.762  57.378  1.00  0.00     0.159 C 
BRANCH  20  21
HETATM   21  C   UNL     1       7.339  28.385  57.684  1.00  0.00     0.171 C 
BRANCH  21  22
HETATM   22  O   UNL     1       8.759  28.545  57.822  1.00  0.00    -0.389 OA
HETATM   23  H   UNL     1       9.143  28.235  56.983  1.00  0.00     0.210 HD
ENDBRANCH  21  22
BRANCH  21  24
HETATM   24  C   UNL     1       7.024  27.330  56.659  1.00  0.00     0.000 A 
HETATM   25  C   UNL     1       7.527  25.987  56.625  1.00  0.00     0.001 A 
HETATM   26  C   UNL     1       7.002  25.363  55.487  1.00  0.00     0.044 A 
HETATM   27  C   UNL     1       8.392  25.247  57.460  1.00  0.00     0.014 A 
HETATM   28  C   UNL     1       7.309  24.031  55.161  1.00  0.00     0.030 A 
HETATM   29  N   UNL     1       6.206  26.290  54.854  1.00  0.00    -0.360 N 
HETATM   30  C   UNL     1       8.175  23.326  56.002  1.00  0.00     0.002 A 
HETATM   31  C   UNL     1       8.710  23.923  57.137  1.00  0.00     0.001 A 
HETATM   32  C   UNL     1       5.447  26.084  53.640  1.00  0.00     0.155 C 
HETATM   33  C   UNL     1       6.228  27.477  55.536  1.00  0.00     0.101 A 
ENDBRANCH  21  24
ENDBRANCH  20  21
ENDBRANCH   2  20
TORSDOF 7
ENDMDL
MODEL 8
REMARK VINA RESULT:      -9.2      3.192      5.387
REMARK  7 active torsions:
REMARK  status: ('A' for Active; 'I' for Inactive)
REMARK       I    between atoms: C_2  and  N_3 
REMARK    1  A    between atoms: N_3  and  C_4 
REMARK    2  A    between atoms: C_7  and  N_8 
REMARK       I    between atoms: N_8  and  C_9 
REMARK    3  A    between atoms: C_9  and  C_10 
REMARK       I    between atoms: C_10  and  N_11 
REMARK    4  A    between atoms: N_11  and  C_12 
REMARK    5  A    between atoms: C_12  and  C_13 
REMARK    6  A    between atoms: C_13  and  O_14 
REMARK    7  A    between atoms: C_13  and  C_15 
ROOT
HETATM    1  C   UNL     1       4.798  28.053  53.131  1.00  0.00     0.309 C 
HETATM    2  N   UNL     1       5.802  27.185  52.800  1.00  0.00    -0.350 N 
HETATM    3  O   UNL     1       3.668  28.071  52.663  1.00  0.00    -0.262 OA
HETATM    4  H   UNL     1       6.638  27.201  53.378  1.00  0.00     0.163 HD
ENDROOT
BRANCH   1   5
HETATM    5  C   UNL     1       5.204  29.080  54.213  1.00  0.00     0.313 C 
HETATM    6  N   UNL     1       6.163  28.578  55.068  1.00  0.00    -0.319 N 
HETATM    7  H   UNL     1       6.486  27.643  54.833  1.00  0.00     0.169 HD
HETATM    8  O   UNL     1       4.672  30.182  54.210  1.00  0.00    -0.262 OA
BRANCH   6   9
HETATM    9  C   UNL     1       6.691  29.190  56.217  1.00  0.00     0.035 A 
HETATM   10  C   UNL     1       5.988  30.105  57.001  1.00  0.00     0.032 A 
HETATM   11  C   UNL     1       6.559  30.637  58.166  1.00  0.00     0.032 A 
HETATM   12  C   UNL     1       7.845  30.271  58.560  1.00  0.00     0.034 A 
HETATM   13  C   UNL     1       8.560  29.374  57.760  1.00  0.00     0.032 A 
HETATM   14  C   UNL     1       7.985  28.832  56.603  1.00  0.00     0.032 A 
BRANCH  12  15
HETATM   15  N   UNL     1       8.479  30.744  59.728  1.00  0.00    -0.328 N 
HETATM   16  C   UNL     1       9.456  31.720  59.819  1.00  0.00     0.218 C 
HETATM   17  C   UNL     1       9.873  31.985  61.245  1.00  0.00     0.117 C 
HETATM   18  O   UNL     1       9.944  32.365  58.898  1.00  0.00    -0.274 OA
HETATM   19  H   UNL     1       8.151  30.346  60.598  1.00  0.00     0.169 HD
ENDBRANCH  12  15
ENDBRANCH   6   9
ENDBRANCH   1   5
BRANCH   2  20
HETATM   20  C   UNL     1       5.664  26.125  51.818  1.00  0.00     0.159 C 
BRANCH  20  21
HETATM   21  C   UNL     1       5.275  24.769  52.443  1.00  0.00     0.171 C 
BRANCH  21  22
HETATM   22  O   UNL     1       4.081  24.947  53.221  1.00  0.00    -0.389 OA
HETATM   23  H   UNL     1       4.312  25.588  53.916  1.00  0.00     0.210 HD
ENDBRANCH  21  22
BRANCH  21  24
HETATM   24  C   UNL     1       6.360  24.147  53.278  1.00  0.00     0.000 A 
HETATM   25  C   UNL     1       6.647  24.418  54.657  1.00  0.00     0.001 A 
HETATM   26  C   UNL     1       7.753  23.644  55.025  1.00  0.00     0.044 A 
HETATM   27  C   UNL     1       6.066  25.264  55.627  1.00  0.00     0.014 A 
HETATM   28  C   UNL     1       8.292  23.684  56.322  1.00  0.00     0.030 A 
HETATM   29  N   UNL     1       8.125  22.924  53.911  1.00  0.00    -0.360 N 
HETATM   30  C   UNL     1       7.701  24.536  57.258  1.00  0.00     0.002 A 
HETATM   31  C   UNL     1       6.602  25.316  56.919  1.00  0.00     0.001 A 
HETATM   32  C   UNL     1       9.215  21.977  53.825  1.00  0.00     0.155 C 
HETATM   33  C   UNL     1       7.310  23.233  52.855  1.00  0.00     0.101 A 
ENDBRANCH  21  24
ENDBRANCH  20  21
ENDBRANCH   2  20
TORSDOF 7
ENDMDL
MODEL 9
REMARK VINA RESULT:      -9.0      2.235     10.356
REMARK  7 active torsions:
REMARK  status: ('A' for Active; 'I' for Inactive)
REMARK       I    between atoms: C_2  and  N_3 
REMARK    1  A    between atoms: N_3  and  C_4 
REMARK    2  A    between atoms: C_7  and  N_8 
REMARK       I    between atoms: N_8  and  C_9 
REMARK    3  A    between atoms: C_9  and  C_10 
REMARK       I    between atoms: C_10  and  N_11 
REMARK    4  A    between atoms: N_11  and  C_12 
REMARK    5  A    between atoms: C_12  and  C_13 
REMARK    6  A    between atoms: C_13  and  O_14 
REMARK    7  A    between atoms: C_13  and  C_15 
ROOT
HETATM    1  C   UNL     1       7.238  31.528  58.886  1.00  0.00     0.309 C 
HETATM    2  N   UNL     1       5.872  31.454  58.919  1.00  0.00    -0.350 N 
HETATM    3  O   UNL     1       7.926  32.452  59.299  1.00  0.00    -0.262 OA
HETATM    4  H   UNL     1       5.450  30.563  58.672  1.00  0.00     0.163 HD
ENDROOT
BRANCH   1   5
HETATM    5  C   UNL     1       7.907  30.286  58.256  1.00  0.00     0.313 C 
HETATM    6  N   UNL     1       7.017  29.543  57.508  1.00  0.00    -0.319 N 
HETATM    7  H   UNL     1       6.085  29.945  57.446  1.00  0.00     0.169 HD
HETATM    8  O   UNL     1       9.097  30.088  58.462  1.00  0.00    -0.262 OA
BRANCH   6   9
HETATM    9  C   UNL     1       7.249  28.309  56.877  1.00  0.00     0.035 A 
HETATM   10  C   UNL     1       7.384  27.102  57.560  1.00  0.00     0.032 A 
HETATM   11  C   UNL     1       7.561  25.899  56.862  1.00  0.00     0.032 A 
HETATM   12  C   UNL     1       7.617  25.886  55.470  1.00  0.00     0.034 A 
HETATM   13  C   UNL     1       7.507  27.100  54.785  1.00  0.00     0.032 A 
HETATM   14  C   UNL     1       7.318  28.301  55.481  1.00  0.00     0.032 A 
BRANCH  12  15
HETATM   15  N   UNL     1       7.770  24.717  54.696  1.00  0.00    -0.328 N 
HETATM   16  C   UNL     1       6.820  24.110  53.893  1.00  0.00     0.218 C 
HETATM   17  C   UNL     1       7.359  22.888  53.189  1.00  0.00     0.117 C 
HETATM   18  O   UNL     1       5.670  24.485  53.695  1.00  0.00    -0.274 OA
HETATM   19  H   UNL     1       8.691  24.299  54.705  1.00  0.00     0.169 HD
ENDBRANCH  12  15
ENDBRANCH   6   9
ENDBRANCH   1   5
BRANCH   2  20
HETATM   20  C   UNL     1       5.018  32.491  59.470  1.00  0.00     0.159 C 
BRANCH  20  21
HETATM   21  C   UNL     1       4.130  31.990  60.629  1.00  0.00     0.171 C 
BRANCH  21  22
HETATM   22  O   UNL     1       2.754  32.092  60.231  1.00  0.00    -0.389 OA
HETATM   23  H   UNL     1       2.343  31.246  60.483  1.00  0.00     0.210 HD
ENDBRANCH  21  22
BRANCH  21  24
HETATM   24  C   UNL     1       4.358  32.712  61.929  1.00  0.00     0.000 A 
HETATM   25  C   UNL     1       5.580  32.769  62.677  1.00  0.00     0.001 A 
HETATM   26  C   UNL     1       5.339  33.520  63.834  1.00  0.00     0.044 A 
HETATM   27  C   UNL     1       6.874  32.240  62.477  1.00  0.00     0.014 A 
HETATM   28  C   UNL     1       6.341  33.761  64.789  1.00  0.00     0.030 A 
HETATM   29  N   UNL     1       4.018  33.908  63.789  1.00  0.00    -0.360 N 
HETATM   30  C   UNL     1       7.609  33.217  64.567  1.00  0.00     0.002 A 
HETATM   31  C   UNL     1       7.876  32.468  63.428  1.00  0.00     0.001 A 
HETATM   32  C   UNL     1       3.327  34.715  64.771  1.00  0.00     0.155 C 
HETATM   33  C   UNL     1       3.417  33.413  62.662  1.00  0.00     0.101 A 
ENDBRANCH  21  24
ENDBRANCH  20  21
ENDBRANCH   2  20
TORSDOF 7
ENDMDL
MODEL 10
REMARK VINA RESULT:      -8.8      2.655     10.542
REMARK  7 active torsions:
REMARK  status: ('A' for Active; 'I' for Inactive)
REMARK       I    between atoms: C_2  and  N_3 
REMARK    1  A    between atoms: N_3  and  C_4 
REMARK    2  A    between atoms: C_7  and  N_8 
REMARK       I    between atoms: N_8  and  C_9 
REMARK    3  A    between atoms: C_9  and  C_10 
REMARK       I    between atoms: C_10  and  N_11 
REMARK    4  A    between atoms: N_11  and  C_12 
REMARK    5  A    between atoms: C_12  and  C_13 
REMARK    6  A    between atoms: C_13  and  O_14 
REMARK    7  A    between atoms: C_13  and  C_15 
ROOT
HETATM    1  C   UNL     1       4.532  29.321  56.615  1.00  0.00     0.309 C 
HETATM    2  N   UNL     1       5.026  29.999  57.695  1.00  0.00    -0.350 N 
HETATM    3  O   UNL     1       3.390  29.380  56.178  1.00  0.00    -0.262 OA
HETATM    4  H   UNL     1       6.030  29.959  57.848  1.00  0.00     0.163 HD
ENDROOT
BRANCH   1   5
HETATM    5  C   UNL     1       5.577  28.414  55.926  1.00  0.00     0.313 C 
HETATM    6  N   UNL     1       5.065  27.167  55.632  1.00  0.00    -0.319 N 
HETATM    7  H   UNL     1       4.082  27.052  55.865  1.00  0.00     0.169 HD
HETATM    8  O   UNL     1       6.696  28.860  55.713  1.00  0.00    -0.262 OA
BRANCH   6   9
HETATM    9  C   UNL     1       5.752  26.063  55.098  1.00  0.00     0.035 A 
HETATM   10  C   UNL     1       6.757  25.374  55.776  1.00  0.00     0.032 A 
HETATM   11  C   UNL     1       7.363  24.247  55.203  1.00  0.00     0.032 A 
HETATM   12  C   UNL     1       6.982  23.797  53.940  1.00  0.00     0.034 A 
HETATM   13  C   UNL     1       5.992  24.504  53.250  1.00  0.00     0.032 A 
HETATM   14  C   UNL     1       5.377  25.623  53.826  1.00  0.00     0.032 A 
BRANCH  12  15
HETATM   15  N   UNL     1       7.527  22.661  53.308  1.00  0.00    -0.328 N 
HETATM   16  C   UNL     1       7.831  21.441  53.886  1.00  0.00     0.218 C 
HETATM   17  C   UNL     1       8.371  20.449  52.886  1.00  0.00     0.117 C 
HETATM   18  O   UNL     1       7.669  21.118  55.058  1.00  0.00    -0.274 OA
HETATM   19  H   UNL     1       7.677  22.741  52.311  1.00  0.00     0.169 HD
ENDBRANCH  12  15
ENDBRANCH   6   9
ENDBRANCH   1   5
BRANCH   2  20
HETATM   20  C   UNL     1       4.242  30.919  58.501  1.00  0.00     0.159 C 
BRANCH  20  21
HETATM   21  C   UNL     1       4.970  32.251  58.777  1.00  0.00     0.171 C 
BRANCH  21  22
HETATM   22  O   UNL     1       5.928  32.477  57.732  1.00  0.00    -0.389 OA
HETATM   23  H   UNL     1       6.787  32.197  58.094  1.00  0.00     0.210 HD
ENDBRANCH  21  22
BRANCH  21  24
HETATM   24  C   UNL     1       5.636  32.316  60.125  1.00  0.00     0.000 A 
HETATM   25  C   UNL     1       7.031  32.134  60.404  1.00  0.00     0.001 A 
HETATM   26  C   UNL     1       7.208  32.248  61.788  1.00  0.00     0.044 A 
HETATM   27  C   UNL     1       8.162  31.873  59.601  1.00  0.00     0.014 A 
HETATM   28  C   UNL     1       8.471  32.115  62.391  1.00  0.00     0.030 A 
HETATM   29  N   UNL     1       5.967  32.494  62.331  1.00  0.00    -0.360 N 
HETATM   30  C   UNL     1       9.570  31.849  61.571  1.00  0.00     0.002 A 
HETATM   31  C   UNL     1       9.422  31.729  60.194  1.00  0.00     0.001 A 
HETATM   32  C   UNL     1       5.667  32.698  63.731  1.00  0.00     0.155 C 
HETATM   33  C   UNL     1       5.016  32.517  61.346  1.00  0.00     0.101 A 
ENDBRANCH  21  24
ENDBRANCH  20  21
ENDBRANCH   2  20
TORSDOF 7
ENDMDL
