MODEL 1
REMARK VINA RESULT:      -9.8      0.000      0.000
REMARK  9 active torsions:
REMARK  status: ('A' for Active; 'I' for Inactive)
REMARK    1  A    between atoms: O_2  and  C_3 
REMARK    2  A    between atoms: C_6  and  N_7 
REMARK    3  A    between atoms: N_10  and  C_11 
REMARK    4  A    between atoms: C_11  and  C_12 
REMARK    5  A    between atoms: C_14  and  O_15 
REMARK    6  A    between atoms: C_17  and  O_18 
REMARK    7  A    between atoms: C_22  and  C_23 
REMARK    8  A    between atoms: C_23  and  C_24 
REMARK       I    between atoms: C_24  and  N_25 
REMARK    9  A    between atoms: N_25  and  C_26 
ROOT
HETATM    1  N   UNL     1       6.505  27.024  54.465  1.00  0.00    -0.232 N 
HETATM    2  C   UNL     1       7.584  27.754  54.918  1.00  0.00     0.333 C 
HETATM    3  O   UNL     1       8.302  28.526  54.301  1.00  0.00    -0.246 OA
HETATM    4  N   UNL     1       7.763  27.478  56.270  1.00  0.00    -0.315 N 
HETATM    5  C   UNL     1       6.696  26.666  56.811  1.00  0.00     0.191 C 
HETATM    6  C   UNL     1       6.020  26.258  55.500  1.00  0.00     0.256 C 
HETATM    7  O   UNL     1       5.193  25.350  55.451  1.00  0.00    -0.270 OA
ENDROOT
BRANCH   4   8
HETATM    8  C   UNL     1       8.788  28.114  57.086  1.00  0.00     0.167 C 
BRANCH   8   9
HETATM    9  C   UNL     1       8.283  29.364  57.769  1.00  0.00    -0.037 A 
HETATM   10  C   UNL     1       9.164  30.198  58.477  1.00  0.00     0.048 A 
HETATM   11  C   UNL     1       8.705  31.368  59.099  1.00  0.00     0.102 A 
HETATM   12  C   UNL     1       7.340  31.709  59.025  1.00  0.00     0.101 A 
HETATM   13  C   UNL     1       6.459  30.869  58.339  1.00  0.00     0.040 A 
HETATM   14  C   UNL     1       6.926  29.706  57.724  1.00  0.00     0.012 A 
BRANCH  11  15
HETATM   15  O   UNL     1       9.505  32.241  59.794  1.00  0.00    -0.353 OA
HETATM   16  C   UNL     1       9.827  31.917  61.139  1.00  0.00     0.210 C 
ENDBRANCH  11  15
BRANCH  12  17
HETATM   17  O   UNL     1       6.971  32.874  59.652  1.00  0.00    -0.353 OA
HETATM   18  C   UNL     1       6.094  32.775  60.764  1.00  0.00     0.210 C 
ENDBRANCH  12  17
ENDBRANCH   8   9
ENDBRANCH   4   8
BRANCH   5  19
HETATM   19  C   UNL     1       7.114  25.442  57.610  1.00  0.00     0.138 C 
BRANCH  19  20
HETATM   20  C   UNL     1       7.922  24.502  56.733  1.00  0.00     0.224 C 
HETATM   21  N   UNL     1       7.161  23.504  56.160  1.00  0.00    -0.327 N 
HETATM   22  H   UNL     1       6.201  23.417  56.493  1.00  0.00     0.169 HD
HETATM   23  O   UNL     1       9.135  24.655  56.626  1.00  0.00    -0.273 OA
BRANCH  21  24
HETATM   24  C   UNL     1       7.577  22.479  55.289  1.00  0.00     0.034 A 
HETATM   25  C   UNL     1       7.992  21.214  55.705  1.00  0.00     0.029 A 
HETATM   26  C   UNL     1       8.386  20.258  54.762  1.00  0.00     0.002 A 
HETATM   27  C   UNL     1       8.375  20.561  53.402  1.00  0.00     0.000 A 
HETATM   28  C   UNL     1       7.969  21.823  52.979  1.00  0.00     0.002 A 
HETATM   29  C   UNL     1       7.571  22.776  53.918  1.00  0.00     0.029 A 
ENDBRANCH  21  24
ENDBRANCH  19  20
ENDBRANCH   5  19
BRANCH   1  30
HETATM   30  C   UNL     1       6.030  26.973  53.119  1.00  0.00     0.047 A 
HETATM   31  C   UNL     1       6.370  25.928  52.249  1.00  0.00     0.033 A 
HETATM   32  C   UNL     1       5.860  25.870  50.943  1.00  0.00     0.039 A 
HETATM   33  C   UNL     1       4.998  26.854  50.468  1.00  0.00     0.068 A 
HETATM   34  C   UNL     1       4.682  27.921  51.297  1.00  0.00     0.039 A 
HETATM   35  C   UNL     1       5.194  27.978  52.602  1.00  0.00     0.033 A 
BRANCH  33  36
HETATM   36  O   UNL     1       4.548  26.670  49.191  1.00  0.00    -0.356 OA
HETATM   37  C   UNL     1       3.518  27.549  48.753  1.00  0.00     0.210 C 
ENDBRANCH  33  36
ENDBRANCH   1  30
TORSDOF 9
ENDMDL
MODEL 2
REMARK VINA RESULT:      -9.6      1.710      7.300
REMARK  9 active torsions:
REMARK  status: ('A' for Active; 'I' for Inactive)
REMARK    1  A    between atoms: O_2  and  C_3 
REMARK    2  A    between atoms: C_6  and  N_7 
REMARK    3  A    between atoms: N_10  and  C_11 
REMARK    4  A    between atoms: C_11  and  C_12 
REMARK    5  A    between atoms: C_14  and  O_15 
REMARK    6  A    between atoms: C_17  and  O_18 
REMARK    7  A    between atoms: C_22  and  C_23 
REMARK    8  A    between atoms: C_23  and  C_24 
REMARK       I    between atoms: C_24  and  N_25 
REMARK    9  A    between atoms: N_25  and  C_26 
ROOT
HETATM    1  N   UNL     1       7.077  28.870  56.463  1.00  0.00    -0.232 N 
HETATM    2  C   UNL     1       5.950  29.203  55.741  1.00  0.00     0.333 C 
HETATM    3  O   UNL     1       5.400  30.289  55.633  1.00  0.00    -0.246 OA
HETATM    4  N   UNL     1       5.483  28.058  55.104  1.00  0.00    -0.315 N 
HETATM    5  C   UNL     1       6.388  26.940  55.251  1.00  0.00     0.191 C 
HETATM    6  C   UNL     1       7.310  27.520  56.324  1.00  0.00     0.256 C 
HETATM    7  O   UNL     1       8.101  26.819  56.950  1.00  0.00    -0.270 OA
ENDROOT
BRANCH   4   8
HETATM    8  C   UNL     1       4.329  28.052  54.215  1.00  0.00     0.167 C 
BRANCH   8   9
HETATM    9  C   UNL     1       4.726  28.165  52.760  1.00  0.00    -0.037 A 
HETATM   10  C   UNL     1       5.214  29.376  52.243  1.00  0.00     0.048 A 
HETATM   11  C   UNL     1       5.600  29.483  50.900  1.00  0.00     0.102 A 
HETATM   12  C   UNL     1       5.487  28.365  50.050  1.00  0.00     0.101 A 
HETATM   13  C   UNL     1       4.981  27.165  50.558  1.00  0.00     0.040 A 
HETATM   14  C   UNL     1       4.600  27.069  51.897  1.00  0.00     0.012 A 
BRANCH  11  15
HETATM   15  O   UNL     1       6.100  30.625  50.325  1.00  0.00    -0.353 OA
HETATM   16  C   UNL     1       5.229  31.740  50.198  1.00  0.00     0.210 C 
ENDBRANCH  11  15
BRANCH  12  17
HETATM   17  O   UNL     1       5.894  28.547  48.751  1.00  0.00    -0.353 OA
HETATM   18  C   UNL     1       4.907  28.462  47.733  1.00  0.00     0.210 C 
ENDBRANCH  12  17
ENDBRANCH   8   9
ENDBRANCH   4   8
BRANCH   5  19
HETATM   19  C   UNL     1       5.775  25.628  55.714  1.00  0.00     0.138 C 
BRANCH  19  20
HETATM   20  C   UNL     1       6.218  24.498  54.801  1.00  0.00     0.224 C 
HETATM   21  N   UNL     1       7.011  23.565  55.438  1.00  0.00    -0.327 N 
HETATM   22  H   UNL     1       7.329  23.803  56.377  1.00  0.00     0.169 HD
HETATM   23  O   UNL     1       5.895  24.504  53.618  1.00  0.00    -0.273 OA
BRANCH  21  24
HETATM   24  C   UNL     1       7.581  22.393  54.904  1.00  0.00     0.034 A 
HETATM   25  C   UNL     1       7.809  22.178  53.545  1.00  0.00     0.029 A 
HETATM   26  C   UNL     1       8.383  20.979  53.108  1.00  0.00     0.002 A 
HETATM   27  C   UNL     1       8.726  19.986  54.025  1.00  0.00     0.000 A 
HETATM   28  C   UNL     1       8.496  20.190  55.382  1.00  0.00     0.002 A 
HETATM   29  C   UNL     1       7.927  21.388  55.818  1.00  0.00     0.029 A 
ENDBRANCH  21  24
ENDBRANCH  19  20
ENDBRANCH   5  19
BRANCH   1  30
HETATM   30  C   UNL     1       7.821  29.745  57.311  1.00  0.00     0.047 A 
HETATM   31  C   UNL     1       7.211  30.491  58.329  1.00  0.00     0.033 A 
HETATM   32  C   UNL     1       7.963  31.313  59.182  1.00  0.00     0.039 A 
HETATM   33  C   UNL     1       9.344  31.416  59.042  1.00  0.00     0.068 A 
HETATM   34  C   UNL     1       9.964  30.720  58.013  1.00  0.00     0.039 A 
HETATM   35  C   UNL     1       9.210  29.899  57.161  1.00  0.00     0.033 A 
BRANCH  33  36
HETATM   36  O   UNL     1       9.965  32.225  59.951  1.00  0.00    -0.356 OA
HETATM   37  C   UNL     1       9.718  31.939  61.323  1.00  0.00     0.210 C 
ENDBRANCH  33  36
ENDBRANCH   1  30
TORSDOF 9
ENDMDL
MODEL 3
REMARK VINA RESULT:      -9.3      1.661      2.382
REMARK  9 active torsions:
REMARK  status: ('A' for Active; 'I' for Inactive)
REMARK    1  A    between atoms: O_2  and  C_3 
REMARK    2  A    between atoms: C_6  and  N_7 
REMARK    3  A    between atoms: N_10  and  C_11 
REMARK    4  A    between atoms: C_11  and  C_12 
REMARK    5  A    between atoms: C_14  and  O_15 
REMARK    6  A    between atoms: C_17  and  O_18 
REMARK    7  A    between atoms: C_22  and  C_23 
REMARK    8  A    between atoms: C_23  and  C_24 
REMARK       I    between atoms: C_24  and  N_25 
REMARK    9  A    between atoms: N_25  and  C_26 
ROOT
HETATM    1  N   UNL     1       5.482  27.271  52.824  1.00  0.00    -0.232 N 
HETATM    2  C   UNL     1       4.774  27.775  53.896  1.00  0.00     0.333 C 
HETATM    3  O   UNL     1       3.867  28.594  53.901  1.00  0.00    -0.246 OA
HETATM    4  N   UNL     1       5.263  27.187  55.058  1.00  0.00    -0.315 N 
HETATM    5  C   UNL     1       6.217  26.136  54.783  1.00  0.00     0.191 C 
HETATM    6  C   UNL     1       6.439  26.401  53.292  1.00  0.00     0.256 C 
HETATM    7  O   UNL     1       7.373  25.896  52.675  1.00  0.00    -0.270 OA
ENDROOT
BRANCH   4   8
HETATM    8  C   UNL     1       4.713  27.453  56.380  1.00  0.00     0.167 C 
BRANCH   8   9
HETATM    9  C   UNL     1       5.317  28.685  57.015  1.00  0.00    -0.037 A 
HETATM   10  C   UNL     1       6.651  28.682  57.455  1.00  0.00     0.048 A 
HETATM   11  C   UNL     1       7.223  29.826  58.029  1.00  0.00     0.102 A 
HETATM   12  C   UNL     1       6.448  30.993  58.181  1.00  0.00     0.101 A 
HETATM   13  C   UNL     1       5.115  30.990  57.763  1.00  0.00     0.040 A 
HETATM   14  C   UNL     1       4.555  29.846  57.193  1.00  0.00     0.012 A 
BRANCH  11  15
HETATM   15  O   UNL     1       8.522  29.907  58.468  1.00  0.00    -0.353 OA
HETATM   16  C   UNL     1       9.557  29.723  57.512  1.00  0.00     0.210 C 
ENDBRANCH  11  15
BRANCH  12  17
HETATM   17  O   UNL     1       7.083  32.073  58.743  1.00  0.00    -0.353 OA
HETATM   18  C   UNL     1       6.703  32.450  60.058  1.00  0.00     0.210 C 
ENDBRANCH  12  17
ENDBRANCH   8   9
ENDBRANCH   4   8
BRANCH   5  19
HETATM   19  C   UNL     1       7.531  26.196  55.546  1.00  0.00     0.138 C 
BRANCH  19  20
HETATM   20  C   UNL     1       8.032  24.790  55.826  1.00  0.00     0.224 C 
HETATM   21  N   UNL     1       7.716  23.892  54.828  1.00  0.00    -0.327 N 
HETATM   22  H   UNL     1       7.073  24.220  54.108  1.00  0.00     0.169 HD
HETATM   23  O   UNL     1       8.619  24.546  56.876  1.00  0.00    -0.273 OA
BRANCH  21  24
HETATM   24  C   UNL     1       8.033  22.522  54.753  1.00  0.00     0.034 A 
HETATM   25  C   UNL     1       7.998  21.647  55.838  1.00  0.00     0.029 A 
HETATM   26  C   UNL     1       8.328  20.297  55.665  1.00  0.00     0.002 A 
HETATM   27  C   UNL     1       8.701  19.818  54.410  1.00  0.00     0.000 A 
HETATM   28  C   UNL     1       8.745  20.686  53.324  1.00  0.00     0.002 A 
HETATM   29  C   UNL     1       8.411  22.030  53.495  1.00  0.00     0.029 A 
ENDBRANCH  21  24
ENDBRANCH  19  20
ENDBRANCH   5  19
BRANCH   1  30
HETATM   30  C   UNL     1       5.334  27.666  51.459  1.00  0.00     0.047 A 
HETATM   31  C   UNL     1       4.900  26.775  50.469  1.00  0.00     0.033 A 
HETATM   32  C   UNL     1       4.718  27.190  49.142  1.00  0.00     0.039 A 
HETATM   33  C   UNL     1       4.965  28.507  48.764  1.00  0.00     0.068 A 
HETATM   34  C   UNL     1       5.437  29.397  49.719  1.00  0.00     0.039 A 
HETATM   35  C   UNL     1       5.619  28.979  51.046  1.00  0.00     0.033 A 
BRANCH  33  36
HETATM   36  O   UNL     1       4.723  28.794  47.450  1.00  0.00    -0.356 OA
HETATM   37  C   UNL     1       3.575  29.591  47.180  1.00  0.00     0.210 C 
ENDBRANCH  33  36
ENDBRANCH   1  30
TORSDOF 9
ENDMDL
MODEL 4
REMARK VINA RESULT:      -9.0      2.454      6.717
REMARK  9 active torsions:
REMARK  status: ('A' for Active; 'I' for Inactive)
REMARK    1  A    between atoms: O_2  and  C_3 
REMARK    2  A    between atoms: C_6  and  N_7 
REMARK    3  A    between atoms: N_10  and  C_11 
REMARK    4  A    between atoms: C_11  and  C_12 
REMARK    5  A    between atoms: C_14  and  O_15 
REMARK    6  A    between atoms: C_17  and  O_18 
REMARK    7  A    between atoms: C_22  and  C_23 
REMARK    8  A    between atoms: C_23  and  C_24 
REMARK       I    between atoms: C_24  and  N_25 
REMARK    9  A    between atoms: N_25  and  C_26 
ROOT
HETATM    1  N   UNL     1       6.835  26.386  54.757  1.00  0.00    -0.232 N 
HETATM    2  C   UNL     1       6.022  27.304  54.126  1.00  0.00     0.333 C 
HETATM    3  O   UNL     1       5.366  27.173  53.103  1.00  0.00    -0.246 OA
HETATM    4  N   UNL     1       6.045  28.487  54.858  1.00  0.00    -0.315 N 
HETATM    5  C   UNL     1       6.757  28.345  56.109  1.00  0.00     0.191 C 
HETATM    6  C   UNL     1       7.405  26.982  55.860  1.00  0.00     0.256 C 
HETATM    7  O   UNL     1       8.316  26.557  56.566  1.00  0.00    -0.270 OA
ENDROOT
BRANCH   4   8
HETATM    8  C   UNL     1       5.258  29.661  54.504  1.00  0.00     0.167 C 
BRANCH   8   9
HETATM    9  C   UNL     1       4.761  30.406  55.722  1.00  0.00    -0.037 A 
HETATM   10  C   UNL     1       5.224  31.701  56.008  1.00  0.00     0.048 A 
HETATM   11  C   UNL     1       4.754  32.404  57.126  1.00  0.00     0.102 A 
HETATM   12  C   UNL     1       3.814  31.802  57.984  1.00  0.00     0.101 A 
HETATM   13  C   UNL     1       3.368  30.505  57.714  1.00  0.00     0.040 A 
HETATM   14  C   UNL     1       3.842  29.813  56.597  1.00  0.00     0.012 A 
BRANCH  11  15
HETATM   15  O   UNL     1       5.145  33.676  57.462  1.00  0.00    -0.353 OA
HETATM   16  C   UNL     1       4.729  34.742  56.621  1.00  0.00     0.210 C 
ENDBRANCH  11  15
BRANCH  12  17
HETATM   17  O   UNL     1       3.396  32.558  59.052  1.00  0.00    -0.353 OA
HETATM   18  C   UNL     1       3.242  31.904  60.303  1.00  0.00     0.210 C 
ENDBRANCH  12  17
ENDBRANCH   8   9
ENDBRANCH   4   8
BRANCH   5  19
HETATM   19  C   UNL     1       7.809  29.399  56.413  1.00  0.00     0.138 C 
BRANCH  19  20
HETATM   20  C   UNL     1       7.937  29.586  57.915  1.00  0.00     0.224 C 
HETATM   21  N   UNL     1       8.004  30.911  58.293  1.00  0.00    -0.327 N 
HETATM   22  H   UNL     1       8.108  31.593  57.543  1.00  0.00     0.169 HD
HETATM   23  O   UNL     1       8.007  28.606  58.651  1.00  0.00    -0.273 OA
BRANCH  21  24
HETATM   24  C   UNL     1       8.110  31.444  59.592  1.00  0.00     0.034 A 
HETATM   25  C   UNL     1       9.278  31.433  60.353  1.00  0.00     0.029 A 
HETATM   26  C   UNL     1       9.287  31.990  61.637  1.00  0.00     0.002 A 
HETATM   27  C   UNL     1       8.129  32.555  62.169  1.00  0.00     0.000 A 
HETATM   28  C   UNL     1       6.958  32.564  61.419  1.00  0.00     0.002 A 
HETATM   29  C   UNL     1       6.949  32.013  60.137  1.00  0.00     0.029 A 
ENDBRANCH  21  24
ENDBRANCH  19  20
ENDBRANCH   5  19
BRANCH   1  30
HETATM   30  C   UNL     1       7.136  25.070  54.292  1.00  0.00     0.047 A 
HETATM   31  C   UNL     1       7.618  24.830  52.998  1.00  0.00     0.033 A 
HETATM   32  C   UNL     1       7.950  23.536  52.571  1.00  0.00     0.039 A 
HETATM   33  C   UNL     1       7.811  22.444  53.423  1.00  0.00     0.068 A 
HETATM   34  C   UNL     1       7.295  22.652  54.695  1.00  0.00     0.039 A 
HETATM   35  C   UNL     1       6.961  23.947  55.120  1.00  0.00     0.033 A 
BRANCH  33  36
HETATM   36  O   UNL     1       8.194  21.241  52.900  1.00  0.00    -0.356 OA
HETATM   37  C   UNL     1       8.670  20.273  53.829  1.00  0.00     0.210 C 
ENDBRANCH  33  36
ENDBRANCH   1  30
TORSDOF 9
ENDMDL
MODEL 5
REMARK VINA RESULT:      -9.0      2.661      4.145
REMARK  9 active torsions:
REMARK  status: ('A' for Active; 'I' for Inactive)
REMARK    1  A    between atoms: O_2  and  C_3 
REMARK    2  A    between atoms: C_6  and  N_7 
REMARK    3  A    between atoms: N_10  and  C_11 
REMARK    4  A    between atoms: C_11  and  C_12 
REMARK    5  A    between atoms: C_14  and  O_15 
REMARK    6  A    between atoms: C_17  and  O_18 
REMARK    7  A    between atoms: C_22  and  C_23 
REMARK    8  A    between atoms: C_23  and  C_24 
REMARK       I    between atoms: C_24  and  N_25 
REMARK    9  A    between atoms: N_25  and  C_26 
ROOT
HETATM    1  N   UNL     1       4.428  29.142  51.913  1.00  0.00    -0.232 N 
HETATM    2  C   UNL     1       4.027  29.430  53.201  1.00  0.00     0.333 C 
HETATM    3  O   UNL     1       3.460  30.426  53.624  1.00  0.00    -0.246 OA
HETATM    4  N   UNL     1       4.377  28.360  54.018  1.00  0.00    -0.315 N 
HETATM    5  C   UNL     1       4.886  27.236  53.264  1.00  0.00     0.191 C 
HETATM    6  C   UNL     1       5.063  27.921  51.907  1.00  0.00     0.256 C 
HETATM    7  O   UNL     1       5.713  27.408  51.000  1.00  0.00    -0.270 OA
ENDROOT
BRANCH   4   8
HETATM    8  C   UNL     1       4.062  28.304  55.439  1.00  0.00     0.167 C 
BRANCH   8   9
HETATM    9  C   UNL     1       5.260  28.617  56.305  1.00  0.00    -0.037 A 
HETATM   10  C   UNL     1       6.023  27.583  56.873  1.00  0.00     0.048 A 
HETATM   11  C   UNL     1       7.145  27.865  57.664  1.00  0.00     0.102 A 
HETATM   12  C   UNL     1       7.511  29.204  57.904  1.00  0.00     0.101 A 
HETATM   13  C   UNL     1       6.741  30.234  57.357  1.00  0.00     0.040 A 
HETATM   14  C   UNL     1       5.625  29.942  56.571  1.00  0.00     0.012 A 
BRANCH  11  15
HETATM   15  O   UNL     1       7.949  26.912  58.239  1.00  0.00    -0.353 OA
HETATM   16  C   UNL     1       8.279  25.768  57.465  1.00  0.00     0.210 C 
ENDBRANCH  11  15
BRANCH  12  17
HETATM   17  O   UNL     1       8.627  29.398  58.680  1.00  0.00    -0.353 OA
HETATM   18  C   UNL     1       8.545  30.356  59.725  1.00  0.00     0.210 C 
ENDBRANCH  12  17
ENDBRANCH   8   9
ENDBRANCH   4   8
BRANCH   5  19
HETATM   19  C   UNL     1       6.198  26.637  53.744  1.00  0.00     0.138 C 
BRANCH  19  20
HETATM   20  C   UNL     1       6.110  25.120  53.731  1.00  0.00     0.224 C 
HETATM   21  N   UNL     1       7.269  24.505  54.159  1.00  0.00    -0.327 N 
HETATM   22  H   UNL     1       8.082  25.107  54.289  1.00  0.00     0.169 HD
HETATM   23  O   UNL     1       5.090  24.569  53.330  1.00  0.00    -0.273 OA
BRANCH  21  24
HETATM   24  C   UNL     1       7.531  23.128  54.286  1.00  0.00     0.034 A 
HETATM   25  C   UNL     1       7.496  22.429  55.492  1.00  0.00     0.029 A 
HETATM   26  C   UNL     1       7.769  21.057  55.518  1.00  0.00     0.002 A 
HETATM   27  C   UNL     1       8.086  20.378  54.343  1.00  0.00     0.000 A 
HETATM   28  C   UNL     1       8.131  21.069  53.137  1.00  0.00     0.002 A 
HETATM   29  C   UNL     1       7.853  22.437  53.109  1.00  0.00     0.029 A 
ENDBRANCH  21  24
ENDBRANCH  19  20
ENDBRANCH   5  19
BRANCH   1  30
HETATM   30  C   UNL     1       4.314  30.009  50.784  1.00  0.00     0.047 A 
HETATM   31  C   UNL     1       3.198  29.984  49.936  1.00  0.00     0.033 A 
HETATM   32  C   UNL     1       3.082  30.872  48.856  1.00  0.00     0.039 A 
HETATM   33  C   UNL     1       4.075  31.810  48.592  1.00  0.00     0.068 A 
HETATM   34  C   UNL     1       5.209  31.825  49.392  1.00  0.00     0.039 A 
HETATM   35  C   UNL     1       5.325  30.934  50.470  1.00  0.00     0.033 A 
BRANCH  33  36
HETATM   36  O   UNL     1       3.832  32.637  47.531  1.00  0.00    -0.356 OA
HETATM   37  C   UNL     1       3.447  32.005  46.315  1.00  0.00     0.210 C 
ENDBRANCH  33  36
ENDBRANCH   1  30
TORSDOF 9
ENDMDL
MODEL 6
REMARK VINA RESULT:      -9.0      2.974      7.717
REMARK  9 active torsions:
REMARK  status: ('A' for Active; 'I' for Inactive)
REMARK    1  A    between atoms: O_2  and  C_3 
REMARK    2  A    between atoms: C_6  and  N_7 
REMARK    3  A    between atoms: N_10  and  C_11 
REMARK    4  A    between atoms: C_11  and  C_12 
REMARK    5  A    between atoms: C_14  and  O_15 
REMARK    6  A    between atoms: C_17  and  O_18 
REMARK    7  A    between atoms: C_22  and  C_23 
REMARK    8  A    between atoms: C_23  and  C_24 
REMARK       I    between atoms: C_24  and  N_25 
REMARK    9  A    between atoms: N_25  and  C_26 
ROOT
HETATM    1  N   UNL     1       6.954  27.352  56.884  1.00  0.00    -0.232 N 
HETATM    2  C   UNL     1       5.730  27.987  56.925  1.00  0.00     0.333 C 
HETATM    3  O   UNL     1       4.644  27.589  56.528  1.00  0.00    -0.246 OA
HETATM    4  N   UNL     1       5.902  29.233  57.519  1.00  0.00    -0.315 N 
HETATM    5  C   UNL     1       7.235  29.409  58.050  1.00  0.00     0.191 C 
HETATM    6  C   UNL     1       7.908  28.193  57.409  1.00  0.00     0.256 C 
HETATM    7  O   UNL     1       9.130  28.066  57.382  1.00  0.00    -0.270 OA
ENDROOT
BRANCH   4   8
HETATM    8  C   UNL     1       4.804  30.158  57.768  1.00  0.00     0.167 C 
BRANCH   8   9
HETATM    9  C   UNL     1       4.737  31.259  56.734  1.00  0.00    -0.037 A 
HETATM   10  C   UNL     1       5.002  32.592  57.091  1.00  0.00     0.048 A 
HETATM   11  C   UNL     1       4.958  33.616  56.135  1.00  0.00     0.102 A 
HETATM   12  C   UNL     1       4.633  33.310  54.799  1.00  0.00     0.101 A 
HETATM   13  C   UNL     1       4.349  31.988  54.447  1.00  0.00     0.040 A 
HETATM   14  C   UNL     1       4.395  30.975  55.407  1.00  0.00     0.012 A 
BRANCH  11  15
HETATM   15  O   UNL     1       5.219  34.938  56.401  1.00  0.00    -0.353 OA
HETATM   16  C   UNL     1       4.437  35.580  57.397  1.00  0.00     0.210 C 
ENDBRANCH  11  15
BRANCH  12  17
HETATM   17  O   UNL     1       4.620  34.366  53.921  1.00  0.00    -0.353 OA
HETATM   18  C   UNL     1       5.342  34.223  52.707  1.00  0.00     0.210 C 
ENDBRANCH  12  17
ENDBRANCH   8   9
ENDBRANCH   4   8
BRANCH   5  19
HETATM   19  C   UNL     1       7.954  30.692  57.664  1.00  0.00     0.138 C 
BRANCH  19  20
HETATM   20  C   UNL     1       8.278  31.499  58.910  1.00  0.00     0.224 C 
HETATM   21  N   UNL     1       7.316  31.389  59.893  1.00  0.00    -0.327 N 
HETATM   22  H   UNL     1       6.450  30.918  59.632  1.00  0.00     0.169 HD
HETATM   23  O   UNL     1       9.294  32.186  58.948  1.00  0.00    -0.273 OA
BRANCH  21  24
HETATM   24  C   UNL     1       7.299  31.985  61.169  1.00  0.00     0.034 A 
HETATM   25  C   UNL     1       8.163  31.640  62.208  1.00  0.00     0.029 A 
HETATM   26  C   UNL     1       8.072  32.291  63.444  1.00  0.00     0.002 A 
HETATM   27  C   UNL     1       7.115  33.283  63.650  1.00  0.00     0.000 A 
HETATM   28  C   UNL     1       6.245  33.628  62.621  1.00  0.00     0.002 A 
HETATM   29  C   UNL     1       6.338  32.983  61.386  1.00  0.00     0.029 A 
ENDBRANCH  21  24
ENDBRANCH  19  20
ENDBRANCH   5  19
BRANCH   1  30
HETATM   30  C   UNL     1       7.221  26.080  56.292  1.00  0.00     0.047 A 
HETATM   31  C   UNL     1       7.422  24.928  57.064  1.00  0.00     0.033 A 
HETATM   32  C   UNL     1       7.640  23.678  56.465  1.00  0.00     0.039 A 
HETATM   33  C   UNL     1       7.666  23.543  55.080  1.00  0.00     0.068 A 
HETATM   34  C   UNL     1       7.513  24.678  54.297  1.00  0.00     0.039 A 
HETATM   35  C   UNL     1       7.296  25.927  54.897  1.00  0.00     0.033 A 
BRANCH  33  36
HETATM   36  O   UNL     1       7.858  22.270  54.620  1.00  0.00    -0.356 OA
HETATM   37  C   UNL     1       9.146  21.707  54.845  1.00  0.00     0.210 C 
ENDBRANCH  33  36
ENDBRANCH   1  30
TORSDOF 9
ENDMDL
MODEL 7
REMARK VINA RESULT:      -9.0      1.642      5.514
REMARK  9 active torsions:
REMARK  status: ('A' for Active; 'I' for Inactive)
REMARK    1  A    between atoms: O_2  and  C_3 
REMARK    2  A    between atoms: C_6  and  N_7 
REMARK    3  A    between atoms: N_10  and  C_11 
REMARK    4  A    between atoms: C_11  and  C_12 
REMARK    5  A    between atoms: C_14  and  O_15 
REMARK    6  A    between atoms: C_17  and  O_18 
REMARK    7  A    between atoms: C_22  and  C_23 
REMARK    8  A    between atoms: C_23  and  C_24 
REMARK       I    between atoms: C_24  and  N_25 
REMARK    9  A    between atoms: N_25  and  C_26 
ROOT
HETATM    1  N   UNL     1       7.204  25.753  54.944  1.00  0.00    -0.232 N 
HETATM    2  C   UNL     1       6.496  26.075  56.083  1.00  0.00     0.333 C 
HETATM    3  O   UNL     1       6.143  25.348  57.000  1.00  0.00    -0.246 OA
HETATM    4  N   UNL     1       6.214  27.437  56.053  1.00  0.00    -0.315 N 
HETATM    5  C   UNL     1       6.873  28.110  54.956  1.00  0.00     0.191 C 
HETATM    6  C   UNL     1       7.342  26.884  54.172  1.00  0.00     0.256 C 
HETATM    7  O   UNL     1       7.746  26.967  53.015  1.00  0.00    -0.270 OA
ENDROOT
BRANCH   4   8
HETATM    8  C   UNL     1       5.516  28.133  57.126  1.00  0.00     0.167 C 
BRANCH   8   9
HETATM    9  C   UNL     1       6.338  29.259  57.709  1.00  0.00    -0.037 A 
HETATM   10  C   UNL     1       5.814  30.560  57.789  1.00  0.00     0.048 A 
HETATM   11  C   UNL     1       6.564  31.606  58.343  1.00  0.00     0.102 A 
HETATM   12  C   UNL     1       7.867  31.356  58.817  1.00  0.00     0.101 A 
HETATM   13  C   UNL     1       8.398  30.067  58.719  1.00  0.00     0.040 A 
HETATM   14  C   UNL     1       7.642  29.032  58.164  1.00  0.00     0.012 A 
BRANCH  11  15
HETATM   15  O   UNL     1       6.118  32.898  58.471  1.00  0.00    -0.353 OA
HETATM   16  C   UNL     1       5.081  33.151  59.409  1.00  0.00     0.210 C 
ENDBRANCH  11  15
BRANCH  12  17
HETATM   17  O   UNL     1       8.534  32.430  59.354  1.00  0.00    -0.353 OA
HETATM   18  C   UNL     1       9.247  32.225  60.565  1.00  0.00     0.210 C 
ENDBRANCH  12  17
ENDBRANCH   8   9
ENDBRANCH   4   8
BRANCH   5  19
HETATM   19  C   UNL     1       6.002  29.007  54.090  1.00  0.00     0.138 C 
BRANCH  19  20
HETATM   20  C   UNL     1       5.099  28.160  53.211  1.00  0.00     0.224 C 
HETATM   21  N   UNL     1       5.346  28.322  51.863  1.00  0.00    -0.327 N 
HETATM   22  H   UNL     1       5.981  29.077  51.604  1.00  0.00     0.169 HD
HETATM   23  O   UNL     1       4.233  27.456  53.720  1.00  0.00    -0.273 OA
BRANCH  21  24
HETATM   24  C   UNL     1       4.712  27.689  50.776  1.00  0.00     0.034 A 
HETATM   25  C   UNL     1       5.012  26.401  50.334  1.00  0.00     0.029 A 
HETATM   26  C   UNL     1       4.326  25.853  49.244  1.00  0.00     0.002 A 
HETATM   27  C   UNL     1       3.342  26.591  48.587  1.00  0.00     0.000 A 
HETATM   28  C   UNL     1       3.041  27.879  49.018  1.00  0.00     0.002 A 
HETATM   29  C   UNL     1       3.722  28.424  50.108  1.00  0.00     0.029 A 
ENDBRANCH  21  24
ENDBRANCH  19  20
ENDBRANCH   5  19
BRANCH   1  30
HETATM   30  C   UNL     1       7.629  24.444  54.561  1.00  0.00     0.047 A 
HETATM   31  C   UNL     1       8.508  23.687  55.348  1.00  0.00     0.033 A 
HETATM   32  C   UNL     1       8.881  22.386  54.979  1.00  0.00     0.039 A 
HETATM   33  C   UNL     1       8.389  21.804  53.815  1.00  0.00     0.068 A 
HETATM   34  C   UNL     1       7.552  22.551  52.998  1.00  0.00     0.039 A 
HETATM   35  C   UNL     1       7.181  23.853  53.368  1.00  0.00     0.033 A 
BRANCH  33  36
HETATM   36  O   UNL     1       8.803  20.523  53.580  1.00  0.00    -0.356 OA
HETATM   37  C   UNL     1       8.966  19.694  54.726  1.00  0.00     0.210 C 
ENDBRANCH  33  36
ENDBRANCH   1  30
TORSDOF 9
ENDMDL
MODEL 8
REMARK VINA RESULT:      -8.9      1.695      7.626
REMARK  9 active torsions:
REMARK  status: ('A' for Active; 'I' for Inactive)
REMARK    1  A    between atoms: O_2  and  C_3 
REMARK    2  A    between atoms: C_6  and  N_7 
REMARK    3  A    between atoms: N_10  and  C_11 
REMARK    4  A    between atoms: C_11  and  C_12 
REMARK    5  A    between atoms: C_14  and  O_15 
REMARK    6  A    between atoms: C_17  and  O_18 
REMARK    7  A    between atoms: C_22  and  C_23 
REMARK    8  A    between atoms: C_23  and  C_24 
REMARK       I    between atoms: C_24  and  N_25 
REMARK    9  A    between atoms: N_25  and  C_26 
ROOT
HETATM    1  N   UNL     1       6.814  28.403  55.606  1.00  0.00    -0.232 N 
HETATM    2  C   UNL     1       5.680  28.883  54.984  1.00  0.00     0.333 C 
HETATM    3  O   UNL     1       5.138  29.972  55.108  1.00  0.00    -0.246 OA
HETATM    4  N   UNL     1       5.196  27.895  54.133  1.00  0.00    -0.315 N 
HETATM    5  C   UNL     1       6.094  26.766  54.035  1.00  0.00     0.191 C 
HETATM    6  C   UNL     1       7.035  27.110  55.191  1.00  0.00     0.256 C 
HETATM    7  O   UNL     1       7.828  26.291  55.649  1.00  0.00    -0.270 OA
ENDROOT
BRANCH   4   8
HETATM    8  C   UNL     1       4.031  28.078  53.277  1.00  0.00     0.167 C 
BRANCH   8   9
HETATM    9  C   UNL     1       4.412  28.321  51.835  1.00  0.00    -0.037 A 
HETATM   10  C   UNL     1       4.385  27.273  50.901  1.00  0.00     0.048 A 
HETATM   11  C   UNL     1       4.721  27.494  49.558  1.00  0.00     0.102 A 
HETATM   12  C   UNL     1       5.103  28.784  49.138  1.00  0.00     0.101 A 
HETATM   13  C   UNL     1       5.150  29.823  50.070  1.00  0.00     0.040 A 
HETATM   14  C   UNL     1       4.814  29.592  51.405  1.00  0.00     0.012 A 
BRANCH  11  15
HETATM   15  O   UNL     1       4.704  26.527  48.584  1.00  0.00    -0.353 OA
HETATM   16  C   UNL     1       3.441  26.019  48.176  1.00  0.00     0.210 C 
ENDBRANCH  11  15
BRANCH  12  17
HETATM   17  O   UNL     1       5.407  28.922  47.806  1.00  0.00    -0.353 OA
HETATM   18  C   UNL     1       4.602  29.800  47.033  1.00  0.00     0.210 C 
ENDBRANCH  12  17
ENDBRANCH   8   9
ENDBRANCH   4   8
BRANCH   5  19
HETATM   19  C   UNL     1       5.477  25.390  54.229  1.00  0.00     0.138 C 
BRANCH  19  20
HETATM   20  C   UNL     1       6.448  24.317  53.769  1.00  0.00     0.224 C 
HETATM   21  N   UNL     1       6.741  23.393  54.752  1.00  0.00    -0.327 N 
HETATM   22  H   UNL     1       6.406  23.606  55.691  1.00  0.00     0.169 HD
HETATM   23  O   UNL     1       6.914  24.356  52.635  1.00  0.00    -0.273 OA
BRANCH  21  24
HETATM   24  C   UNL     1       7.584  22.268  54.669  1.00  0.00     0.034 A 
HETATM   25  C   UNL     1       8.320  21.758  55.738  1.00  0.00     0.029 A 
HETATM   26  C   UNL     1       9.130  20.631  55.560  1.00  0.00     0.002 A 
HETATM   27  C   UNL     1       9.215  20.012  54.313  1.00  0.00     0.000 A 
HETATM   28  C   UNL     1       8.489  20.519  53.240  1.00  0.00     0.002 A 
HETATM   29  C   UNL     1       7.676  21.640  53.419  1.00  0.00     0.029 A 
ENDBRANCH  21  24
ENDBRANCH  19  20
ENDBRANCH   5  19
BRANCH   1  30
HETATM   30  C   UNL     1       7.576  29.083  56.605  1.00  0.00     0.047 A 
HETATM   31  C   UNL     1       7.032  29.426  57.850  1.00  0.00     0.033 A 
HETATM   32  C   UNL     1       7.807  30.054  58.837  1.00  0.00     0.039 A 
HETATM   33  C   UNL     1       9.146  30.359  58.608  1.00  0.00     0.068 A 
HETATM   34  C   UNL     1       9.693  30.068  57.366  1.00  0.00     0.039 A 
HETATM   35  C   UNL     1       8.916  29.441  56.380  1.00  0.00     0.033 A 
BRANCH  33  36
HETATM   36  O   UNL     1       9.800  30.943  59.656  1.00  0.00    -0.356 OA
HETATM   37  C   UNL     1       9.199  32.113  60.200  1.00  0.00     0.210 C 
ENDBRANCH  33  36
ENDBRANCH   1  30
TORSDOF 9
ENDMDL
MODEL 9
REMARK VINA RESULT:      -8.8      1.734      8.570
REMARK  9 active torsions:
REMARK  status: ('A' for Active; 'I' for Inactive)
REMARK    1  A    between atoms: O_2  and  C_3 
REMARK    2  A    between atoms: C_6  and  N_7 
REMARK    3  A    between atoms: N_10  and  C_11 
REMARK    4  A    between atoms: C_11  and  C_12 
REMARK    5  A    between atoms: C_14  and  O_15 
REMARK    6  A    between atoms: C_17  and  O_18 
REMARK    7  A    between atoms: C_22  and  C_23 
REMARK    8  A    between atoms: C_23  and  C_24 
REMARK       I    between atoms: C_24  and  N_25 
REMARK    9  A    between atoms: N_25  and  C_26 
ROOT
HETATM    1  N   UNL     1       6.888  28.449  56.591  1.00  0.00    -0.232 N 
HETATM    2  C   UNL     1       6.629  27.125  56.878  1.00  0.00     0.333 C 
HETATM    3  O   UNL     1       6.906  26.489  57.884  1.00  0.00    -0.246 OA
HETATM    4  N   UNL     1       5.962  26.564  55.794  1.00  0.00    -0.315 N 
HETATM    5  C   UNL     1       5.605  27.550  54.799  1.00  0.00     0.191 C 
HETATM    6  C   UNL     1       6.429  28.727  55.324  1.00  0.00     0.256 C 
HETATM    7  O   UNL     1       6.633  29.731  54.646  1.00  0.00    -0.270 OA
ENDROOT
BRANCH   4   8
HETATM    8  C   UNL     1       5.491  25.185  55.772  1.00  0.00     0.167 C 
BRANCH   8   9
HETATM    9  C   UNL     1       6.487  24.249  55.127  1.00  0.00    -0.037 A 
HETATM   10  C   UNL     1       7.351  23.470  55.914  1.00  0.00     0.048 A 
HETATM   11  C   UNL     1       8.265  22.588  55.323  1.00  0.00     0.102 A 
HETATM   12  C   UNL     1       8.330  22.486  53.919  1.00  0.00     0.101 A 
HETATM   13  C   UNL     1       7.486  23.276  53.134  1.00  0.00     0.040 A 
HETATM   14  C   UNL     1       6.578  24.152  53.733  1.00  0.00     0.012 A 
BRANCH  11  15
HETATM   15  O   UNL     1       9.130  21.783  56.022  1.00  0.00    -0.353 OA
HETATM   16  C   UNL     1       8.580  20.695  56.751  1.00  0.00     0.210 C 
ENDBRANCH  11  15
BRANCH  12  17
HETATM   17  O   UNL     1       9.244  21.593  53.417  1.00  0.00    -0.353 OA
HETATM   18  C   UNL     1       8.756  20.349  52.938  1.00  0.00     0.210 C 
ENDBRANCH  12  17
ENDBRANCH   8   9
ENDBRANCH   4   8
BRANCH   5  19
HETATM   19  C   UNL     1       5.976  27.226  53.360  1.00  0.00     0.138 C 
BRANCH  19  20
HETATM   20  C   UNL     1       4.778  27.447  52.454  1.00  0.00     0.224 C 
HETATM   21  N   UNL     1       5.065  27.258  51.117  1.00  0.00    -0.327 N 
HETATM   22  H   UNL     1       6.049  27.144  50.876  1.00  0.00     0.169 HD
HETATM   23  O   UNL     1       3.702  27.794  52.933  1.00  0.00    -0.273 OA
BRANCH  21  24
HETATM   24  C   UNL     1       4.198  27.364  50.014  1.00  0.00     0.034 A 
HETATM   25  C   UNL     1       3.391  28.471  49.751  1.00  0.00     0.029 A 
HETATM   26  C   UNL     1       2.561  28.485  48.624  1.00  0.00     0.002 A 
HETATM   27  C   UNL     1       2.526  27.393  47.759  1.00  0.00     0.000 A 
HETATM   28  C   UNL     1       3.323  26.282  48.018  1.00  0.00     0.002 A 
HETATM   29  C   UNL     1       4.155  26.269  49.138  1.00  0.00     0.029 A 
ENDBRANCH  21  24
ENDBRANCH  19  20
ENDBRANCH   5  19
BRANCH   1  30
HETATM   30  C   UNL     1       7.615  29.361  57.416  1.00  0.00     0.047 A 
HETATM   31  C   UNL     1       9.014  29.347  57.487  1.00  0.00     0.033 A 
HETATM   32  C   UNL     1       9.714  30.279  58.269  1.00  0.00     0.039 A 
HETATM   33  C   UNL     1       9.038  31.249  59.002  1.00  0.00     0.068 A 
HETATM   34  C   UNL     1       7.650  31.255  58.980  1.00  0.00     0.039 A 
HETATM   35  C   UNL     1       6.951  30.321  58.199  1.00  0.00     0.033 A 
BRANCH  33  36
HETATM   36  O   UNL     1       9.832  32.115  59.699  1.00  0.00    -0.356 OA
HETATM   37  C   UNL     1       9.727  32.064  61.117  1.00  0.00     0.210 C 
ENDBRANCH  33  36
ENDBRANCH   1  30
TORSDOF 9
ENDMDL
MODEL 10
REMARK VINA RESULT:      -8.8      2.506      7.908
REMARK  9 active torsions:
REMARK  status: ('A' for Active; 'I' for Inactive)
REMARK    1  A    between atoms: O_2  and  C_3 
REMARK    2  A    between atoms: C_6  and  N_7 
REMARK    3  A    between atoms: N_10  and  C_11 
REMARK    4  A    between atoms: C_11  and  C_12 
REMARK    5  A    between atoms: C_14  and  O_15 
REMARK    6  A    between atoms: C_17  and  O_18 
REMARK    7  A    between atoms: C_22  and  C_23 
REMARK    8  A    between atoms: C_23  and  C_24 
REMARK       I    between atoms: C_24  and  N_25 
REMARK    9  A    between atoms: N_25  and  C_26 
ROOT
HETATM    1  N   UNL     1       6.398  25.963  54.820  1.00  0.00    -0.232 N 
HETATM    2  C   UNL     1       5.279  26.470  54.193  1.00  0.00     0.333 C 
HETATM    3  O   UNL     1       4.602  25.969  53.307  1.00  0.00    -0.246 OA
HETATM    4  N   UNL     1       4.998  27.718  54.740  1.00  0.00    -0.315 N 
HETATM    5  C   UNL     1       5.837  28.021  55.878  1.00  0.00     0.191 C 
HETATM    6  C   UNL     1       6.855  26.889  55.731  1.00  0.00     0.256 C 
HETATM    7  O   UNL     1       7.918  26.886  56.347  1.00  0.00    -0.270 OA
ENDROOT
BRANCH   4   8
HETATM    8  C   UNL     1       3.851  28.524  54.344  1.00  0.00     0.167 C 
BRANCH   8   9
HETATM    9  C   UNL     1       4.198  29.527  53.268  1.00  0.00    -0.037 A 
HETATM   10  C   UNL     1       5.018  29.162  52.188  1.00  0.00     0.048 A 
HETATM   11  C   UNL     1       5.330  30.082  51.177  1.00  0.00     0.102 A 
HETATM   12  C   UNL     1       4.827  31.396  51.249  1.00  0.00     0.101 A 
HETATM   13  C   UNL     1       4.028  31.766  52.335  1.00  0.00     0.040 A 
HETATM   14  C   UNL     1       3.723  30.842  53.336  1.00  0.00     0.012 A 
BRANCH  11  15
HETATM   15  O   UNL     1       6.110  29.798  50.083  1.00  0.00    -0.353 OA
HETATM   16  C   UNL     1       5.601  28.877  49.128  1.00  0.00     0.210 C 
ENDBRANCH  11  15
BRANCH  12  17
HETATM   17  O   UNL     1       5.170  32.234  50.217  1.00  0.00    -0.353 OA
HETATM   18  C   UNL     1       4.141  32.635  49.324  1.00  0.00     0.210 C 
ENDBRANCH  12  17
ENDBRANCH   8   9
ENDBRANCH   4   8
BRANCH   5  19
HETATM   19  C   UNL     1       6.527  29.375  55.871  1.00  0.00     0.138 C 
BRANCH  19  20
HETATM   20  C   UNL     1       6.379  30.040  57.229  1.00  0.00     0.224 C 
HETATM   21  N   UNL     1       7.588  30.318  57.832  1.00  0.00    -0.327 N 
HETATM   22  H   UNL     1       8.418  29.927  57.389  1.00  0.00     0.169 HD
HETATM   23  O   UNL     1       5.261  30.241  57.694  1.00  0.00    -0.273 OA
BRANCH  21  24
HETATM   24  C   UNL     1       7.822  30.937  59.075  1.00  0.00     0.034 A 
HETATM   25  C   UNL     1       7.089  32.016  59.566  1.00  0.00     0.029 A 
HETATM   26  C   UNL     1       7.394  32.564  60.817  1.00  0.00     0.002 A 
HETATM   27  C   UNL     1       8.437  32.042  61.580  1.00  0.00     0.000 A 
HETATM   28  C   UNL     1       9.178  30.969  61.095  1.00  0.00     0.002 A 
HETATM   29  C   UNL     1       8.870  30.419  59.850  1.00  0.00     0.029 A 
ENDBRANCH  21  24
ENDBRANCH  19  20
ENDBRANCH   5  19
BRANCH   1  30
HETATM   30  C   UNL     1       7.053  24.733  54.506  1.00  0.00     0.047 A 
HETATM   31  C   UNL     1       7.176  23.696  55.439  1.00  0.00     0.033 A 
HETATM   32  C   UNL     1       7.784  22.477  55.101  1.00  0.00     0.039 A 
HETATM   33  C   UNL     1       8.287  22.260  53.821  1.00  0.00     0.068 A 
HETATM   34  C   UNL     1       8.215  23.290  52.893  1.00  0.00     0.039 A 
HETATM   35  C   UNL     1       7.608  24.508  53.234  1.00  0.00     0.033 A 
BRANCH  33  36
HETATM   36  O   UNL     1       8.828  21.024  53.607  1.00  0.00    -0.356 OA
HETATM   37  C   UNL     1       8.672  20.077  54.658  1.00  0.00     0.210 C 
ENDBRANCH  33  36
ENDBRANCH   1  30
TORSDOF 9
ENDMDL
