MODEL 1
REMARK VINA RESULT:      -9.3      0.000      0.000
REMARK  7 active torsions:
REMARK  status: ('A' for Active; 'I' for Inactive)
REMARK    1  A    between atoms: C_2  and  C_3 
REMARK    2  A    between atoms: C_6  and  O_7 
REMARK    3  A    between atoms: O_7  and  C_8 
REMARK    4  A    between atoms: C_8  and  C_9 
REMARK    5  A    between atoms: C_9  and  C_10 
REMARK       I    between atoms: C_10  and  N_11 
REMARK    6  A    between atoms: N_11  and  C_12 
REMARK    7  A    between atoms: C_19  and  C_20 
REMARK       I    between atoms: C_20  and  N_21 
ROOT
HETATM    1  C   UNL     1       5.760  28.401  55.598  1.00  0.00     0.224 C 
HETATM    2  N   UNL     1       6.873  28.101  56.360  1.00  0.00    -0.327 N 
HETATM    3  O   UNL     1       5.335  29.523  55.343  1.00  0.00    -0.273 OA
HETATM    4  H   UNL     1       7.032  27.114  56.549  1.00  0.00     0.169 HD
ENDROOT
BRANCH   2   5
HETATM    5  C   UNL     1       7.764  29.001  56.980  1.00  0.00     0.035 A 
HETATM    6  C   UNL     1       7.442  29.751  58.120  1.00  0.00     0.046 A 
HETATM    7  C   UNL     1       8.396  30.644  58.655  1.00  0.00     0.030 A 
HETATM    8  C   UNL     1       9.642  30.739  58.049  1.00  0.00     0.063 A 
HETATM    9  C   UNL     1       8.441  31.575  59.737  1.00  0.00     0.156 A 
HETATM   10  N   UNL     1      10.338  31.653  58.788  1.00  0.00    -0.277 N 
HETATM   11  C   UNL     1       9.996  30.004  56.915  1.00  0.00     0.034 A 
HETATM   12  H   UNL     1      11.291  31.965  58.640  1.00  0.00     0.189 HD
HETATM   13  N   UNL     1       9.647  32.185  59.810  1.00  0.00    -0.168 NA
HETATM   14  C   UNL     1       9.026  29.144  56.388  1.00  0.00     0.032 A 
BRANCH   9  15
HETATM   15  C   UNL     1       7.367  31.904  60.685  1.00  0.00     0.270 C 
HETATM   16  N   UNL     1       7.262  31.033  61.734  1.00  0.00    -0.365 N 
HETATM   17  H   UNL     1       7.918  30.263  61.792  1.00  0.00     0.159 HD
HETATM   18  H   UNL     1       6.574  31.198  62.452  1.00  0.00     0.159 HD
HETATM   19  O   UNL     1       6.621  32.872  60.588  1.00  0.00    -0.266 OA
ENDBRANCH   9  15
ENDBRANCH   2   5
BRANCH   1  20
HETATM   20  C   UNL     1       5.067  27.178  55.023  1.00  0.00     0.130 C 
BRANCH  20  21
HETATM   21  C   UNL     1       5.635  26.762  53.673  1.00  0.00     0.185 C 
BRANCH  21  22
HETATM   22  O   UNL     1       7.049  26.572  53.841  1.00  0.00    -0.351 OA
BRANCH  22  23
HETATM   23  C   UNL     1       7.428  25.265  53.975  1.00  0.00     0.068 A 
HETATM   24  C   UNL     1       7.464  24.514  52.803  1.00  0.00     0.037 A 
HETATM   25  C   UNL     1       7.862  23.177  52.837  1.00  0.00     0.010 A 
HETATM   26  C   UNL     1       8.260  22.580  54.041  1.00  0.00    -0.055 A 
HETATM   27  C   UNL     1       8.238  23.356  55.211  1.00  0.00     0.010 A 
HETATM   28  C   UNL     1       7.828  24.693  55.179  1.00  0.00     0.037 A 
BRANCH  26  29
HETATM   29  C   UNL     1       8.698  21.127  54.108  1.00  0.00     0.010 C 
HETATM   30  C   UNL     1       8.361  20.360  52.826  1.00  0.00     0.015 C 
HETATM   31  C   UNL     1       8.097  20.431  55.331  1.00  0.00     0.015 C 
ENDBRANCH  26  29
ENDBRANCH  22  23
ENDBRANCH  21  22
ENDBRANCH  20  21
ENDBRANCH   1  20
TORSDOF 7
ENDMDL
MODEL 2
REMARK VINA RESULT:      -9.1      4.171     10.527
REMARK  7 active torsions:
REMARK  status: ('A' for Active; 'I' for Inactive)
REMARK    1  A    between atoms: C_2  and  C_3 
REMARK    2  A    between atoms: C_6  and  O_7 
REMARK    3  A    between atoms: O_7  and  C_8 
REMARK    4  A    between atoms: C_8  and  C_9 
REMARK    5  A    between atoms: C_9  and  C_10 
REMARK       I    between atoms: C_10  and  N_11 
REMARK    6  A    between atoms: N_11  and  C_12 
REMARK    7  A    between atoms: C_19  and  C_20 
REMARK       I    between atoms: C_20  and  N_21 
ROOT
HETATM    1  C   UNL     1       9.253  31.649  60.023  1.00  0.00     0.224 C 
HETATM    2  N   UNL     1       8.958  30.361  59.617  1.00  0.00    -0.327 N 
HETATM    3  O   UNL     1       9.321  32.640  59.304  1.00  0.00    -0.273 OA
HETATM    4  H   UNL     1       9.035  29.640  60.330  1.00  0.00     0.169 HD
ENDROOT
BRANCH   2   5
HETATM    5  C   UNL     1       8.652  29.915  58.315  1.00  0.00     0.035 A 
HETATM    6  C   UNL     1       7.365  29.541  57.906  1.00  0.00     0.046 A 
HETATM    7  C   UNL     1       7.162  29.084  56.584  1.00  0.00     0.030 A 
HETATM    8  C   UNL     1       8.244  29.041  55.715  1.00  0.00     0.063 A 
HETATM    9  C   UNL     1       6.057  28.597  55.822  1.00  0.00     0.156 A 
HETATM   10  N   UNL     1       7.741  28.583  54.531  1.00  0.00    -0.277 N 
HETATM   11  C   UNL     1       9.538  29.409  56.090  1.00  0.00     0.034 A 
HETATM   12  H   UNL     1       8.247  28.434  53.665  1.00  0.00     0.189 HD
HETATM   13  N   UNL     1       6.429  28.297  54.556  1.00  0.00    -0.168 NA
HETATM   14  C   UNL     1       9.719  29.834  57.411  1.00  0.00     0.032 A 
BRANCH   9  15
HETATM   15  C   UNL     1       4.672  28.397  56.272  1.00  0.00     0.270 C 
HETATM   16  N   UNL     1       4.428  27.156  56.794  1.00  0.00    -0.365 N 
HETATM   17  H   UNL     1       5.194  26.494  56.849  1.00  0.00     0.159 HD
HETATM   18  H   UNL     1       3.514  26.940  57.158  1.00  0.00     0.159 HD
HETATM   19  O   UNL     1       3.788  29.245  56.216  1.00  0.00    -0.266 OA
ENDBRANCH   9  15
ENDBRANCH   2   5
BRANCH   1  20
HETATM   20  C   UNL     1       9.465  31.782  61.521  1.00  0.00     0.130 C 
BRANCH  20  21
HETATM   21  C   UNL     1       8.401  31.052  62.331  1.00  0.00     0.185 C 
BRANCH  21  22
HETATM   22  O   UNL     1       7.163  31.759  62.151  1.00  0.00    -0.351 OA
BRANCH  22  23
HETATM   23  C   UNL     1       6.746  32.451  63.253  1.00  0.00     0.068 A 
HETATM   24  C   UNL     1       5.368  32.578  63.412  1.00  0.00     0.037 A 
HETATM   25  C   UNL     1       4.847  33.248  64.521  1.00  0.00     0.010 A 
HETATM   26  C   UNL     1       5.699  33.775  65.502  1.00  0.00    -0.055 A 
HETATM   27  C   UNL     1       7.084  33.621  65.338  1.00  0.00     0.010 A 
HETATM   28  C   UNL     1       7.607  32.959  64.221  1.00  0.00     0.037 A 
BRANCH  26  29
HETATM   29  C   UNL     1       5.160  34.508  66.718  1.00  0.00     0.010 C 
HETATM   30  C   UNL     1       4.650  35.910  66.371  1.00  0.00     0.015 C 
HETATM   31  C   UNL     1       6.212  34.572  67.828  1.00  0.00     0.015 C 
ENDBRANCH  26  29
ENDBRANCH  22  23
ENDBRANCH  21  22
ENDBRANCH  20  21
ENDBRANCH   1  20
TORSDOF 7
ENDMDL
MODEL 3
REMARK VINA RESULT:      -9.1      2.908      5.382
REMARK  7 active torsions:
REMARK  status: ('A' for Active; 'I' for Inactive)
REMARK    1  A    between atoms: C_2  and  C_3 
REMARK    2  A    between atoms: C_6  and  O_7 
REMARK    3  A    between atoms: O_7  and  C_8 
REMARK    4  A    between atoms: C_8  and  C_9 
REMARK    5  A    between atoms: C_9  and  C_10 
REMARK       I    between atoms: C_10  and  N_11 
REMARK    6  A    between atoms: N_11  and  C_12 
REMARK    7  A    between atoms: C_19  and  C_20 
REMARK       I    between atoms: C_20  and  N_21 
ROOT
HETATM    1  C   UNL     1       8.474  31.352  59.456  1.00  0.00     0.224 C 
HETATM    2  N   UNL     1       7.696  30.928  60.517  1.00  0.00    -0.327 N 
HETATM    3  O   UNL     1       8.897  32.488  59.274  1.00  0.00    -0.273 OA
HETATM    4  H   UNL     1       7.354  29.971  60.466  1.00  0.00     0.169 HD
ENDROOT
BRANCH   2   5
HETATM    5  C   UNL     1       7.246  31.688  61.616  1.00  0.00     0.035 A 
HETATM    6  C   UNL     1       5.934  32.163  61.746  1.00  0.00     0.046 A 
HETATM    7  C   UNL     1       5.584  32.937  62.875  1.00  0.00     0.030 A 
HETATM    8  C   UNL     1       6.549  33.187  63.842  1.00  0.00     0.063 A 
HETATM    9  C   UNL     1       4.413  33.608  63.339  1.00  0.00     0.156 A 
HETATM   10  N   UNL     1       5.918  33.931  64.799  1.00  0.00    -0.277 N 
HETATM   11  C   UNL     1       7.863  32.726  63.745  1.00  0.00     0.034 A 
HETATM   12  H   UNL     1       6.317  34.287  65.661  1.00  0.00     0.189 HD
HETATM   13  N   UNL     1       4.633  34.212  64.530  1.00  0.00    -0.168 NA
HETATM   14  C   UNL     1       8.192  31.984  62.606  1.00  0.00     0.032 A 
BRANCH   9  15
HETATM   15  C   UNL     1       3.105  33.701  62.674  1.00  0.00     0.270 C 
HETATM   16  N   UNL     1       2.038  33.632  63.528  1.00  0.00    -0.365 N 
HETATM   17  H   UNL     1       2.218  33.546  64.522  1.00  0.00     0.159 HD
HETATM   18  H   UNL     1       1.103  33.720  63.164  1.00  0.00     0.159 HD
HETATM   19  O   UNL     1       2.942  33.841  61.467  1.00  0.00    -0.266 OA
ENDBRANCH   9  15
ENDBRANCH   2   5
BRANCH   1  20
HETATM   20  C   UNL     1       8.831  30.243  58.482  1.00  0.00     0.130 C 
BRANCH  20  21
HETATM   21  C   UNL     1       7.640  29.360  58.134  1.00  0.00     0.185 C 
BRANCH  21  22
HETATM   22  O   UNL     1       8.061  27.994  58.278  1.00  0.00    -0.351 OA
BRANCH  22  23
HETATM   23  C   UNL     1       7.879  27.230  57.159  1.00  0.00     0.068 A 
HETATM   24  C   UNL     1       7.912  25.850  57.347  1.00  0.00     0.037 A 
HETATM   25  C   UNL     1       7.712  24.989  56.266  1.00  0.00     0.010 A 
HETATM   26  C   UNL     1       7.445  25.497  54.987  1.00  0.00    -0.055 A 
HETATM   27  C   UNL     1       7.395  26.890  54.818  1.00  0.00     0.010 A 
HETATM   28  C   UNL     1       7.606  27.754  55.899  1.00  0.00     0.037 A 
BRANCH  26  29
HETATM   29  C   UNL     1       7.224  24.584  53.794  1.00  0.00     0.010 C 
HETATM   30  C   UNL     1       7.678  23.148  54.070  1.00  0.00     0.015 C 
HETATM   31  C   UNL     1       7.911  25.141  52.545  1.00  0.00     0.015 C 
ENDBRANCH  26  29
ENDBRANCH  22  23
ENDBRANCH  21  22
ENDBRANCH  20  21
ENDBRANCH   1  20
TORSDOF 7
ENDMDL
MODEL 4
REMARK VINA RESULT:      -9.0      0.876      1.445
REMARK  7 active torsions:
REMARK  status: ('A' for Active; 'I' for Inactive)
REMARK    1  A    between atoms: C_2  and  C_3 
REMARK    2  A    between atoms: C_6  and  O_7 
REMARK    3  A    between atoms: O_7  and  C_8 
REMARK    4  A    between atoms: C_8  and  C_9 
REMARK    5  A    between atoms: C_9  and  C_10 
REMARK       I    between atoms: C_10  and  N_11 
REMARK    6  A    between atoms: N_11  and  C_12 
REMARK    7  A    between atoms: C_19  and  C_20 
REMARK       I    between atoms: C_20  and  N_21 
ROOT
HETATM    1  C   UNL     1       6.421  27.507  56.410  1.00  0.00     0.224 C 
HETATM    2  N   UNL     1       7.043  28.693  56.070  1.00  0.00    -0.327 N 
HETATM    3  O   UNL     1       6.528  26.910  57.476  1.00  0.00    -0.273 OA
HETATM    4  H   UNL     1       6.919  29.003  55.108  1.00  0.00     0.169 HD
ENDROOT
BRANCH   2   5
HETATM    5  C   UNL     1       7.900  29.479  56.867  1.00  0.00     0.035 A 
HETATM    6  C   UNL     1       7.490  30.133  58.037  1.00  0.00     0.046 A 
HETATM    7  C   UNL     1       8.419  30.916  58.756  1.00  0.00     0.030 A 
HETATM    8  C   UNL     1       9.727  31.000  58.295  1.00  0.00     0.063 A 
HETATM    9  C   UNL     1       8.387  31.735  59.926  1.00  0.00     0.156 A 
HETATM   10  N   UNL     1      10.377  31.799  59.192  1.00  0.00    -0.277 N 
HETATM   11  C   UNL     1      10.169  30.359  57.136  1.00  0.00     0.034 A 
HETATM   12  H   UNL     1      11.354  32.071  59.176  1.00  0.00     0.189 HD
HETATM   13  N   UNL     1       9.604  32.268  60.185  1.00  0.00    -0.168 NA
HETATM   14  C   UNL     1       9.224  29.609  56.427  1.00  0.00     0.032 A 
BRANCH   9  15
HETATM   15  C   UNL     1       7.232  32.031  60.786  1.00  0.00     0.270 C 
HETATM   16  N   UNL     1       7.078  31.163  61.832  1.00  0.00    -0.365 N 
HETATM   17  H   UNL     1       7.756  30.418  61.947  1.00  0.00     0.159 HD
HETATM   18  H   UNL     1       6.331  31.307  62.493  1.00  0.00     0.159 HD
HETATM   19  O   UNL     1       6.460  32.970  60.623  1.00  0.00    -0.266 OA
ENDBRANCH   9  15
ENDBRANCH   2   5
BRANCH   1  20
HETATM   20  C   UNL     1       5.506  26.966  55.326  1.00  0.00     0.130 C 
BRANCH  20  21
HETATM   21  C   UNL     1       6.206  26.828  53.981  1.00  0.00     0.185 C 
BRANCH  21  22
HETATM   22  O   UNL     1       7.528  26.325  54.234  1.00  0.00    -0.351 OA
BRANCH  22  23
HETATM   23  C   UNL     1       7.642  24.967  54.128  1.00  0.00     0.068 A 
HETATM   24  C   UNL     1       7.728  24.264  55.328  1.00  0.00     0.037 A 
HETATM   25  C   UNL     1       7.822  22.871  55.321  1.00  0.00     0.010 A 
HETATM   26  C   UNL     1       7.800  22.159  54.114  1.00  0.00    -0.055 A 
HETATM   27  C   UNL     1       7.691  22.880  52.915  1.00  0.00     0.010 A 
HETATM   28  C   UNL     1       7.608  24.277  52.920  1.00  0.00     0.037 A 
BRANCH  26  29
HETATM   29  C   UNL     1       7.900  20.644  54.077  1.00  0.00     0.010 C 
HETATM   30  C   UNL     1       8.563  20.075  55.335  1.00  0.00     0.015 C 
HETATM   31  C   UNL     1       8.634  20.176  52.818  1.00  0.00     0.015 C 
ENDBRANCH  26  29
ENDBRANCH  22  23
ENDBRANCH  21  22
ENDBRANCH  20  21
ENDBRANCH   1  20
TORSDOF 7
ENDMDL
MODEL 5
REMARK VINA RESULT:      -8.7      1.757      2.926
REMARK  7 active torsions:
REMARK  status: ('A' for Active; 'I' for Inactive)
REMARK    1  A    between atoms: C_2  and  C_3 
REMARK    2  A    between atoms: C_6  and  O_7 
REMARK    3  A    between atoms: O_7  and  C_8 
REMARK    4  A    between atoms: C_8  and  C_9 
REMARK    5  A    between atoms: C_9  and  C_10 
REMARK       I    between atoms: C_10  and  N_11 
REMARK    6  A    between atoms: N_11  and  C_12 
REMARK    7  A    between atoms: C_19  and  C_20 
REMARK       I    between atoms: C_20  and  N_21 
ROOT
HETATM    1  C   UNL     1       7.871  28.897  57.400  1.00  0.00     0.224 C 
HETATM    2  N   UNL     1       7.811  30.222  57.786  1.00  0.00    -0.327 N 
HETATM    3  O   UNL     1       8.098  27.937  58.129  1.00  0.00    -0.273 OA
HETATM    4  H   UNL     1       7.705  30.902  57.036  1.00  0.00     0.169 HD
ENDROOT
BRANCH   2   5
HETATM    5  C   UNL     1       7.969  30.752  59.083  1.00  0.00     0.035 A 
HETATM    6  C   UNL     1       6.907  31.246  59.854  1.00  0.00     0.046 A 
HETATM    7  C   UNL     1       7.169  31.779  61.136  1.00  0.00     0.030 A 
HETATM    8  C   UNL     1       8.475  31.777  61.610  1.00  0.00     0.063 A 
HETATM    9  C   UNL     1       6.401  32.387  62.174  1.00  0.00     0.156 A 
HETATM   10  N   UNL     1       8.409  32.329  62.858  1.00  0.00    -0.277 N 
HETATM   11  C   UNL     1       9.554  31.290  60.870  1.00  0.00     0.034 A 
HETATM   12  H   UNL     1       9.175  32.477  63.504  1.00  0.00     0.189 HD
HETATM   13  N   UNL     1       7.179  32.716  63.232  1.00  0.00    -0.168 NA
HETATM   14  C   UNL     1       9.273  30.791  59.593  1.00  0.00     0.032 A 
BRANCH   9  15
HETATM   15  C   UNL     1       4.959  32.675  62.176  1.00  0.00     0.270 C 
HETATM   16  N   UNL     1       4.169  31.568  62.329  1.00  0.00    -0.365 N 
HETATM   17  H   UNL     1       4.617  30.666  62.446  1.00  0.00     0.159 HD
HETATM   18  H   UNL     1       3.169  31.673  62.375  1.00  0.00     0.159 HD
HETATM   19  O   UNL     1       4.468  33.793  62.067  1.00  0.00    -0.266 OA
ENDBRANCH   9  15
ENDBRANCH   2   5
BRANCH   1  20
HETATM   20  C   UNL     1       7.583  28.678  55.925  1.00  0.00     0.130 C 
BRANCH  20  21
HETATM   21  C   UNL     1       7.010  27.297  55.637  1.00  0.00     0.185 C 
BRANCH  21  22
HETATM   22  O   UNL     1       7.570  26.850  54.391  1.00  0.00    -0.351 OA
BRANCH  22  23
HETATM   23  C   UNL     1       7.627  25.491  54.257  1.00  0.00     0.068 A 
HETATM   24  C   UNL     1       7.660  24.759  55.442  1.00  0.00     0.037 A 
HETATM   25  C   UNL     1       7.694  23.364  55.406  1.00  0.00     0.010 A 
HETATM   26  C   UNL     1       7.664  22.680  54.183  1.00  0.00    -0.055 A 
HETATM   27  C   UNL     1       7.609  23.431  52.998  1.00  0.00     0.010 A 
HETATM   28  C   UNL     1       7.587  24.830  53.034  1.00  0.00     0.037 A 
BRANCH  26  29
HETATM   29  C   UNL     1       7.700  21.163  54.113  1.00  0.00     0.010 C 
HETATM   30  C   UNL     1       7.973  20.526  55.479  1.00  0.00     0.015 C 
HETATM   31  C   UNL     1       8.721  20.688  53.078  1.00  0.00     0.015 C 
ENDBRANCH  26  29
ENDBRANCH  22  23
ENDBRANCH  21  22
ENDBRANCH  20  21
ENDBRANCH   1  20
TORSDOF 7
ENDMDL
MODEL 6
REMARK VINA RESULT:      -8.6      4.396      7.929
REMARK  7 active torsions:
REMARK  status: ('A' for Active; 'I' for Inactive)
REMARK    1  A    between atoms: C_2  and  C_3 
REMARK    2  A    between atoms: C_6  and  O_7 
REMARK    3  A    between atoms: O_7  and  C_8 
REMARK    4  A    between atoms: C_8  and  C_9 
REMARK    5  A    between atoms: C_9  and  C_10 
REMARK       I    between atoms: C_10  and  N_11 
REMARK    6  A    between atoms: N_11  and  C_12 
REMARK    7  A    between atoms: C_19  and  C_20 
REMARK       I    between atoms: C_20  and  N_21 
ROOT
HETATM    1  C   UNL     1       5.515  28.495  54.200  1.00  0.00     0.224 C 
HETATM    2  N   UNL     1       5.811  29.044  52.967  1.00  0.00    -0.327 N 
HETATM    3  O   UNL     1       4.431  28.041  54.551  1.00  0.00    -0.273 OA
HETATM    4  H   UNL     1       6.736  29.458  52.874  1.00  0.00     0.169 HD
ENDROOT
BRANCH   2   5
HETATM    5  C   UNL     1       4.957  29.178  51.853  1.00  0.00     0.035 A 
HETATM    6  C   UNL     1       5.080  28.414  50.685  1.00  0.00     0.046 A 
HETATM    7  C   UNL     1       4.189  28.638  49.612  1.00  0.00     0.030 A 
HETATM    8  C   UNL     1       3.196  29.599  49.753  1.00  0.00     0.063 A 
HETATM    9  C   UNL     1       4.012  28.116  48.294  1.00  0.00     0.156 A 
HETATM   10  N   UNL     1       2.497  29.573  48.580  1.00  0.00    -0.277 N 
HETATM   11  C   UNL     1       3.045  30.375  50.904  1.00  0.00     0.034 A 
HETATM   12  H   UNL     1       1.692  30.139  48.333  1.00  0.00     0.189 HD
HETATM   13  N   UNL     1       2.961  28.700  47.672  1.00  0.00    -0.168 NA
HETATM   14  C   UNL     1       3.954  30.152  51.943  1.00  0.00     0.032 A 
BRANCH   9  15
HETATM   15  C   UNL     1       4.824  27.096  47.615  1.00  0.00     0.270 C 
HETATM   16  N   UNL     1       6.055  27.538  47.214  1.00  0.00    -0.365 N 
HETATM   17  H   UNL     1       6.319  28.494  47.424  1.00  0.00     0.159 HD
HETATM   18  H   UNL     1       6.693  26.898  46.769  1.00  0.00     0.159 HD
HETATM   19  O   UNL     1       4.471  25.938  47.417  1.00  0.00    -0.266 OA
ENDBRANCH   9  15
ENDBRANCH   2   5
BRANCH   1  20
HETATM   20  C   UNL     1       6.700  28.448  55.148  1.00  0.00     0.130 C 
BRANCH  20  21
HETATM   21  C   UNL     1       7.268  27.044  55.309  1.00  0.00     0.185 C 
BRANCH  21  22
HETATM   22  O   UNL     1       7.499  26.519  53.992  1.00  0.00    -0.351 OA
BRANCH  22  23
HETATM   23  C   UNL     1       7.602  25.157  53.940  1.00  0.00     0.068 A 
HETATM   24  C   UNL     1       7.414  24.483  55.145  1.00  0.00     0.037 A 
HETATM   25  C   UNL     1       7.476  23.088  55.186  1.00  0.00     0.010 A 
HETATM   26  C   UNL     1       7.695  22.347  54.016  1.00  0.00    -0.055 A 
HETATM   27  C   UNL     1       7.862  23.041  52.807  1.00  0.00     0.010 A 
HETATM   28  C   UNL     1       7.811  24.439  52.767  1.00  0.00     0.037 A 
BRANCH  26  29
HETATM   29  C   UNL     1       7.767  20.831  54.032  1.00  0.00     0.010 C 
HETATM   30  C   UNL     1       8.283  20.288  55.368  1.00  0.00     0.015 C 
HETATM   31  C   UNL     1       8.617  20.312  52.870  1.00  0.00     0.015 C 
ENDBRANCH  26  29
ENDBRANCH  22  23
ENDBRANCH  21  22
ENDBRANCH  20  21
ENDBRANCH   1  20
TORSDOF 7
ENDMDL
MODEL 7
REMARK VINA RESULT:      -8.6      3.318      9.621
REMARK  7 active torsions:
REMARK  status: ('A' for Active; 'I' for Inactive)
REMARK    1  A    between atoms: C_2  and  C_3 
REMARK    2  A    between atoms: C_6  and  O_7 
REMARK    3  A    between atoms: O_7  and  C_8 
REMARK    4  A    between atoms: C_8  and  C_9 
REMARK    5  A    between atoms: C_9  and  C_10 
REMARK       I    between atoms: C_10  and  N_11 
REMARK    6  A    between atoms: N_11  and  C_12 
REMARK    7  A    between atoms: C_19  and  C_20 
REMARK       I    between atoms: C_20  and  N_21 
ROOT
HETATM    1  C   UNL     1       6.093  26.811  56.602  1.00  0.00     0.224 C 
HETATM    2  N   UNL     1       7.173  26.422  55.833  1.00  0.00    -0.327 N 
HETATM    3  O   UNL     1       5.051  26.185  56.760  1.00  0.00    -0.273 OA
HETATM    4  H   UNL     1       7.922  27.105  55.737  1.00  0.00     0.169 HD
ENDROOT
BRANCH   2   5
HETATM    5  C   UNL     1       7.323  25.231  55.093  1.00  0.00     0.035 A 
HETATM    6  C   UNL     1       7.719  24.011  55.659  1.00  0.00     0.046 A 
HETATM    7  C   UNL     1       7.863  22.876  54.831  1.00  0.00     0.030 A 
HETATM    8  C   UNL     1       7.585  22.995  53.475  1.00  0.00     0.063 A 
HETATM    9  C   UNL     1       8.264  21.517  55.007  1.00  0.00     0.156 A 
HETATM   10  N   UNL     1       7.795  21.751  52.951  1.00  0.00    -0.277 N 
HETATM   11  C   UNL     1       7.187  24.193  52.880  1.00  0.00     0.034 A 
HETATM   12  H   UNL     1       7.679  21.464  51.986  1.00  0.00     0.189 HD
HETATM   13  N   UNL     1       8.212  20.834  53.839  1.00  0.00    -0.168 NA
HETATM   14  C   UNL     1       7.075  25.310  53.717  1.00  0.00     0.032 A 
BRANCH   9  15
HETATM   15  C   UNL     1       8.707  20.864  56.247  1.00  0.00     0.270 C 
HETATM   16  N   UNL     1       9.711  19.951  56.070  1.00  0.00    -0.365 N 
HETATM   17  H   UNL     1      10.078  19.810  55.136  1.00  0.00     0.159 HD
HETATM   18  H   UNL     1      10.101  19.478  56.869  1.00  0.00     0.159 HD
HETATM   19  O   UNL     1       8.254  21.098  57.362  1.00  0.00    -0.266 OA
ENDBRANCH   9  15
ENDBRANCH   2   5
BRANCH   1  20
HETATM   20  C   UNL     1       6.302  28.132  57.322  1.00  0.00     0.130 C 
BRANCH  20  21
HETATM   21  C   UNL     1       7.754  28.362  57.718  1.00  0.00     0.185 C 
BRANCH  21  22
HETATM   22  O   UNL     1       8.054  29.745  57.468  1.00  0.00    -0.351 OA
BRANCH  22  23
HETATM   23  C   UNL     1       7.997  30.541  58.578  1.00  0.00     0.068 A 
HETATM   24  C   UNL     1       6.913  31.413  58.651  1.00  0.00     0.037 A 
HETATM   25  C   UNL     1       6.757  32.248  59.760  1.00  0.00     0.010 A 
HETATM   26  C   UNL     1       7.668  32.200  60.824  1.00  0.00    -0.055 A 
HETATM   27  C   UNL     1       8.744  31.302  60.744  1.00  0.00     0.010 A 
HETATM   28  C   UNL     1       8.907  30.472  59.629  1.00  0.00     0.037 A 
BRANCH  26  29
HETATM   29  C   UNL     1       7.523  33.097  62.041  1.00  0.00     0.010 C 
HETATM   30  C   UNL     1       7.926  32.386  63.337  1.00  0.00     0.015 C 
HETATM   31  C   UNL     1       6.101  33.651  62.146  1.00  0.00     0.015 C 
ENDBRANCH  26  29
ENDBRANCH  22  23
ENDBRANCH  21  22
ENDBRANCH  20  21
ENDBRANCH   1  20
TORSDOF 7
ENDMDL
MODEL 8
REMARK VINA RESULT:      -8.6      2.463      3.546
REMARK  7 active torsions:
REMARK  status: ('A' for Active; 'I' for Inactive)
REMARK    1  A    between atoms: C_2  and  C_3 
REMARK    2  A    between atoms: C_6  and  O_7 
REMARK    3  A    between atoms: O_7  and  C_8 
REMARK    4  A    between atoms: C_8  and  C_9 
REMARK    5  A    between atoms: C_9  and  C_10 
REMARK       I    between atoms: C_10  and  N_11 
REMARK    6  A    between atoms: N_11  and  C_12 
REMARK    7  A    between atoms: C_19  and  C_20 
REMARK       I    between atoms: C_20  and  N_21 
ROOT
HETATM    1  C   UNL     1       4.710  28.962  52.918  1.00  0.00     0.224 C 
HETATM    2  N   UNL     1       5.427  28.130  53.757  1.00  0.00    -0.327 N 
HETATM    3  O   UNL     1       4.389  30.123  53.146  1.00  0.00    -0.273 OA
HETATM    4  H   UNL     1       5.526  27.165  53.451  1.00  0.00     0.169 HD
ENDROOT
BRANCH   2   5
HETATM    5  C   UNL     1       5.960  28.435  55.026  1.00  0.00     0.035 A 
HETATM    6  C   UNL     1       7.277  28.867  55.231  1.00  0.00     0.046 A 
HETATM    7  C   UNL     1       7.726  29.126  56.545  1.00  0.00     0.030 A 
HETATM    8  C   UNL     1       6.838  28.968  57.602  1.00  0.00     0.063 A 
HETATM    9  C   UNL     1       8.954  29.530  57.153  1.00  0.00     0.156 A 
HETATM   10  N   UNL     1       7.545  29.302  58.722  1.00  0.00    -0.277 N 
HETATM   11  C   UNL     1       5.520  28.543  57.432  1.00  0.00     0.034 A 
HETATM   12  H   UNL     1       7.209  29.311  59.679  1.00  0.00     0.189 HD
HETATM   13  N   UNL     1       8.824  29.639  58.496  1.00  0.00    -0.168 NA
HETATM   14  C   UNL     1       5.105  28.268  56.124  1.00  0.00     0.032 A 
BRANCH   9  15
HETATM   15  C   UNL     1      10.239  29.796  56.491  1.00  0.00     0.270 C 
HETATM   16  N   UNL     1      11.306  29.850  57.346  1.00  0.00    -0.365 N 
HETATM   17  H   UNL     1      11.144  29.689  58.334  1.00  0.00     0.159 HD
HETATM   18  H   UNL     1      12.233  29.996  56.978  1.00  0.00     0.159 HD
HETATM   19  O   UNL     1      10.388  29.948  55.284  1.00  0.00    -0.266 OA
ENDBRANCH   9  15
ENDBRANCH   2   5
BRANCH   1  20
HETATM   20  C   UNL     1       4.349  28.322  51.588  1.00  0.00     0.130 C 
BRANCH  20  21
HETATM   21  C   UNL     1       5.448  27.410  51.058  1.00  0.00     0.185 C 
BRANCH  21  22
HETATM   22  O   UNL     1       5.055  26.056  51.335  1.00  0.00    -0.351 OA
BRANCH  22  23
HETATM   23  C   UNL     1       5.940  25.363  52.113  1.00  0.00     0.068 A 
HETATM   24  C   UNL     1       5.437  24.850  53.306  1.00  0.00     0.037 A 
HETATM   25  C   UNL     1       6.260  24.107  54.154  1.00  0.00     0.010 A 
HETATM   26  C   UNL     1       7.591  23.840  53.805  1.00  0.00    -0.055 A 
HETATM   27  C   UNL     1       8.078  24.347  52.590  1.00  0.00     0.010 A 
HETATM   28  C   UNL     1       7.256  25.101  51.744  1.00  0.00     0.037 A 
BRANCH  26  29
HETATM   29  C   UNL     1       8.509  23.035  54.708  1.00  0.00     0.010 C 
HETATM   30  C   UNL     1       8.015  21.599  54.906  1.00  0.00     0.015 C 
HETATM   31  C   UNL     1       8.699  23.734  56.056  1.00  0.00     0.015 C 
ENDBRANCH  26  29
ENDBRANCH  22  23
ENDBRANCH  21  22
ENDBRANCH  20  21
ENDBRANCH   1  20
TORSDOF 7
ENDMDL
MODEL 9
REMARK VINA RESULT:      -8.5      2.829      9.888
REMARK  7 active torsions:
REMARK  status: ('A' for Active; 'I' for Inactive)
REMARK    1  A    between atoms: C_2  and  C_3 
REMARK    2  A    between atoms: C_6  and  O_7 
REMARK    3  A    between atoms: O_7  and  C_8 
REMARK    4  A    between atoms: C_8  and  C_9 
REMARK    5  A    between atoms: C_9  and  C_10 
REMARK       I    between atoms: C_10  and  N_11 
REMARK    6  A    between atoms: N_11  and  C_12 
REMARK    7  A    between atoms: C_19  and  C_20 
REMARK       I    between atoms: C_20  and  N_21 
ROOT
HETATM    1  C   UNL     1       8.339  28.346  57.478  1.00  0.00     0.224 C 
HETATM    2  N   UNL     1       7.687  27.133  57.590  1.00  0.00    -0.327 N 
HETATM    3  O   UNL     1       9.122  28.671  56.592  1.00  0.00    -0.273 OA
HETATM    4  H   UNL     1       7.143  26.996  58.439  1.00  0.00     0.169 HD
ENDROOT
BRANCH   2   5
HETATM    5  C   UNL     1       7.756  26.030  56.714  1.00  0.00     0.035 A 
HETATM    6  C   UNL     1       7.035  25.944  55.515  1.00  0.00     0.046 A 
HETATM    7  C   UNL     1       7.154  24.787  54.715  1.00  0.00     0.030 A 
HETATM    8  C   UNL     1       8.005  23.770  55.128  1.00  0.00     0.063 A 
HETATM    9  C   UNL     1       6.583  24.317  53.493  1.00  0.00     0.156 A 
HETATM   10  N   UNL     1       7.922  22.811  54.158  1.00  0.00    -0.277 N 
HETATM   11  C   UNL     1       8.740  23.825  56.313  1.00  0.00     0.034 A 
HETATM   12  H   UNL     1       8.418  21.927  54.124  1.00  0.00     0.189 HD
HETATM   13  N   UNL     1       7.071  23.099  53.160  1.00  0.00    -0.168 NA
HETATM   14  C   UNL     1       8.586  24.970  57.102  1.00  0.00     0.032 A 
BRANCH   9  15
HETATM   15  C   UNL     1       5.581  24.988  52.652  1.00  0.00     0.270 C 
HETATM   16  N   UNL     1       4.325  25.015  53.194  1.00  0.00    -0.365 N 
HETATM   17  H   UNL     1       4.184  24.605  54.110  1.00  0.00     0.159 HD
HETATM   18  H   UNL     1       3.581  25.484  52.702  1.00  0.00     0.159 HD
HETATM   19  O   UNL     1       5.812  25.502  51.564  1.00  0.00    -0.266 OA
ENDBRANCH   9  15
ENDBRANCH   2   5
BRANCH   1  20
HETATM   20  C   UNL     1       7.976  29.337  58.570  1.00  0.00     0.130 C 
BRANCH  20  21
HETATM   21  C   UNL     1       7.709  30.735  58.029  1.00  0.00     0.185 C 
BRANCH  21  22
HETATM   22  O   UNL     1       8.591  31.638  58.717  1.00  0.00    -0.351 OA
BRANCH  22  23
HETATM   23  C   UNL     1       8.138  32.040  59.942  1.00  0.00     0.068 A 
HETATM   24  C   UNL     1       6.808  32.447  60.000  1.00  0.00     0.037 A 
HETATM   25  C   UNL     1       6.249  32.852  61.214  1.00  0.00     0.010 A 
HETATM   26  C   UNL     1       7.006  32.825  62.394  1.00  0.00    -0.055 A 
HETATM   27  C   UNL     1       8.340  32.393  62.322  1.00  0.00     0.010 A 
HETATM   28  C   UNL     1       8.903  31.997  61.104  1.00  0.00     0.037 A 
BRANCH  26  29
HETATM   29  C   UNL     1       6.425  33.260  63.728  1.00  0.00     0.010 C 
HETATM   30  C   UNL     1       5.591  34.539  63.608  1.00  0.00     0.015 C 
HETATM   31  C   UNL     1       7.527  33.426  64.776  1.00  0.00     0.015 C 
ENDBRANCH  26  29
ENDBRANCH  22  23
ENDBRANCH  21  22
ENDBRANCH  20  21
ENDBRANCH   1  20
TORSDOF 7
ENDMDL
MODEL 10
REMARK VINA RESULT:      -8.3      1.864      2.574
REMARK  7 active torsions:
REMARK  status: ('A' for Active; 'I' for Inactive)
REMARK    1  A    between atoms: C_2  and  C_3 
REMARK    2  A    between atoms: C_6  and  O_7 
REMARK    3  A    between atoms: O_7  and  C_8 
REMARK    4  A    between atoms: C_8  and  C_9 
REMARK    5  A    between atoms: C_9  and  C_10 
REMARK       I    between atoms: C_10  and  N_11 
REMARK    6  A    between atoms: N_11  and  C_12 
REMARK    7  A    between atoms: C_19  and  C_20 
REMARK       I    between atoms: C_20  and  N_21 
ROOT
HETATM    1  C   UNL     1       7.036  28.813  56.403  1.00  0.00     0.224 C 
HETATM    2  N   UNL     1       6.871  30.172  56.589  1.00  0.00    -0.327 N 
HETATM    3  O   UNL     1       7.002  27.951  57.275  1.00  0.00    -0.273 OA
HETATM    4  H   UNL     1       7.022  30.756  55.770  1.00  0.00     0.169 HD
ENDROOT
BRANCH   2   5
HETATM    5  C   UNL     1       6.608  30.853  57.795  1.00  0.00     0.035 A 
HETATM    6  C   UNL     1       7.487  30.864  58.888  1.00  0.00     0.046 A 
HETATM    7  C   UNL     1       7.123  31.558  60.063  1.00  0.00     0.030 A 
HETATM    8  C   UNL     1       5.910  32.234  60.097  1.00  0.00     0.063 A 
HETATM    9  C   UNL     1       7.699  31.770  61.353  1.00  0.00     0.156 A 
HETATM   10  N   UNL     1       5.849  32.810  61.334  1.00  0.00    -0.277 N 
HETATM   11  C   UNL     1       5.015  32.245  59.026  1.00  0.00     0.034 A 
HETATM   12  H   UNL     1       5.105  33.389  61.705  1.00  0.00     0.189 HD
HETATM   13  N   UNL     1       6.904  32.549  62.123  1.00  0.00    -0.168 NA
HETATM   14  C   UNL     1       5.385  31.530  57.881  1.00  0.00     0.032 A 
BRANCH   9  15
HETATM   15  C   UNL     1       8.969  31.240  61.869  1.00  0.00     0.270 C 
HETATM   16  N   UNL     1       8.855  30.033  62.501  1.00  0.00    -0.365 N 
HETATM   17  H   UNL     1       7.942  29.596  62.550  1.00  0.00     0.159 HD
HETATM   18  H   UNL     1       9.680  29.577  62.858  1.00  0.00     0.159 HD
HETATM   19  O   UNL     1      10.058  31.793  61.751  1.00  0.00    -0.266 OA
ENDBRANCH   9  15
ENDBRANCH   2   5
BRANCH   1  20
HETATM   20  C   UNL     1       7.237  28.416  54.951  1.00  0.00     0.130 C 
BRANCH  20  21
HETATM   21  C   UNL     1       6.309  27.290  54.515  1.00  0.00     0.185 C 
BRANCH  21  22
HETATM   22  O   UNL     1       6.933  26.623  53.406  1.00  0.00    -0.351 OA
BRANCH  22  23
HETATM   23  C   UNL     1       7.312  25.336  53.668  1.00  0.00     0.068 A 
HETATM   24  C   UNL     1       7.352  24.475  52.574  1.00  0.00     0.037 A 
HETATM   25  C   UNL     1       7.752  23.147  52.739  1.00  0.00     0.010 A 
HETATM   26  C   UNL     1       8.147  22.671  53.997  1.00  0.00    -0.055 A 
HETATM   27  C   UNL     1       8.121  23.556  55.086  1.00  0.00     0.010 A 
HETATM   28  C   UNL     1       7.710  24.884  54.923  1.00  0.00     0.037 A 
BRANCH  26  29
HETATM   29  C   UNL     1       8.586  21.232  54.206  1.00  0.00     0.010 C 
HETATM   30  C   UNL     1       8.487  20.403  52.922  1.00  0.00     0.015 C 
HETATM   31  C   UNL     1       7.793  20.577  55.338  1.00  0.00     0.015 C 
ENDBRANCH  26  29
ENDBRANCH  22  23
ENDBRANCH  21  22
ENDBRANCH  20  21
ENDBRANCH   1  20
TORSDOF 7
ENDMDL
