MODEL 1
REMARK VINA RESULT:     -10.6      0.000      0.000
REMARK  7 active torsions:
REMARK  status: ('A' for Active; 'I' for Inactive)
REMARK    1  A    between atoms: C_2  and  C_3 
REMARK    2  A    between atoms: N_10  and  C_11 
REMARK    3  A    between atoms: C_11  and  C_12 
REMARK       I    between atoms: C_12  and  N_13 
REMARK    4  A    between atoms: N_13  and  C_14 
REMARK    5  A    between atoms: C_17  and  C_18 
REMARK       I    between atoms: C_18  and  N_19 
REMARK    6  A    between atoms: N_19  and  C_20 
REMARK    7  A    between atoms: C_21  and  O_22 
ROOT
HETATM    1  C   UNL     1       5.169  28.227  55.560  1.00  0.00     0.240 C 
HETATM    2  N   UNL     1       5.968  29.334  55.760  1.00  0.00    -0.326 N 
HETATM    3  O   UNL     1       4.545  27.628  56.438  1.00  0.00    -0.271 OA
HETATM    4  H   UNL     1       6.443  29.708  54.948  1.00  0.00     0.169 HD
ENDROOT
BRANCH   2   5
HETATM    5  C   UNL     1       6.172  30.018  56.984  1.00  0.00     0.034 A 
HETATM    6  C   UNL     1       5.329  31.023  57.469  1.00  0.00     0.030 A 
HETATM    7  C   UNL     1       5.611  31.693  58.668  1.00  0.00     0.019 A 
HETATM    8  C   UNL     1       6.746  31.360  59.409  1.00  0.00     0.032 A 
HETATM    9  C   UNL     1       7.592  30.348  58.935  1.00  0.00     0.019 A 
HETATM   10  C   UNL     1       7.302  29.678  57.737  1.00  0.00     0.030 A 
BRANCH   8  11
HETATM   11  C   UNL     1       7.132  32.110  60.640  1.00  0.00     0.256 C 
HETATM   12  N   UNL     1       6.413  31.799  61.779  1.00  0.00    -0.321 N 
HETATM   13  H   UNL     1       5.823  30.975  61.773  1.00  0.00     0.169 HD
HETATM   14  O   UNL     1       8.052  32.918  60.558  1.00  0.00    -0.267 OA
BRANCH  12  15
HETATM   15  C   UNL     1       6.443  32.462  63.030  1.00  0.00     0.068 A 
HETATM   16  C   UNL     1       5.202  32.802  63.613  1.00  0.00     0.095 A 
HETATM   17  C   UNL     1       5.174  33.490  64.831  1.00  0.00     0.039 A 
HETATM   18  C   UNL     1       6.366  33.838  65.470  1.00  0.00     0.003 A 
HETATM   19  C   UNL     1       7.588  33.503  64.895  1.00  0.00     0.002 A 
HETATM   20  C   UNL     1       7.628  32.818  63.679  1.00  0.00     0.032 A 
BRANCH  16  21
HETATM   21  O   UNL     1       4.085  32.422  62.902  1.00  0.00    -0.354 OA
HETATM   22  C   UNL     1       3.228  33.466  62.453  1.00  0.00     0.210 C 
ENDBRANCH  16  21
ENDBRANCH  12  15
ENDBRANCH   8  11
ENDBRANCH   2   5
BRANCH   1  23
HETATM   23  C   UNL     1       5.121  27.670  54.138  1.00  0.00     0.240 C 
BRANCH  23  24
HETATM   24  N   UNL     1       6.191  26.815  53.669  1.00  0.00    -0.259 N 
HETATM   25  C   UNL     1       7.478  27.222  53.523  1.00  0.00     0.326 C 
HETATM   26  N   UNL     1       8.271  26.109  53.357  1.00  0.00    -0.324 N 
HETATM   27  O   UNL     1       7.898  28.365  53.547  1.00  0.00    -0.247 OA
HETATM   28  C   UNL     1       7.567  24.888  53.710  1.00  0.00     0.116 C 
HETATM   29  H   UNL     1       9.278  26.218  53.391  1.00  0.00     0.165 HD
HETATM   30  C   UNL     1       7.888  24.504  55.165  1.00  0.00     0.041 C 
HETATM   31  C   UNL     1       6.124  25.446  53.657  1.00  0.00     0.256 C 
HETATM   32  C   UNL     1       7.858  23.762  52.723  1.00  0.00     0.041 C 
HETATM   33  C   UNL     1       7.272  23.163  55.565  1.00  0.00     0.007 C 
HETATM   34  C   UNL     1       7.656  22.021  54.614  1.00  0.00    -0.015 C 
HETATM   35  C   UNL     1       7.306  22.403  53.165  1.00  0.00     0.007 C 
HETATM   36  O   UNL     1       5.099  24.785  53.732  1.00  0.00    -0.270 OA
BRANCH  34  37
HETATM   37  C   UNL     1       9.132  21.620  54.814  1.00  0.00     0.000 C 
HETATM   38  C   UNL     1       9.317  20.466  55.789  1.00  0.00     0.005 C 
ENDBRANCH  34  37
ENDBRANCH  23  24
ENDBRANCH   1  23
TORSDOF 7
ENDMDL
MODEL 2
REMARK VINA RESULT:     -10.3      2.007     11.868
REMARK  7 active torsions:
REMARK  status: ('A' for Active; 'I' for Inactive)
REMARK    1  A    between atoms: C_2  and  C_3 
REMARK    2  A    between atoms: N_10  and  C_11 
REMARK    3  A    between atoms: C_11  and  C_12 
REMARK       I    between atoms: C_12  and  N_13 
REMARK    4  A    between atoms: N_13  and  C_14 
REMARK    5  A    between atoms: C_17  and  C_18 
REMARK       I    between atoms: C_18  and  N_19 
REMARK    6  A    between atoms: N_19  and  C_20 
REMARK    7  A    between atoms: C_21  and  O_22 
ROOT
HETATM    1  C   UNL     1       7.774  30.589  59.235  1.00  0.00     0.240 C 
HETATM    2  N   UNL     1       6.852  30.139  58.312  1.00  0.00    -0.326 N 
HETATM    3  O   UNL     1       8.686  29.918  59.719  1.00  0.00    -0.271 OA
HETATM    4  H   UNL     1       6.138  30.795  58.021  1.00  0.00     0.169 HD
ENDROOT
BRANCH   2   5
HETATM    5  C   UNL     1       6.816  28.857  57.711  1.00  0.00     0.034 A 
HETATM    6  C   UNL     1       7.950  28.073  57.470  1.00  0.00     0.030 A 
HETATM    7  C   UNL     1       7.852  26.830  56.830  1.00  0.00     0.019 A 
HETATM    8  C   UNL     1       6.607  26.344  56.425  1.00  0.00     0.032 A 
HETATM    9  C   UNL     1       5.465  27.117  56.670  1.00  0.00     0.019 A 
HETATM   10  C   UNL     1       5.569  28.359  57.315  1.00  0.00     0.030 A 
BRANCH   8  11
HETATM   11  C   UNL     1       6.469  25.070  55.660  1.00  0.00     0.256 C 
HETATM   12  N   UNL     1       7.550  24.211  55.730  1.00  0.00    -0.321 N 
HETATM   13  H   UNL     1       8.267  24.385  56.425  1.00  0.00     0.169 HD
HETATM   14  O   UNL     1       5.422  24.874  55.052  1.00  0.00    -0.267 OA
BRANCH  12  15
HETATM   15  C   UNL     1       7.766  23.029  54.981  1.00  0.00     0.068 A 
HETATM   16  C   UNL     1       8.123  23.179  53.622  1.00  0.00     0.095 A 
HETATM   17  C   UNL     1       8.313  22.045  52.825  1.00  0.00     0.039 A 
HETATM   18  C   UNL     1       8.155  20.769  53.370  1.00  0.00     0.003 A 
HETATM   19  C   UNL     1       7.804  20.621  54.708  1.00  0.00     0.002 A 
HETATM   20  C   UNL     1       7.610  21.746  55.512  1.00  0.00     0.032 A 
BRANCH  16  21
HETATM   21  O   UNL     1       8.247  24.478  53.178  1.00  0.00    -0.354 OA
HETATM   22  C   UNL     1       7.466  24.842  52.045  1.00  0.00     0.210 C 
ENDBRANCH  16  21
ENDBRANCH  12  15
ENDBRANCH   8  11
ENDBRANCH   2   5
BRANCH   1  23
HETATM   23  C   UNL     1       7.590  32.020  59.738  1.00  0.00     0.240 C 
BRANCH  23  24
HETATM   24  N   UNL     1       7.248  32.251  61.125  1.00  0.00    -0.259 N 
HETATM   25  C   UNL     1       8.162  32.364  62.124  1.00  0.00     0.326 C 
HETATM   26  N   UNL     1       7.532  32.873  63.237  1.00  0.00    -0.324 N 
HETATM   27  O   UNL     1       9.347  32.089  62.073  1.00  0.00    -0.247 OA
HETATM   28  C   UNL     1       6.226  33.421  62.913  1.00  0.00     0.116 C 
HETATM   29  H   UNL     1       8.096  33.169  64.025  1.00  0.00     0.165 HD
HETATM   30  C   UNL     1       6.341  34.939  62.680  1.00  0.00     0.041 C 
HETATM   31  C   UNL     1       6.033  32.728  61.543  1.00  0.00     0.256 C 
HETATM   32  C   UNL     1       5.184  33.063  63.968  1.00  0.00     0.041 C 
HETATM   33  C   UNL     1       4.982  35.599  62.451  1.00  0.00     0.007 C 
HETATM   34  C   UNL     1       3.977  35.306  63.574  1.00  0.00    -0.015 C 
HETATM   35  C   UNL     1       3.848  33.786  63.780  1.00  0.00     0.007 C 
HETATM   36  O   UNL     1       5.005  32.727  60.881  1.00  0.00    -0.270 OA
BRANCH  34  37
HETATM   37  C   UNL     1       4.352  36.080  64.855  1.00  0.00     0.000 C 
HETATM   38  C   UNL     1       3.604  35.600  66.090  1.00  0.00     0.005 C 
ENDBRANCH  34  37
ENDBRANCH  23  24
ENDBRANCH   1  23
TORSDOF 7
ENDMDL
MODEL 3
REMARK VINA RESULT:     -10.1      1.015      1.770
REMARK  7 active torsions:
REMARK  status: ('A' for Active; 'I' for Inactive)
REMARK    1  A    between atoms: C_2  and  C_3 
REMARK    2  A    between atoms: N_10  and  C_11 
REMARK    3  A    between atoms: C_11  and  C_12 
REMARK       I    between atoms: C_12  and  N_13 
REMARK    4  A    between atoms: N_13  and  C_14 
REMARK    5  A    between atoms: C_17  and  C_18 
REMARK       I    between atoms: C_18  and  N_19 
REMARK    6  A    between atoms: N_19  and  C_20 
REMARK    7  A    between atoms: C_21  and  O_22 
ROOT
HETATM    1  C   UNL     1       4.754  28.155  55.473  1.00  0.00     0.240 C 
HETATM    2  N   UNL     1       4.903  29.522  55.584  1.00  0.00    -0.326 N 
HETATM    3  O   UNL     1       4.670  27.366  56.415  1.00  0.00    -0.271 OA
HETATM    4  H   UNL     1       4.986  30.046  54.721  1.00  0.00     0.169 HD
ENDROOT
BRANCH   2   5
HETATM    5  C   UNL     1       4.929  30.274  56.784  1.00  0.00     0.034 A 
HETATM    6  C   UNL     1       3.791  30.805  57.400  1.00  0.00     0.030 A 
HETATM    7  C   UNL     1       3.888  31.578  58.565  1.00  0.00     0.019 A 
HETATM    8  C   UNL     1       5.136  31.828  59.141  1.00  0.00     0.032 A 
HETATM    9  C   UNL     1       6.281  31.292  58.536  1.00  0.00     0.019 A 
HETATM   10  C   UNL     1       6.176  30.515  57.373  1.00  0.00     0.030 A 
BRANCH   8  11
HETATM   11  C   UNL     1       5.292  32.721  60.326  1.00  0.00     0.256 C 
HETATM   12  N   UNL     1       5.860  32.137  61.443  1.00  0.00    -0.321 N 
HETATM   13  H   UNL     1       6.306  31.232  61.347  1.00  0.00     0.169 HD
HETATM   14  O   UNL     1       4.930  33.888  60.220  1.00  0.00    -0.267 OA
BRANCH  12  15
HETATM   15  C   UNL     1       5.972  32.685  62.744  1.00  0.00     0.068 A 
HETATM   16  C   UNL     1       7.266  32.764  63.305  1.00  0.00     0.095 A 
HETATM   17  C   UNL     1       7.431  33.264  64.601  1.00  0.00     0.039 A 
HETATM   18  C   UNL     1       6.322  33.685  65.339  1.00  0.00     0.003 A 
HETATM   19  C   UNL     1       5.048  33.608  64.786  1.00  0.00     0.002 A 
HETATM   20  C   UNL     1       4.872  33.110  63.494  1.00  0.00     0.032 A 
BRANCH  16  21
HETATM   21  O   UNL     1       8.292  32.317  62.502  1.00  0.00    -0.354 OA
HETATM   22  C   UNL     1       8.584  30.925  62.555  1.00  0.00     0.210 C 
ENDBRANCH  16  21
ENDBRANCH  12  15
ENDBRANCH   8  11
ENDBRANCH   2   5
BRANCH   1  23
HETATM   23  C   UNL     1       4.764  27.583  54.056  1.00  0.00     0.240 C 
BRANCH  23  24
HETATM   24  N   UNL     1       5.908  26.822  53.601  1.00  0.00    -0.259 N 
HETATM   25  C   UNL     1       7.167  27.324  53.512  1.00  0.00     0.326 C 
HETATM   26  N   UNL     1       8.044  26.277  53.343  1.00  0.00    -0.324 N 
HETATM   27  O   UNL     1       7.501  28.493  53.582  1.00  0.00    -0.247 OA
HETATM   28  C   UNL     1       7.419  24.998  53.637  1.00  0.00     0.116 C 
HETATM   29  H   UNL     1       9.038  26.456  53.415  1.00  0.00     0.165 HD
HETATM   30  C   UNL     1       7.719  24.594  55.092  1.00  0.00     0.041 C 
HETATM   31  C   UNL     1       5.942  25.452  53.549  1.00  0.00     0.256 C 
HETATM   32  C   UNL     1       7.824  23.926  52.630  1.00  0.00     0.041 C 
HETATM   33  C   UNL     1       7.190  23.201  55.432  1.00  0.00     0.007 C 
HETATM   34  C   UNL     1       7.687  22.119  54.464  1.00  0.00    -0.015 C 
HETATM   35  C   UNL     1       7.358  22.518  53.015  1.00  0.00     0.007 C 
HETATM   36  O   UNL     1       4.965  24.717  53.569  1.00  0.00    -0.270 OA
BRANCH  34  37
HETATM   37  C   UNL     1       9.181  21.819  54.704  1.00  0.00     0.000 C 
HETATM   38  C   UNL     1       9.418  20.726  55.737  1.00  0.00     0.005 C 
ENDBRANCH  34  37
ENDBRANCH  23  24
ENDBRANCH   1  23
TORSDOF 7
ENDMDL
MODEL 4
REMARK VINA RESULT:     -10.0      2.059     11.528
REMARK  7 active torsions:
REMARK  status: ('A' for Active; 'I' for Inactive)
REMARK    1  A    between atoms: C_2  and  C_3 
REMARK    2  A    between atoms: N_10  and  C_11 
REMARK    3  A    between atoms: C_11  and  C_12 
REMARK       I    between atoms: C_12  and  N_13 
REMARK    4  A    between atoms: N_13  and  C_14 
REMARK    5  A    between atoms: C_17  and  C_18 
REMARK       I    between atoms: C_18  and  N_19 
REMARK    6  A    between atoms: N_19  and  C_20 
REMARK    7  A    between atoms: C_21  and  O_22 
ROOT
HETATM    1  C   UNL     1       8.691  30.656  58.484  1.00  0.00     0.240 C 
HETATM    2  N   UNL     1       7.536  30.039  58.048  1.00  0.00    -0.326 N 
HETATM    3  O   UNL     1       9.838  30.295  58.219  1.00  0.00    -0.271 OA
HETATM    4  H   UNL     1       6.659  30.431  58.367  1.00  0.00     0.169 HD
ENDROOT
BRANCH   2   5
HETATM    5  C   UNL     1       7.451  28.925  57.177  1.00  0.00     0.034 A 
HETATM    6  C   UNL     1       7.211  29.023  55.802  1.00  0.00     0.030 A 
HETATM    7  C   UNL     1       7.094  27.879  55.001  1.00  0.00     0.019 A 
HETATM    8  C   UNL     1       7.225  26.609  55.566  1.00  0.00     0.032 A 
HETATM    9  C   UNL     1       7.475  26.501  56.941  1.00  0.00     0.019 A 
HETATM   10  C   UNL     1       7.595  27.651  57.736  1.00  0.00     0.030 A 
BRANCH   8  11
HETATM   11  C   UNL     1       7.017  25.365  54.768  1.00  0.00     0.256 C 
HETATM   12  N   UNL     1       7.732  24.259  55.188  1.00  0.00    -0.321 N 
HETATM   13  H   UNL     1       8.187  24.287  56.093  1.00  0.00     0.169 HD
HETATM   14  O   UNL     1       6.230  25.410  53.828  1.00  0.00    -0.267 OA
BRANCH  12  15
HETATM   15  C   UNL     1       7.862  23.012  54.530  1.00  0.00     0.068 A 
HETATM   16  C   UNL     1       7.990  21.862  55.340  1.00  0.00     0.095 A 
HETATM   17  C   UNL     1       8.158  20.608  54.744  1.00  0.00     0.039 A 
HETATM   18  C   UNL     1       8.197  20.491  53.353  1.00  0.00     0.003 A 
HETATM   19  C   UNL     1       8.071  21.624  52.554  1.00  0.00     0.002 A 
HETATM   20  C   UNL     1       7.904  22.880  53.140  1.00  0.00     0.032 A 
BRANCH  16  21
HETATM   21  O   UNL     1       7.947  22.083  56.699  1.00  0.00    -0.354 OA
HETATM   22  C   UNL     1       8.468  21.051  57.531  1.00  0.00     0.210 C 
ENDBRANCH  16  21
ENDBRANCH  12  15
ENDBRANCH   8  11
ENDBRANCH   2   5
BRANCH   1  23
HETATM   23  C   UNL     1       8.512  31.843  59.430  1.00  0.00     0.240 C 
BRANCH  23  24
HETATM   24  N   UNL     1       7.630  31.721  60.571  1.00  0.00    -0.259 N 
HETATM   25  C   UNL     1       8.018  31.246  61.783  1.00  0.00     0.326 C 
HETATM   26  N   UNL     1       7.039  31.544  62.703  1.00  0.00    -0.324 N 
HETATM   27  O   UNL     1       9.055  30.666  62.050  1.00  0.00    -0.247 OA
HETATM   28  C   UNL     1       6.097  32.523  62.187  1.00  0.00     0.116 C 
HETATM   29  H   UNL     1       7.234  31.402  63.687  1.00  0.00     0.165 HD
HETATM   30  C   UNL     1       6.507  33.934  62.646  1.00  0.00     0.041 C 
HETATM   31  C   UNL     1       6.433  32.378  60.684  1.00  0.00     0.256 C 
HETATM   32  C   UNL     1       4.659  32.175  62.562  1.00  0.00     0.041 C 
HETATM   33  C   UNL     1       5.491  35.000  62.237  1.00  0.00     0.007 C 
HETATM   34  C   UNL     1       4.066  34.680  62.707  1.00  0.00    -0.015 C 
HETATM   35  C   UNL     1       3.653  33.279  62.220  1.00  0.00     0.007 C 
HETATM   36  O   UNL     1       5.811  32.884  59.760  1.00  0.00    -0.270 OA
BRANCH  34  37
HETATM   37  C   UNL     1       3.940  34.872  64.232  1.00  0.00     0.000 C 
HETATM   38  C   UNL     1       4.413  36.238  64.709  1.00  0.00     0.005 C 
ENDBRANCH  34  37
ENDBRANCH  23  24
ENDBRANCH   1  23
TORSDOF 7
ENDMDL
MODEL 5
REMARK VINA RESULT:      -9.8      1.591      2.497
REMARK  7 active torsions:
REMARK  status: ('A' for Active; 'I' for Inactive)
REMARK    1  A    between atoms: C_2  and  C_3 
REMARK    2  A    between atoms: N_10  and  C_11 
REMARK    3  A    between atoms: C_11  and  C_12 
REMARK       I    between atoms: C_12  and  N_13 
REMARK    4  A    between atoms: N_13  and  C_14 
REMARK    5  A    between atoms: C_17  and  C_18 
REMARK       I    between atoms: C_18  and  N_19 
REMARK    6  A    between atoms: N_19  and  C_20 
REMARK    7  A    between atoms: C_21  and  O_22 
ROOT
HETATM    1  C   UNL     1       4.406  30.207  55.421  1.00  0.00     0.240 C 
HETATM    2  N   UNL     1       5.688  30.609  55.737  1.00  0.00    -0.326 N 
HETATM    3  O   UNL     1       3.492  30.033  56.229  1.00  0.00    -0.271 OA
HETATM    4  H   UNL     1       6.346  30.685  54.971  1.00  0.00     0.169 HD
ENDROOT
BRANCH   2   5
HETATM    5  C   UNL     1       6.172  30.952  57.024  1.00  0.00     0.034 A 
HETATM    6  C   UNL     1       7.165  30.236  57.702  1.00  0.00     0.030 A 
HETATM    7  C   UNL     1       7.570  30.601  58.994  1.00  0.00     0.019 A 
HETATM    8  C   UNL     1       6.989  31.701  59.628  1.00  0.00     0.032 A 
HETATM    9  C   UNL     1       6.001  32.429  58.952  1.00  0.00     0.019 A 
HETATM   10  C   UNL     1       5.604  32.062  57.658  1.00  0.00     0.030 A 
BRANCH   8  11
HETATM   11  C   UNL     1       7.325  32.067  61.035  1.00  0.00     0.256 C 
HETATM   12  N   UNL     1       6.245  32.286  61.870  1.00  0.00    -0.321 N 
HETATM   13  H   UNL     1       5.323  32.005  61.557  1.00  0.00     0.169 HD
HETATM   14  O   UNL     1       8.510  32.129  61.347  1.00  0.00    -0.267 OA
BRANCH  12  15
HETATM   15  C   UNL     1       6.260  32.805  63.187  1.00  0.00     0.068 A 
HETATM   16  C   UNL     1       5.012  33.076  63.791  1.00  0.00     0.095 A 
HETATM   17  C   UNL     1       4.969  33.624  65.078  1.00  0.00     0.039 A 
HETATM   18  C   UNL     1       6.153  33.900  65.764  1.00  0.00     0.003 A 
HETATM   19  C   UNL     1       7.382  33.632  65.170  1.00  0.00     0.002 A 
HETATM   20  C   UNL     1       7.437  33.087  63.886  1.00  0.00     0.032 A 
BRANCH  16  21
HETATM   21  O   UNL     1       3.904  32.776  63.030  1.00  0.00    -0.354 OA
HETATM   22  C   UNL     1       2.974  33.832  62.812  1.00  0.00     0.210 C 
ENDBRANCH  16  21
ENDBRANCH  12  15
ENDBRANCH   8  11
ENDBRANCH   2   5
BRANCH   1  23
HETATM   23  C   UNL     1       4.136  29.888  53.952  1.00  0.00     0.240 C 
BRANCH  23  24
HETATM   24  N   UNL     1       4.185  28.514  53.498  1.00  0.00    -0.259 N 
HETATM   25  C   UNL     1       3.792  28.109  52.263  1.00  0.00     0.326 C 
HETATM   26  N   UNL     1       4.246  26.826  52.059  1.00  0.00    -0.324 N 
HETATM   27  O   UNL     1       3.160  28.750  51.442  1.00  0.00    -0.247 OA
HETATM   28  C   UNL     1       5.245  26.446  53.044  1.00  0.00     0.116 C 
HETATM   29  H   UNL     1       4.178  26.425  51.131  1.00  0.00     0.165 HD
HETATM   30  C   UNL     1       6.655  26.691  52.479  1.00  0.00     0.041 C 
HETATM   31  C   UNL     1       4.940  27.539  54.096  1.00  0.00     0.256 C 
HETATM   32  C   UNL     1       5.044  25.013  53.529  1.00  0.00     0.041 C 
HETATM   33  C   UNL     1       7.755  26.201  53.420  1.00  0.00     0.007 C 
HETATM   34  C   UNL     1       7.589  24.729  53.819  1.00  0.00    -0.015 C 
HETATM   35  C   UNL     1       6.187  24.498  54.409  1.00  0.00     0.007 C 
HETATM   36  O   UNL     1       5.407  27.596  55.224  1.00  0.00    -0.270 OA
BRANCH  34  37
HETATM   37  C   UNL     1       7.927  23.802  52.633  1.00  0.00     0.000 C 
HETATM   38  C   UNL     1       7.857  22.323  52.984  1.00  0.00     0.005 C 
ENDBRANCH  34  37
ENDBRANCH  23  24
ENDBRANCH   1  23
TORSDOF 7
ENDMDL
MODEL 6
REMARK VINA RESULT:      -9.7      2.110     11.615
REMARK  7 active torsions:
REMARK  status: ('A' for Active; 'I' for Inactive)
REMARK    1  A    between atoms: C_2  and  C_3 
REMARK    2  A    between atoms: N_10  and  C_11 
REMARK    3  A    between atoms: C_11  and  C_12 
REMARK       I    between atoms: C_12  and  N_13 
REMARK    4  A    between atoms: N_13  and  C_14 
REMARK    5  A    between atoms: C_17  and  C_18 
REMARK       I    between atoms: C_18  and  N_19 
REMARK    6  A    between atoms: N_19  and  C_20 
REMARK    7  A    between atoms: C_21  and  O_22 
ROOT
HETATM    1  C   UNL     1       6.084  31.518  58.850  1.00  0.00     0.240 C 
HETATM    2  N   UNL     1       5.612  30.516  58.026  1.00  0.00    -0.326 N 
HETATM    3  O   UNL     1       7.127  31.473  59.504  1.00  0.00    -0.271 OA
HETATM    4  H   UNL     1       4.724  30.681  57.568  1.00  0.00     0.169 HD
ENDROOT
BRANCH   2   5
HETATM    5  C   UNL     1       6.256  29.288  57.735  1.00  0.00     0.034 A 
HETATM    6  C   UNL     1       7.643  29.104  57.773  1.00  0.00     0.030 A 
HETATM    7  C   UNL     1       8.222  27.874  57.432  1.00  0.00     0.019 A 
HETATM    8  C   UNL     1       7.416  26.799  57.051  1.00  0.00     0.032 A 
HETATM    9  C   UNL     1       6.026  26.972  57.019  1.00  0.00     0.019 A 
HETATM   10  C   UNL     1       5.452  28.204  57.366  1.00  0.00     0.030 A 
BRANCH   8  11
HETATM   11  C   UNL     1       7.996  25.503  56.591  1.00  0.00     0.256 C 
HETATM   12  N   UNL     1       7.442  24.976  55.439  1.00  0.00    -0.321 N 
HETATM   13  H   UNL     1       6.838  25.562  54.877  1.00  0.00     0.169 HD
HETATM   14  O   UNL     1       8.914  25.019  57.246  1.00  0.00    -0.267 OA
BRANCH  12  15
HETATM   15  C   UNL     1       7.671  23.697  54.876  1.00  0.00     0.068 A 
HETATM   16  C   UNL     1       8.005  23.643  53.504  1.00  0.00     0.095 A 
HETATM   17  C   UNL     1       8.206  22.404  52.887  1.00  0.00     0.039 A 
HETATM   18  C   UNL     1       8.080  21.224  53.623  1.00  0.00     0.003 A 
HETATM   19  C   UNL     1       7.752  21.277  54.974  1.00  0.00     0.002 A 
HETATM   20  C   UNL     1       7.548  22.508  55.599  1.00  0.00     0.032 A 
BRANCH  16  21
HETATM   21  O   UNL     1       8.097  24.860  52.865  1.00  0.00    -0.354 OA
HETATM   22  C   UNL     1       7.164  25.104  51.818  1.00  0.00     0.210 C 
ENDBRANCH  16  21
ENDBRANCH  12  15
ENDBRANCH   8  11
ENDBRANCH   2   5
BRANCH   1  23
HETATM   23  C   UNL     1       5.193  32.749  59.003  1.00  0.00     0.240 C 
BRANCH  23  24
HETATM   24  N   UNL     1       4.386  32.903  60.195  1.00  0.00    -0.259 N 
HETATM   25  C   UNL     1       3.479  31.985  60.621  1.00  0.00     0.326 C 
HETATM   26  N   UNL     1       3.120  32.294  61.913  1.00  0.00    -0.324 N 
HETATM   27  O   UNL     1       3.049  31.030  60.000  1.00  0.00    -0.247 OA
HETATM   28  C   UNL     1       4.029  33.259  62.509  1.00  0.00     0.116 C 
HETATM   29  H   UNL     1       2.572  31.624  62.441  1.00  0.00     0.165 HD
HETATM   30  C   UNL     1       5.107  32.524  63.325  1.00  0.00     0.041 C 
HETATM   31  C   UNL     1       4.674  33.784  61.204  1.00  0.00     0.256 C 
HETATM   32  C   UNL     1       3.282  34.309  63.326  1.00  0.00     0.041 C 
HETATM   33  C   UNL     1       6.028  33.486  64.076  1.00  0.00     0.007 C 
HETATM   34  C   UNL     1       5.262  34.472  64.969  1.00  0.00    -0.015 C 
HETATM   35  C   UNL     1       4.205  35.222  64.138  1.00  0.00     0.007 C 
HETATM   36  O   UNL     1       5.426  34.743  61.114  1.00  0.00    -0.270 OA
BRANCH  34  37
HETATM   37  C   UNL     1       4.688  33.753  66.206  1.00  0.00     0.000 C 
HETATM   38  C   UNL     1       5.030  34.443  67.519  1.00  0.00     0.005 C 
ENDBRANCH  34  37
ENDBRANCH  23  24
ENDBRANCH   1  23
TORSDOF 7
ENDMDL
MODEL 7
REMARK VINA RESULT:      -9.7      2.203     11.859
REMARK  7 active torsions:
REMARK  status: ('A' for Active; 'I' for Inactive)
REMARK    1  A    between atoms: C_2  and  C_3 
REMARK    2  A    between atoms: N_10  and  C_11 
REMARK    3  A    between atoms: C_11  and  C_12 
REMARK       I    between atoms: C_12  and  N_13 
REMARK    4  A    between atoms: N_13  and  C_14 
REMARK    5  A    between atoms: C_17  and  C_18 
REMARK       I    between atoms: C_18  and  N_19 
REMARK    6  A    between atoms: N_19  and  C_20 
REMARK    7  A    between atoms: C_21  and  O_22 
ROOT
HETATM    1  C   UNL     1       6.085  31.413  58.567  1.00  0.00     0.240 C 
HETATM    2  N   UNL     1       6.911  30.307  58.565  1.00  0.00    -0.326 N 
HETATM    3  O   UNL     1       5.099  31.570  57.846  1.00  0.00    -0.271 OA
HETATM    4  H   UNL     1       7.703  30.327  59.195  1.00  0.00     0.169 HD
ENDROOT
BRANCH   2   5
HETATM    5  C   UNL     1       6.749  29.134  57.788  1.00  0.00     0.034 A 
HETATM    6  C   UNL     1       5.556  28.776  57.150  1.00  0.00     0.030 A 
HETATM    7  C   UNL     1       5.448  27.578  56.431  1.00  0.00     0.019 A 
HETATM    8  C   UNL     1       6.542  26.717  56.331  1.00  0.00     0.032 A 
HETATM    9  C   UNL     1       7.744  27.071  56.959  1.00  0.00     0.019 A 
HETATM   10  C   UNL     1       7.847  28.274  57.674  1.00  0.00     0.030 A 
BRANCH   8  11
HETATM   11  C   UNL     1       6.442  25.390  55.654  1.00  0.00     0.256 C 
HETATM   12  N   UNL     1       7.623  24.679  55.555  1.00  0.00    -0.321 N 
HETATM   13  H   UNL     1       8.423  24.985  56.098  1.00  0.00     0.169 HD
HETATM   14  O   UNL     1       5.339  25.027  55.258  1.00  0.00    -0.267 OA
BRANCH  12  15
HETATM   15  C   UNL     1       7.859  23.490  54.825  1.00  0.00     0.068 A 
HETATM   16  C   UNL     1       8.247  22.345  55.556  1.00  0.00     0.095 A 
HETATM   17  C   UNL     1       8.528  21.152  54.882  1.00  0.00     0.039 A 
HETATM   18  C   UNL     1       8.424  21.091  53.490  1.00  0.00     0.003 A 
HETATM   19  C   UNL     1       8.041  22.218  52.769  1.00  0.00     0.002 A 
HETATM   20  C   UNL     1       7.760  23.413  53.433  1.00  0.00     0.032 A 
BRANCH  16  21
HETATM   21  O   UNL     1       8.328  22.510  56.922  1.00  0.00    -0.354 OA
HETATM   22  C   UNL     1       8.338  21.323  57.709  1.00  0.00     0.210 C 
ENDBRANCH  16  21
ENDBRANCH  12  15
ENDBRANCH   8  11
ENDBRANCH   2   5
BRANCH   1  23
HETATM   23  C   UNL     1       6.483  32.558  59.498  1.00  0.00     0.240 C 
BRANCH  23  24
HETATM   24  N   UNL     1       6.029  32.552  60.872  1.00  0.00    -0.259 N 
HETATM   25  C   UNL     1       6.666  31.901  61.880  1.00  0.00     0.326 C 
HETATM   26  N   UNL     1       6.153  32.343  63.078  1.00  0.00    -0.324 N 
HETATM   27  O   UNL     1       7.554  31.074  61.778  1.00  0.00    -0.247 OA
HETATM   28  C   UNL     1       5.368  33.554  62.913  1.00  0.00     0.116 C 
HETATM   29  H   UNL     1       6.622  32.079  63.937  1.00  0.00     0.165 HD
HETATM   30  C   UNL     1       6.243  34.787  63.200  1.00  0.00     0.041 C 
HETATM   31  C   UNL     1       5.139  33.459  61.386  1.00  0.00     0.256 C 
HETATM   32  C   UNL     1       4.097  33.523  63.757  1.00  0.00     0.041 C 
HETATM   33  C   UNL     1       5.448  36.091  63.160  1.00  0.00     0.007 C 
HETATM   34  C   UNL     1       4.226  36.076  64.090  1.00  0.00    -0.015 C 
HETATM   35  C   UNL     1       3.342  34.855  63.777  1.00  0.00     0.007 C 
HETATM   36  O   UNL     1       4.392  34.170  60.729  1.00  0.00    -0.270 OA
BRANCH  34  37
HETATM   37  C   UNL     1       4.666  36.166  65.566  1.00  0.00     0.000 C 
HETATM   38  C   UNL     1       3.570  35.773  66.547  1.00  0.00     0.005 C 
ENDBRANCH  34  37
ENDBRANCH  23  24
ENDBRANCH   1  23
TORSDOF 7
ENDMDL
MODEL 8
REMARK VINA RESULT:      -9.6      1.820      2.848
REMARK  7 active torsions:
REMARK  status: ('A' for Active; 'I' for Inactive)
REMARK    1  A    between atoms: C_2  and  C_3 
REMARK    2  A    between atoms: N_10  and  C_11 
REMARK    3  A    between atoms: C_11  and  C_12 
REMARK       I    between atoms: C_12  and  N_13 
REMARK    4  A    between atoms: N_13  and  C_14 
REMARK    5  A    between atoms: C_17  and  C_18 
REMARK       I    between atoms: C_18  and  N_19 
REMARK    6  A    between atoms: N_19  and  C_20 
REMARK    7  A    between atoms: C_21  and  O_22 
ROOT
HETATM    1  C   UNL     1       6.855  30.053  57.179  1.00  0.00     0.240 C 
HETATM    2  N   UNL     1       5.893  30.931  57.635  1.00  0.00    -0.326 N 
HETATM    3  O   UNL     1       7.885  29.745  57.781  1.00  0.00    -0.271 OA
HETATM    4  H   UNL     1       5.109  31.110  57.021  1.00  0.00     0.169 HD
ENDROOT
BRANCH   2   5
HETATM    5  C   UNL     1       5.878  31.590  58.889  1.00  0.00     0.034 A 
HETATM    6  C   UNL     1       4.718  32.068  59.508  1.00  0.00     0.030 A 
HETATM    7  C   UNL     1       4.776  32.752  60.731  1.00  0.00     0.019 A 
HETATM    8  C   UNL     1       6.004  32.962  61.361  1.00  0.00     0.032 A 
HETATM    9  C   UNL     1       7.170  32.478  60.754  1.00  0.00     0.019 A 
HETATM   10  C   UNL     1       7.105  31.790  59.532  1.00  0.00     0.030 A 
BRANCH   8  11
HETATM   11  C   UNL     1       6.119  33.764  62.615  1.00  0.00     0.256 C 
HETATM   12  N   UNL     1       5.972  33.055  63.793  1.00  0.00    -0.321 N 
HETATM   13  H   UNL     1       5.992  32.043  63.758  1.00  0.00     0.169 HD
HETATM   14  O   UNL     1       6.349  34.964  62.511  1.00  0.00    -0.267 OA
BRANCH  12  15
HETATM   15  C   UNL     1       5.864  33.573  65.106  1.00  0.00     0.068 A 
HETATM   16  C   UNL     1       4.566  33.869  65.582  1.00  0.00     0.095 A 
HETATM   17  C   UNL     1       4.404  34.416  66.859  1.00  0.00     0.039 A 
HETATM   18  C   UNL     1       5.517  34.667  67.663  1.00  0.00     0.003 A 
HETATM   19  C   UNL     1       6.795  34.375  67.195  1.00  0.00     0.002 A 
HETATM   20  C   UNL     1       6.968  33.830  65.922  1.00  0.00     0.032 A 
BRANCH  16  21
HETATM   21  O   UNL     1       3.535  33.592  64.711  1.00  0.00    -0.354 OA
HETATM   22  C   UNL     1       2.944  34.705  64.048  1.00  0.00     0.210 C 
ENDBRANCH  16  21
ENDBRANCH  12  15
ENDBRANCH   8  11
ENDBRANCH   2   5
BRANCH   1  23
HETATM   23  C   UNL     1       6.642  29.477  55.780  1.00  0.00     0.240 C 
BRANCH  23  24
HETATM   24  N   UNL     1       6.182  28.113  55.631  1.00  0.00    -0.259 N 
HETATM   25  C   UNL     1       4.944  27.774  55.185  1.00  0.00     0.326 C 
HETATM   26  N   UNL     1       4.942  26.432  54.880  1.00  0.00    -0.324 N 
HETATM   27  O   UNL     1       3.982  28.509  55.048  1.00  0.00    -0.247 OA
HETATM   28  C   UNL     1       6.290  25.893  54.812  1.00  0.00     0.116 C 
HETATM   29  H   UNL     1       4.147  26.044  54.386  1.00  0.00     0.165 HD
HETATM   30  C   UNL     1       6.780  25.896  53.353  1.00  0.00     0.041 C 
HETATM   31  C   UNL     1       7.016  27.027  55.575  1.00  0.00     0.256 C 
HETATM   32  C   UNL     1       6.383  24.517  55.465  1.00  0.00     0.041 C 
HETATM   33  C   UNL     1       8.147  25.232  53.194  1.00  0.00     0.007 C 
HETATM   34  C   UNL     1       8.192  23.810  53.770  1.00  0.00    -0.015 C 
HETATM   35  C   UNL     1       7.728  23.821  55.238  1.00  0.00     0.007 C 
HETATM   36  O   UNL     1       8.182  27.009  55.943  1.00  0.00    -0.270 OA
BRANCH  34  37
HETATM   37  C   UNL     1       7.402  22.835  52.874  1.00  0.00     0.000 C 
HETATM   38  C   UNL     1       7.726  21.372  53.141  1.00  0.00     0.005 C 
ENDBRANCH  34  37
ENDBRANCH  23  24
ENDBRANCH   1  23
TORSDOF 7
ENDMDL
MODEL 9
REMARK VINA RESULT:      -9.5      1.469      2.190
REMARK  7 active torsions:
REMARK  status: ('A' for Active; 'I' for Inactive)
REMARK    1  A    between atoms: C_2  and  C_3 
REMARK    2  A    between atoms: N_10  and  C_11 
REMARK    3  A    between atoms: C_11  and  C_12 
REMARK       I    between atoms: C_12  and  N_13 
REMARK    4  A    between atoms: N_13  and  C_14 
REMARK    5  A    between atoms: C_17  and  C_18 
REMARK       I    between atoms: C_18  and  N_19 
REMARK    6  A    between atoms: N_19  and  C_20 
REMARK    7  A    between atoms: C_21  and  O_22 
ROOT
HETATM    1  C   UNL     1       7.022  28.578  54.911  1.00  0.00     0.240 C 
HETATM    2  N   UNL     1       7.995  28.562  55.889  1.00  0.00    -0.326 N 
HETATM    3  O   UNL     1       6.056  29.342  54.875  1.00  0.00    -0.271 OA
HETATM    4  H   UNL     1       8.718  27.859  55.804  1.00  0.00     0.169 HD
ENDROOT
BRANCH   2   5
HETATM    5  C   UNL     1       8.100  29.448  56.990  1.00  0.00     0.034 A 
HETATM    6  C   UNL     1       9.311  29.818  57.584  1.00  0.00     0.030 A 
HETATM    7  C   UNL     1       9.344  30.665  58.700  1.00  0.00     0.019 A 
HETATM    8  C   UNL     1       8.157  31.165  59.239  1.00  0.00     0.032 A 
HETATM    9  C   UNL     1       6.939  30.807  58.645  1.00  0.00     0.019 A 
HETATM   10  C   UNL     1       6.913  29.963  57.525  1.00  0.00     0.030 A 
BRANCH   8  11
HETATM   11  C   UNL     1       8.141  31.994  60.480  1.00  0.00     0.256 C 
HETATM   12  N   UNL     1       7.287  31.561  61.477  1.00  0.00    -0.321 N 
HETATM   13  H   UNL     1       6.881  30.635  61.403  1.00  0.00     0.169 HD
HETATM   14  O   UNL     1       8.885  32.968  60.531  1.00  0.00    -0.267 OA
BRANCH  12  15
HETATM   15  C   UNL     1       6.943  32.234  62.674  1.00  0.00     0.068 A 
HETATM   16  C   UNL     1       5.573  32.490  62.903  1.00  0.00     0.095 A 
HETATM   17  C   UNL     1       5.179  33.183  64.052  1.00  0.00     0.039 A 
HETATM   18  C   UNL     1       6.135  33.619  64.972  1.00  0.00     0.003 A 
HETATM   19  C   UNL     1       7.485  33.366  64.748  1.00  0.00     0.002 A 
HETATM   20  C   UNL     1       7.888  32.676  63.603  1.00  0.00     0.032 A 
BRANCH  16  21
HETATM   21  O   UNL     1       4.710  32.027  61.934  1.00  0.00    -0.354 OA
HETATM   22  C   UNL     1       4.324  32.956  60.926  1.00  0.00     0.210 C 
ENDBRANCH  16  21
ENDBRANCH  12  15
ENDBRANCH   8  11
ENDBRANCH   2   5
BRANCH   1  23
HETATM   23  C   UNL     1       7.130  27.506  53.827  1.00  0.00     0.240 C 
BRANCH  23  24
HETATM   24  N   UNL     1       6.679  26.159  54.107  1.00  0.00    -0.259 N 
HETATM   25  C   UNL     1       5.620  25.570  53.493  1.00  0.00     0.326 C 
HETATM   26  N   UNL     1       5.653  24.221  53.763  1.00  0.00    -0.324 N 
HETATM   27  O   UNL     1       4.775  26.110  52.801  1.00  0.00    -0.247 OA
HETATM   28  C   UNL     1       6.935  23.814  54.312  1.00  0.00     0.116 C 
HETATM   29  H   UNL     1       5.028  23.606  53.255  1.00  0.00     0.165 HD
HETATM   30  C   UNL     1       7.841  23.285  53.185  1.00  0.00     0.041 C 
HETATM   31  C   UNL     1       7.445  25.212  54.735  1.00  0.00     0.256 C 
HETATM   32  C   UNL     1       6.770  22.816  55.455  1.00  0.00     0.041 C 
HETATM   33  C   UNL     1       9.164  22.728  53.711  1.00  0.00     0.007 C 
HETATM   34  C   UNL     1       8.974  21.655  54.792  1.00  0.00    -0.015 C 
HETATM   35  C   UNL     1       8.091  22.202  55.928  1.00  0.00     0.007 C 
HETATM   36  O   UNL     1       8.445  25.437  55.402  1.00  0.00    -0.270 OA
BRANCH  34  37
HETATM   37  C   UNL     1       8.450  20.344  54.170  1.00  0.00     0.000 C 
HETATM   38  C   UNL     1       8.577  20.302  52.654  1.00  0.00     0.005 C 
ENDBRANCH  34  37
ENDBRANCH  23  24
ENDBRANCH   1  23
TORSDOF 7
ENDMDL
MODEL 10
REMARK VINA RESULT:      -9.4      2.341     12.025
REMARK  7 active torsions:
REMARK  status: ('A' for Active; 'I' for Inactive)
REMARK    1  A    between atoms: C_2  and  C_3 
REMARK    2  A    between atoms: N_10  and  C_11 
REMARK    3  A    between atoms: C_11  and  C_12 
REMARK       I    between atoms: C_12  and  N_13 
REMARK    4  A    between atoms: N_13  and  C_14 
REMARK    5  A    between atoms: C_17  and  C_18 
REMARK       I    between atoms: C_18  and  N_19 
REMARK    6  A    between atoms: N_19  and  C_20 
REMARK    7  A    between atoms: C_21  and  O_22 
ROOT
HETATM    1  C   UNL     1       5.716  33.194  61.056  1.00  0.00     0.240 C 
HETATM    2  N   UNL     1       5.929  32.905  59.723  1.00  0.00    -0.326 N 
HETATM    3  O   UNL     1       5.995  32.455  62.001  1.00  0.00    -0.271 OA
HETATM    4  H   UNL     1       5.625  33.598  59.050  1.00  0.00     0.169 HD
ENDROOT
BRANCH   2   5
HETATM    5  C   UNL     1       6.553  31.746  59.200  1.00  0.00     0.034 A 
HETATM    6  C   UNL     1       7.847  31.333  59.538  1.00  0.00     0.030 A 
HETATM    7  C   UNL     1       8.424  30.198  58.951  1.00  0.00     0.019 A 
HETATM    8  C   UNL     1       7.708  29.450  58.015  1.00  0.00     0.032 A 
HETATM    9  C   UNL     1       6.409  29.850  57.677  1.00  0.00     0.019 A 
HETATM   10  C   UNL     1       5.835  30.984  58.272  1.00  0.00     0.030 A 
BRANCH   8  11
HETATM   11  C   UNL     1       8.319  28.291  57.299  1.00  0.00     0.256 C 
HETATM   12  N   UNL     1       7.479  27.217  57.076  1.00  0.00    -0.321 N 
HETATM   13  H   UNL     1       6.483  27.338  57.221  1.00  0.00     0.169 HD
HETATM   14  O   UNL     1       9.492  28.382  56.953  1.00  0.00    -0.267 OA
BRANCH  12  15
HETATM   15  C   UNL     1       7.824  25.936  56.581  1.00  0.00     0.068 A 
HETATM   16  C   UNL     1       7.383  25.602  55.281  1.00  0.00     0.095 A 
HETATM   17  C   UNL     1       7.665  24.336  54.757  1.00  0.00     0.039 A 
HETATM   18  C   UNL     1       8.381  23.406  55.513  1.00  0.00     0.003 A 
HETATM   19  C   UNL     1       8.816  23.734  56.793  1.00  0.00     0.002 A 
HETATM   20  C   UNL     1       8.538  24.994  57.327  1.00  0.00     0.032 A 
BRANCH  16  21
HETATM   21  O   UNL     1       6.679  26.584  54.620  1.00  0.00    -0.354 OA
HETATM   22  C   UNL     1       7.391  27.328  53.636  1.00  0.00     0.210 C 
ENDBRANCH  16  21
ENDBRANCH  12  15
ENDBRANCH   8  11
ENDBRANCH   2   5
BRANCH   1  23
HETATM   23  C   UNL     1       5.013  34.516  61.361  1.00  0.00     0.240 C 
BRANCH  23  24
HETATM   24  N   UNL     1       4.325  34.684  62.623  1.00  0.00    -0.259 N 
HETATM   25  C   UNL     1       3.192  34.016  62.965  1.00  0.00     0.326 C 
HETATM   26  N   UNL     1       2.980  34.178  64.315  1.00  0.00    -0.324 N 
HETATM   27  O   UNL     1       2.472  33.361  62.232  1.00  0.00    -0.247 OA
HETATM   28  C   UNL     1       4.157  34.703  64.985  1.00  0.00     0.116 C 
HETATM   29  H   UNL     1       2.267  33.618  64.768  1.00  0.00     0.165 HD
HETATM   30  C   UNL     1       4.979  33.546  65.579  1.00  0.00     0.041 C 
HETATM   31  C   UNL     1       4.897  35.241  63.737  1.00  0.00     0.256 C 
HETATM   32  C   UNL     1       3.792  35.762  66.022  1.00  0.00     0.041 C 
HETATM   33  C   UNL     1       6.171  34.037  66.402  1.00  0.00     0.007 C 
HETATM   34  C   UNL     1       5.769  35.027  67.503  1.00  0.00    -0.015 C 
HETATM   35  C   UNL     1       4.972  36.196  66.896  1.00  0.00     0.007 C 
HETATM   36  O   UNL     1       5.905  35.932  63.746  1.00  0.00    -0.270 OA
BRANCH  34  37
HETATM   37  C   UNL     1       5.035  34.299  68.648  1.00  0.00     0.000 C 
HETATM   38  C   UNL     1       5.970  33.785  69.734  1.00  0.00     0.005 C 
ENDBRANCH  34  37
ENDBRANCH  23  24
ENDBRANCH   1  23
TORSDOF 7
ENDMDL
