MODEL 1
REMARK VINA RESULT:     -10.8      0.000      0.000
REMARK  7 active torsions:
REMARK  status: ('A' for Active; 'I' for Inactive)
REMARK       I    between atoms: C_2  and  N_3 
REMARK    1  A    between atoms: N_3  and  C_4 
REMARK    2  A    between atoms: C_7  and  N_8 
REMARK       I    between atoms: N_8  and  C_9 
REMARK    3  A    between atoms: C_9  and  C_10 
REMARK    4  A    between atoms: C_10  and  S_11 
REMARK    5  A    between atoms: S_11  and  C_12 
REMARK    6  A    between atoms: N_13  and  N_14 
REMARK    7  A    between atoms: C_20  and  C_21 
ROOT
HETATM    1  C   UNL     1       7.696  30.607  58.377  1.00  0.00     0.206 A 
HETATM    2  N   UNL     1       8.068  29.495  57.662  1.00  0.00    -0.234 N 
HETATM    3  C   UNL     1       6.886  28.965  57.187  1.00  0.00     0.197 A 
HETATM    4  C   UNL     1       6.725  27.815  56.364  1.00  0.00     0.101 A 
HETATM    5  N   UNL     1       5.578  27.591  55.661  1.00  0.00    -0.274 N 
HETATM    6  H   UNL     1       4.748  28.174  55.634  1.00  0.00     0.189 HD
HETATM    7  N   UNL     1       5.600  26.467  54.925  1.00  0.00    -0.174 NA
HETATM    8  C   UNL     1       6.790  25.906  55.202  1.00  0.00     0.089 A 
HETATM    9  C   UNL     1       7.533  26.737  56.088  1.00  0.00     0.069 A 
HETATM   10  N   UNL     1       5.879  29.719  57.595  1.00  0.00    -0.125 NA
HETATM   11  N   UNL     1       6.388  30.735  58.371  1.00  0.00    -0.121 NA
ENDROOT
BRANCH   1  12
HETATM   12  S   UNL     1       8.834  31.692  59.100  1.00  0.00    -0.080 SA
BRANCH  12  13
HETATM   13  C   UNL     1       9.538  30.638  60.403  1.00  0.00     0.185 C 
BRANCH  13  14
HETATM   14  C   UNL     1       8.778  30.822  61.712  1.00  0.00     0.231 C 
HETATM   15  N   UNL     1       8.001  31.968  61.727  1.00  0.00    -0.327 N 
HETATM   16  H   UNL     1       8.132  32.609  60.946  1.00  0.00     0.169 HD
HETATM   17  O   UNL     1       8.900  30.015  62.630  1.00  0.00    -0.272 OA
BRANCH  15  18
HETATM   18  C   UNL     1       7.210  32.465  62.781  1.00  0.00     0.034 A 
HETATM   19  C   UNL     1       7.719  33.055  63.935  1.00  0.00     0.032 A 
HETATM   20  C   UNL     1       6.856  33.563  64.919  1.00  0.00     0.032 A 
HETATM   21  C   UNL     1       5.474  33.486  64.764  1.00  0.00     0.034 A 
HETATM   22  C   UNL     1       4.967  32.846  63.628  1.00  0.00     0.032 A 
HETATM   23  C   UNL     1       5.825  32.354  62.640  1.00  0.00     0.032 A 
BRANCH  21  24
HETATM   24  N   UNL     1       4.530  33.966  65.687  1.00  0.00    -0.328 N 
HETATM   25  C   UNL     1       3.900  35.166  65.835  1.00  0.00     0.218 C 
HETATM   26  C   UNL     1       4.000  36.238  64.789  1.00  0.00     0.117 C 
HETATM   27  O   UNL     1       3.198  35.336  66.836  1.00  0.00    -0.274 OA
HETATM   28  H   UNL     1       4.215  33.309  66.392  1.00  0.00     0.169 HD
ENDBRANCH  21  24
ENDBRANCH  15  18
ENDBRANCH  13  14
ENDBRANCH  12  13
ENDBRANCH   1  12
BRANCH   2  29
HETATM   29  N   UNL     1       9.410  29.040  57.392  1.00  0.00    -0.239 NA
HETATM   30  H   UNL     1      10.074  29.521  58.002  1.00  0.00     0.143 HD
HETATM   31  H   UNL     1       9.684  29.300  56.445  1.00  0.00     0.143 HD
ENDBRANCH   2  29
BRANCH   8  32
HETATM   32  C   UNL     1       7.180  24.613  54.632  1.00  0.00    -0.006 A 
HETATM   33  C   UNL     1       7.475  24.499  53.264  1.00  0.00     0.015 A 
HETATM   34  C   UNL     1       7.837  23.268  52.709  1.00  0.00     0.024 A 
HETATM   35  C   UNL     1       7.900  22.138  53.519  1.00  0.00     0.034 A 
HETATM   36 CL   UNL     1       8.337  20.619  52.840  1.00  0.00    -0.084 Cl
HETATM   37  C   UNL     1       7.608  22.230  54.878  1.00  0.00     0.024 A 
HETATM   38  C   UNL     1       7.250  23.463  55.432  1.00  0.00     0.015 A 
ENDBRANCH   8  32
TORSDOF 7
ENDMDL
MODEL 2
REMARK VINA RESULT:     -10.7      4.835     12.164
REMARK  7 active torsions:
REMARK  status: ('A' for Active; 'I' for Inactive)
REMARK       I    between atoms: C_2  and  N_3 
REMARK    1  A    between atoms: N_3  and  C_4 
REMARK    2  A    between atoms: C_7  and  N_8 
REMARK       I    between atoms: N_8  and  C_9 
REMARK    3  A    between atoms: C_9  and  C_10 
REMARK    4  A    between atoms: C_10  and  S_11 
REMARK    5  A    between atoms: S_11  and  C_12 
REMARK    6  A    between atoms: N_13  and  N_14 
REMARK    7  A    between atoms: C_20  and  C_21 
ROOT
HETATM    1  C   UNL     1       7.437  29.787  57.587  1.00  0.00     0.206 A 
HETATM    2  N   UNL     1       6.892  30.531  58.604  1.00  0.00    -0.234 N 
HETATM    3  C   UNL     1       7.888  30.619  59.554  1.00  0.00     0.197 A 
HETATM    4  C   UNL     1       7.837  31.311  60.797  1.00  0.00     0.101 A 
HETATM    5  N   UNL     1       8.969  31.640  61.483  1.00  0.00    -0.274 N 
HETATM    6  H   UNL     1       9.929  31.449  61.215  1.00  0.00     0.189 HD
HETATM    7  N   UNL     1       8.740  32.302  62.629  1.00  0.00    -0.174 NA
HETATM    8  C   UNL     1       7.401  32.360  62.723  1.00  0.00     0.089 A 
HETATM    9  C   UNL     1       6.799  31.764  61.578  1.00  0.00     0.069 A 
HETATM   10  N   UNL     1       8.956  29.969  59.124  1.00  0.00    -0.125 NA
HETATM   11  N   UNL     1       8.659  29.418  57.898  1.00  0.00    -0.121 NA
ENDROOT
BRANCH   1  12
HETATM   12  S   UNL     1       6.614  29.473  56.098  1.00  0.00    -0.080 SA
BRANCH  12  13
HETATM   13  C   UNL     1       5.210  28.476  56.682  1.00  0.00     0.185 C 
BRANCH  13  14
HETATM   14  C   UNL     1       5.515  26.988  56.549  1.00  0.00     0.231 C 
HETATM   15  N   UNL     1       6.610  26.733  55.741  1.00  0.00    -0.327 N 
HETATM   16  H   UNL     1       6.987  27.530  55.232  1.00  0.00     0.169 HD
HETATM   17  O   UNL     1       4.811  26.149  57.105  1.00  0.00    -0.272 OA
BRANCH  15  18
HETATM   18  C   UNL     1       7.141  25.483  55.370  1.00  0.00     0.034 A 
HETATM   19  C   UNL     1       8.127  24.805  56.081  1.00  0.00     0.032 A 
HETATM   20  C   UNL     1       8.570  23.540  55.661  1.00  0.00     0.032 A 
HETATM   21  C   UNL     1       8.035  22.938  54.523  1.00  0.00     0.034 A 
HETATM   22  C   UNL     1       7.083  23.646  53.783  1.00  0.00     0.032 A 
HETATM   23  C   UNL     1       6.629  24.898  54.209  1.00  0.00     0.032 A 
BRANCH  21  24
HETATM   24  N   UNL     1       8.408  21.679  54.026  1.00  0.00    -0.328 N 
HETATM   25  C   UNL     1       8.464  20.437  54.584  1.00  0.00     0.218 C 
HETATM   26  C   UNL     1       7.888  20.162  55.943  1.00  0.00     0.117 C 
HETATM   27  O   UNL     1       8.960  19.521  53.920  1.00  0.00    -0.274 OA
HETATM   28  H   UNL     1       8.681  21.643  53.050  1.00  0.00     0.169 HD
ENDBRANCH  21  24
ENDBRANCH  15  18
ENDBRANCH  13  14
ENDBRANCH  12  13
ENDBRANCH   1  12
BRANCH   2  29
HETATM   29  N   UNL     1       5.594  31.160  58.627  1.00  0.00    -0.239 NA
HETATM   30  H   UNL     1       4.876  30.494  58.339  1.00  0.00     0.143 HD
HETATM   31  H   UNL     1       5.555  31.907  57.933  1.00  0.00     0.143 HD
ENDBRANCH   2  29
BRANCH   8  32
HETATM   32  C   UNL     1       6.738  32.964  63.883  1.00  0.00    -0.006 A 
HETATM   33  C   UNL     1       7.494  33.436  64.967  1.00  0.00     0.015 A 
HETATM   34  C   UNL     1       6.870  34.003  66.083  1.00  0.00     0.024 A 
HETATM   35  C   UNL     1       5.482  34.097  66.125  1.00  0.00     0.034 A 
HETATM   36 CL   UNL     1       4.709  34.786  67.499  1.00  0.00    -0.084 Cl
HETATM   37  C   UNL     1       4.714  33.631  65.060  1.00  0.00     0.024 A 
HETATM   38  C   UNL     1       5.340  33.068  63.943  1.00  0.00     0.015 A 
ENDBRANCH   8  32
TORSDOF 7
ENDMDL
MODEL 3
REMARK VINA RESULT:     -10.5      5.004     12.692
REMARK  7 active torsions:
REMARK  status: ('A' for Active; 'I' for Inactive)
REMARK       I    between atoms: C_2  and  N_3 
REMARK    1  A    between atoms: N_3  and  C_4 
REMARK    2  A    between atoms: C_7  and  N_8 
REMARK       I    between atoms: N_8  and  C_9 
REMARK    3  A    between atoms: C_9  and  C_10 
REMARK    4  A    between atoms: C_10  and  S_11 
REMARK    5  A    between atoms: S_11  and  C_12 
REMARK    6  A    between atoms: N_13  and  N_14 
REMARK    7  A    between atoms: C_20  and  C_21 
ROOT
HETATM    1  C   UNL     1       7.533  31.105  58.875  1.00  0.00     0.206 A 
HETATM    2  N   UNL     1       7.428  31.248  60.237  1.00  0.00    -0.234 N 
HETATM    3  C   UNL     1       6.525  32.275  60.419  1.00  0.00     0.197 A 
HETATM    4  C   UNL     1       6.049  32.798  61.654  1.00  0.00     0.101 A 
HETATM    5  N   UNL     1       4.910  33.544  61.727  1.00  0.00    -0.274 N 
HETATM    6  H   UNL     1       4.295  33.805  60.963  1.00  0.00     0.189 HD
HETATM    7  N   UNL     1       4.599  33.945  62.971  1.00  0.00    -0.174 NA
HETATM    8  C   UNL     1       5.606  33.488  63.734  1.00  0.00     0.089 A 
HETATM    9  C   UNL     1       6.528  32.745  62.943  1.00  0.00     0.069 A 
HETATM   10  N   UNL     1       6.120  32.710  59.237  1.00  0.00    -0.125 NA
HETATM   11  N   UNL     1       6.781  31.993  58.266  1.00  0.00    -0.121 NA
ENDROOT
BRANCH   1  12
HETATM   12  S   UNL     1       8.479  29.867  58.124  1.00  0.00    -0.080 SA
BRANCH  12  13
HETATM   13  C   UNL     1       7.195  28.947  57.224  1.00  0.00     0.185 C 
BRANCH  13  14
HETATM   14  C   UNL     1       7.643  27.513  56.965  1.00  0.00     0.231 C 
HETATM   15  N   UNL     1       7.077  26.970  55.824  1.00  0.00    -0.327 N 
HETATM   16  H   UNL     1       6.342  27.520  55.382  1.00  0.00     0.169 HD
HETATM   17  O   UNL     1       8.411  26.944  57.736  1.00  0.00    -0.272 OA
BRANCH  15  18
HETATM   18  C   UNL     1       7.235  25.667  55.314  1.00  0.00     0.034 A 
HETATM   19  C   UNL     1       6.943  24.505  56.023  1.00  0.00     0.032 A 
HETATM   20  C   UNL     1       7.091  23.245  55.422  1.00  0.00     0.032 A 
HETATM   21  C   UNL     1       7.534  23.129  54.106  1.00  0.00     0.034 A 
HETATM   22  C   UNL     1       7.876  24.296  53.415  1.00  0.00     0.032 A 
HETATM   23  C   UNL     1       7.715  25.552  54.007  1.00  0.00     0.032 A 
BRANCH  21  24
HETATM   24  N   UNL     1       7.710  21.918  53.417  1.00  0.00    -0.328 N 
HETATM   25  C   UNL     1       8.396  20.775  53.703  1.00  0.00     0.218 C 
HETATM   26  C   UNL     1       9.000  20.542  55.057  1.00  0.00     0.117 C 
HETATM   27  O   UNL     1       8.469  19.904  52.830  1.00  0.00    -0.274 OA
HETATM   28  H   UNL     1       7.228  21.831  52.530  1.00  0.00     0.169 HD
ENDBRANCH  21  24
ENDBRANCH  15  18
ENDBRANCH  13  14
ENDBRANCH  12  13
ENDBRANCH   1  12
BRANCH   2  29
HETATM   29  N   UNL     1       8.056  30.436  61.251  1.00  0.00    -0.239 NA
HETATM   30  H   UNL     1       7.749  30.733  62.179  1.00  0.00     0.143 HD
HETATM   31  H   UNL     1       9.065  30.588  61.245  1.00  0.00     0.143 HD
ENDBRANCH   2  29
BRANCH   8  32
HETATM   32  C   UNL     1       5.670  33.772  65.171  1.00  0.00    -0.006 A 
HETATM   33  C   UNL     1       4.491  33.923  65.919  1.00  0.00     0.015 A 
HETATM   34  C   UNL     1       4.542  34.204  67.287  1.00  0.00     0.024 A 
HETATM   35  C   UNL     1       5.774  34.345  67.918  1.00  0.00     0.034 A 
HETATM   36 CL   UNL     1       5.842  34.700  69.600  1.00  0.00    -0.084 Cl
HETATM   37  C   UNL     1       6.955  34.201  67.193  1.00  0.00     0.024 A 
HETATM   38  C   UNL     1       6.903  33.916  65.825  1.00  0.00     0.015 A 
ENDBRANCH   8  32
TORSDOF 7
ENDMDL
MODEL 4
REMARK VINA RESULT:     -10.3      2.046      2.350
REMARK  7 active torsions:
REMARK  status: ('A' for Active; 'I' for Inactive)
REMARK       I    between atoms: C_2  and  N_3 
REMARK    1  A    between atoms: N_3  and  C_4 
REMARK    2  A    between atoms: C_7  and  N_8 
REMARK       I    between atoms: N_8  and  C_9 
REMARK    3  A    between atoms: C_9  and  C_10 
REMARK    4  A    between atoms: C_10  and  S_11 
REMARK    5  A    between atoms: S_11  and  C_12 
REMARK    6  A    between atoms: N_13  and  N_14 
REMARK    7  A    between atoms: C_20  and  C_21 
ROOT
HETATM    1  C   UNL     1       6.526  30.444  57.535  1.00  0.00     0.206 A 
HETATM    2  N   UNL     1       7.069  29.211  57.271  1.00  0.00    -0.234 N 
HETATM    3  C   UNL     1       6.547  28.847  56.047  1.00  0.00     0.197 A 
HETATM    4  C   UNL     1       6.817  27.659  55.312  1.00  0.00     0.101 A 
HETATM    5  N   UNL     1       6.548  27.562  53.978  1.00  0.00    -0.274 N 
HETATM    6  H   UNL     1       6.149  28.276  53.377  1.00  0.00     0.189 HD
HETATM    7  N   UNL     1       6.878  26.377  53.439  1.00  0.00    -0.174 NA
HETATM    8  C   UNL     1       7.330  25.650  54.475  1.00  0.00     0.089 A 
HETATM    9  C   UNL     1       7.326  26.430  55.666  1.00  0.00     0.069 A 
HETATM   10  N   UNL     1       5.748  29.808  55.614  1.00  0.00    -0.125 NA
HETATM   11  N   UNL     1       5.711  30.799  56.568  1.00  0.00    -0.121 NA
ENDROOT
BRANCH   1  12
HETATM   12  S   UNL     1       6.948  31.385  58.925  1.00  0.00    -0.080 SA
BRANCH  12  13
HETATM   13  C   UNL     1       5.447  32.390  59.131  1.00  0.00     0.185 C 
BRANCH  13  14
HETATM   14  C   UNL     1       5.204  32.697  60.605  1.00  0.00     0.231 C 
HETATM   15  N   UNL     1       6.305  33.261  61.227  1.00  0.00    -0.327 N 
HETATM   16  H   UNL     1       7.168  33.275  60.685  1.00  0.00     0.169 HD
HETATM   17  O   UNL     1       4.129  32.427  61.135  1.00  0.00    -0.272 OA
BRANCH  15  18
HETATM   18  C   UNL     1       6.444  33.626  62.579  1.00  0.00     0.034 A 
HETATM   19  C   UNL     1       5.805  34.714  63.169  1.00  0.00     0.032 A 
HETATM   20  C   UNL     1       5.968  34.983  64.537  1.00  0.00     0.032 A 
HETATM   21  C   UNL     1       6.772  34.170  65.334  1.00  0.00     0.034 A 
HETATM   22  C   UNL     1       7.453  33.110  64.727  1.00  0.00     0.032 A 
HETATM   23  C   UNL     1       7.280  32.832  63.367  1.00  0.00     0.032 A 
BRANCH  21  24
HETATM   24  N   UNL     1       6.994  34.353  66.708  1.00  0.00    -0.328 N 
HETATM   25  C   UNL     1       6.162  34.415  67.786  1.00  0.00     0.218 C 
HETATM   26  C   UNL     1       4.705  34.073  67.671  1.00  0.00     0.117 C 
HETATM   27  O   UNL     1       6.647  34.714  68.882  1.00  0.00    -0.274 OA
HETATM   28  H   UNL     1       7.961  34.443  67.000  1.00  0.00     0.169 HD
ENDBRANCH  21  24
ENDBRANCH  15  18
ENDBRANCH  13  14
ENDBRANCH  12  13
ENDBRANCH   1  12
BRANCH   2  29
HETATM   29  N   UNL     1       8.043  28.498  58.061  1.00  0.00    -0.239 NA
HETATM   30  H   UNL     1       8.988  28.738  57.754  1.00  0.00     0.143 HD
HETATM   31  H   UNL     1       7.959  27.495  57.898  1.00  0.00     0.143 HD
ENDBRANCH   2  29
BRANCH   8  32
HETATM   32  C   UNL     1       7.742  24.252  54.310  1.00  0.00    -0.006 A 
HETATM   33  C   UNL     1       7.553  23.596  53.084  1.00  0.00     0.015 A 
HETATM   34  C   UNL     1       7.932  22.260  52.920  1.00  0.00     0.024 A 
HETATM   35  C   UNL     1       8.498  21.567  53.986  1.00  0.00     0.034 A 
HETATM   36 CL   UNL     1       8.958  19.921  53.793  1.00  0.00    -0.084 Cl
HETATM   37  C   UNL     1       8.692  22.201  55.212  1.00  0.00     0.024 A 
HETATM   38  C   UNL     1       8.316  23.538  55.373  1.00  0.00     0.015 A 
ENDBRANCH   8  32
TORSDOF 7
ENDMDL
MODEL 5
REMARK VINA RESULT:     -10.2      2.317      3.023
REMARK  7 active torsions:
REMARK  status: ('A' for Active; 'I' for Inactive)
REMARK       I    between atoms: C_2  and  N_3 
REMARK    1  A    between atoms: N_3  and  C_4 
REMARK    2  A    between atoms: C_7  and  N_8 
REMARK       I    between atoms: N_8  and  C_9 
REMARK    3  A    between atoms: C_9  and  C_10 
REMARK    4  A    between atoms: C_10  and  S_11 
REMARK    5  A    between atoms: S_11  and  C_12 
REMARK    6  A    between atoms: N_13  and  N_14 
REMARK    7  A    between atoms: C_20  and  C_21 
ROOT
HETATM    1  C   UNL     1       5.298  30.196  57.823  1.00  0.00     0.206 A 
HETATM    2  N   UNL     1       5.320  28.965  57.213  1.00  0.00    -0.234 N 
HETATM    3  C   UNL     1       6.607  28.501  57.394  1.00  0.00     0.197 A 
HETATM    4  C   UNL     1       7.142  27.253  56.969  1.00  0.00     0.101 A 
HETATM    5  N   UNL     1       8.289  26.744  57.504  1.00  0.00    -0.274 N 
HETATM    6  H   UNL     1       8.870  27.160  58.224  1.00  0.00     0.189 HD
HETATM    7  N   UNL     1       8.643  25.551  57.000  1.00  0.00    -0.174 NA
HETATM    8  C   UNL     1       7.720  25.295  56.058  1.00  0.00     0.089 A 
HETATM    9  C   UNL     1       6.747  26.334  56.024  1.00  0.00     0.069 A 
HETATM   10  N   UNL     1       7.301  29.402  58.070  1.00  0.00    -0.125 NA
HETATM   11  N   UNL     1       6.484  30.482  58.311  1.00  0.00    -0.121 NA
ENDROOT
BRANCH   1  12
HETATM   12  S   UNL     1       3.866  31.157  57.962  1.00  0.00    -0.080 SA
BRANCH  12  13
HETATM   13  C   UNL     1       4.568  32.749  58.490  1.00  0.00     0.185 C 
BRANCH  13  14
HETATM   14  C   UNL     1       4.549  32.867  60.010  1.00  0.00     0.231 C 
HETATM   15  N   UNL     1       5.651  33.539  60.512  1.00  0.00    -0.327 N 
HETATM   16  H   UNL     1       6.393  33.745  59.844  1.00  0.00     0.169 HD
HETATM   17  O   UNL     1       3.636  32.376  60.669  1.00  0.00    -0.272 OA
BRANCH  15  18
HETATM   18  C   UNL     1       5.975  33.788  61.859  1.00  0.00     0.034 A 
HETATM   19  C   UNL     1       5.465  34.846  62.606  1.00  0.00     0.032 A 
HETATM   20  C   UNL     1       5.810  34.997  63.959  1.00  0.00     0.032 A 
HETATM   21  C   UNL     1       6.669  34.095  64.582  1.00  0.00     0.034 A 
HETATM   22  C   UNL     1       7.219  33.063  63.814  1.00  0.00     0.032 A 
HETATM   23  C   UNL     1       6.865  32.903  62.471  1.00  0.00     0.032 A 
BRANCH  21  24
HETATM   24  N   UNL     1       7.070  34.158  65.926  1.00  0.00    -0.328 N 
HETATM   25  C   UNL     1       6.382  34.256  67.099  1.00  0.00     0.218 C 
HETATM   26  C   UNL     1       4.888  34.111  67.146  1.00  0.00     0.117 C 
HETATM   27  O   UNL     1       7.025  34.418  68.141  1.00  0.00    -0.274 OA
HETATM   28  H   UNL     1       8.067  34.104  66.102  1.00  0.00     0.169 HD
ENDBRANCH  21  24
ENDBRANCH  15  18
ENDBRANCH  13  14
ENDBRANCH  12  13
ENDBRANCH   1  12
BRANCH   2  29
HETATM   29  N   UNL     1       4.211  28.274  56.602  1.00  0.00    -0.239 NA
HETATM   30  H   UNL     1       3.330  28.708  56.881  1.00  0.00     0.143 HD
HETATM   31  H   UNL     1       4.159  27.318  56.954  1.00  0.00     0.143 HD
ENDBRANCH   2  29
BRANCH   8  32
HETATM   32  C   UNL     1       7.788  24.091  55.222  1.00  0.00    -0.006 A 
HETATM   33  C   UNL     1       7.774  22.817  55.810  1.00  0.00     0.015 A 
HETATM   34  C   UNL     1       7.850  21.664  55.022  1.00  0.00     0.024 A 
HETATM   35  C   UNL     1       7.947  21.778  53.638  1.00  0.00     0.034 A 
HETATM   36 CL   UNL     1       8.050  20.364  52.665  1.00  0.00    -0.084 Cl
HETATM   37  C   UNL     1       7.966  23.035  53.037  1.00  0.00     0.024 A 
HETATM   38  C   UNL     1       7.886  24.187  53.826  1.00  0.00     0.015 A 
ENDBRANCH   8  32
TORSDOF 7
ENDMDL
MODEL 6
REMARK VINA RESULT:      -9.8      5.147     12.314
REMARK  7 active torsions:
REMARK  status: ('A' for Active; 'I' for Inactive)
REMARK       I    between atoms: C_2  and  N_3 
REMARK    1  A    between atoms: N_3  and  C_4 
REMARK    2  A    between atoms: C_7  and  N_8 
REMARK       I    between atoms: N_8  and  C_9 
REMARK    3  A    between atoms: C_9  and  C_10 
REMARK    4  A    between atoms: C_10  and  S_11 
REMARK    5  A    between atoms: S_11  and  C_12 
REMARK    6  A    between atoms: N_13  and  N_14 
REMARK    7  A    between atoms: C_20  and  C_21 
ROOT
HETATM    1  C   UNL     1       4.437  32.043  58.384  1.00  0.00     0.206 A 
HETATM    2  N   UNL     1       4.945  32.146  59.655  1.00  0.00    -0.234 N 
HETATM    3  C   UNL     1       3.943  32.744  60.391  1.00  0.00     0.197 A 
HETATM    4  C   UNL     1       3.960  33.053  61.781  1.00  0.00     0.101 A 
HETATM    5  N   UNL     1       2.812  33.299  62.475  1.00  0.00    -0.274 N 
HETATM    6  H   UNL     1       1.863  33.295  62.118  1.00  0.00     0.189 HD
HETATM    7  N   UNL     1       3.009  33.559  63.778  1.00  0.00    -0.174 NA
HETATM    8  C   UNL     1       4.344  33.536  63.930  1.00  0.00     0.089 A 
HETATM    9  C   UNL     1       4.975  33.201  62.698  1.00  0.00     0.069 A 
HETATM   10  N   UNL     1       2.907  32.978  59.603  1.00  0.00    -0.125 NA
HETATM   11  N   UNL     1       3.232  32.564  58.332  1.00  0.00    -0.121 NA
ENDROOT
BRANCH   1  12
HETATM   12  S   UNL     1       5.278  31.262  57.089  1.00  0.00    -0.080 SA
BRANCH  12  13
HETATM   13  C   UNL     1       4.838  29.523  57.388  1.00  0.00     0.185 C 
BRANCH  13  14
HETATM   14  C   UNL     1       5.847  28.592  56.726  1.00  0.00     0.231 C 
HETATM   15  N   UNL     1       5.601  27.255  56.991  1.00  0.00    -0.327 N 
HETATM   16  H   UNL     1       4.886  27.061  57.690  1.00  0.00     0.169 HD
HETATM   17  O   UNL     1       6.773  29.041  56.056  1.00  0.00    -0.272 OA
BRANCH  15  18
HETATM   18  C   UNL     1       6.351  26.138  56.580  1.00  0.00     0.034 A 
HETATM   19  C   UNL     1       6.109  25.415  55.415  1.00  0.00     0.032 A 
HETATM   20  C   UNL     1       6.934  24.336  55.058  1.00  0.00     0.032 A 
HETATM   21  C   UNL     1       8.010  23.964  55.861  1.00  0.00     0.034 A 
HETATM   22  C   UNL     1       8.219  24.660  57.056  1.00  0.00     0.032 A 
HETATM   23  C   UNL     1       7.407  25.744  57.405  1.00  0.00     0.032 A 
BRANCH  21  24
HETATM   24  N   UNL     1       8.892  22.906  55.589  1.00  0.00    -0.328 N 
HETATM   25  C   UNL     1       8.789  21.552  55.710  1.00  0.00     0.218 C 
HETATM   26  C   UNL     1       7.478  20.892  56.024  1.00  0.00     0.117 C 
HETATM   27  O   UNL     1       9.797  20.869  55.504  1.00  0.00    -0.274 OA
HETATM   28  H   UNL     1       9.796  23.161  55.205  1.00  0.00     0.169 HD
ENDBRANCH  21  24
ENDBRANCH  15  18
ENDBRANCH  13  14
ENDBRANCH  12  13
ENDBRANCH   1  12
BRANCH   2  29
HETATM   29  N   UNL     1       6.213  31.650  60.131  1.00  0.00    -0.239 NA
HETATM   30  H   UNL     1       6.465  30.795  59.633  1.00  0.00     0.143 HD
HETATM   31  H   UNL     1       6.136  31.373  61.110  1.00  0.00     0.143 HD
ENDBRANCH   2  29
BRANCH   8  32
HETATM   32  C   UNL     1       4.976  33.835  65.219  1.00  0.00    -0.006 A 
HETATM   33  C   UNL     1       4.194  34.205  66.324  1.00  0.00     0.015 A 
HETATM   34  C   UNL     1       4.788  34.503  67.554  1.00  0.00     0.024 A 
HETATM   35  C   UNL     1       6.173  34.439  67.686  1.00  0.00     0.034 A 
HETATM   36 CL   UNL     1       6.909  34.813  69.195  1.00  0.00    -0.084 Cl
HETATM   37  C   UNL     1       6.965  34.076  66.600  1.00  0.00     0.024 A 
HETATM   38  C   UNL     1       6.369  33.775  65.371  1.00  0.00     0.015 A 
ENDBRANCH   8  32
TORSDOF 7
ENDMDL
MODEL 7
REMARK VINA RESULT:      -9.8      6.826     10.797
REMARK  7 active torsions:
REMARK  status: ('A' for Active; 'I' for Inactive)
REMARK       I    between atoms: C_2  and  N_3 
REMARK    1  A    between atoms: N_3  and  C_4 
REMARK    2  A    between atoms: C_7  and  N_8 
REMARK       I    between atoms: N_8  and  C_9 
REMARK    3  A    between atoms: C_9  and  C_10 
REMARK    4  A    between atoms: C_10  and  S_11 
REMARK    5  A    between atoms: S_11  and  C_12 
REMARK    6  A    between atoms: N_13  and  N_14 
REMARK    7  A    between atoms: C_20  and  C_21 
ROOT
HETATM    1  C   UNL     1       4.569  30.858  55.234  1.00  0.00     0.206 A 
HETATM    2  N   UNL     1       5.029  29.685  54.689  1.00  0.00    -0.234 N 
HETATM    3  C   UNL     1       4.956  28.764  55.713  1.00  0.00     0.197 A 
HETATM    4  C   UNL     1       5.295  27.383  55.658  1.00  0.00     0.101 A 
HETATM    5  N   UNL     1       4.851  26.496  56.594  1.00  0.00    -0.274 N 
HETATM    6  H   UNL     1       4.260  26.691  57.396  1.00  0.00     0.189 HD
HETATM    7  N   UNL     1       5.253  25.232  56.382  1.00  0.00    -0.174 NA
HETATM    8  C   UNL     1       6.038  25.305  55.294  1.00  0.00     0.089 A 
HETATM    9  C   UNL     1       6.072  26.640  54.798  1.00  0.00     0.069 A 
HETATM   10  N   UNL     1       4.480  29.356  56.795  1.00  0.00    -0.125 NA
HETATM   11  N   UNL     1       4.267  30.683  56.501  1.00  0.00    -0.121 NA
ENDROOT
BRANCH   1  12
HETATM   12  S   UNL     1       4.367  32.312  54.318  1.00  0.00    -0.080 SA
BRANCH  12  13
HETATM   13  C   UNL     1       2.736  32.026  53.568  1.00  0.00     0.185 C 
BRANCH  13  14
HETATM   14  C   UNL     1       2.884  31.530  52.134  1.00  0.00     0.231 C 
HETATM   15  N   UNL     1       2.595  30.183  51.997  1.00  0.00    -0.327 N 
HETATM   16  H   UNL     1       2.460  29.663  52.863  1.00  0.00     0.169 HD
HETATM   17  O   UNL     1       3.247  32.290  51.239  1.00  0.00    -0.272 OA
BRANCH  15  18
HETATM   18  C   UNL     1       2.669  29.394  50.833  1.00  0.00     0.034 A 
HETATM   19  C   UNL     1       3.858  28.980  50.239  1.00  0.00     0.032 A 
HETATM   20  C   UNL     1       3.839  28.159  49.100  1.00  0.00     0.032 A 
HETATM   21  C   UNL     1       2.634  27.742  48.540  1.00  0.00     0.034 A 
HETATM   22  C   UNL     1       1.442  28.202  49.109  1.00  0.00     0.032 A 
HETATM   23  C   UNL     1       1.459  29.008  50.252  1.00  0.00     0.032 A 
BRANCH  21  24
HETATM   24  N   UNL     1       2.512  26.919  47.408  1.00  0.00    -0.328 N 
HETATM   25  C   UNL     1       2.771  25.600  47.183  1.00  0.00     0.218 C 
HETATM   26  C   UNL     1       3.101  24.664  48.309  1.00  0.00     0.117 C 
HETATM   27  O   UNL     1       2.680  25.176  46.027  1.00  0.00    -0.274 OA
HETATM   28  H   UNL     1       2.140  27.356  46.572  1.00  0.00     0.169 HD
ENDBRANCH  21  24
ENDBRANCH  15  18
ENDBRANCH  13  14
ENDBRANCH  12  13
ENDBRANCH   1  12
BRANCH   2  29
HETATM   29  N   UNL     1       5.415  29.452  53.319  1.00  0.00    -0.239 NA
HETATM   30  H   UNL     1       5.202  30.272  52.749  1.00  0.00     0.143 HD
HETATM   31  H   UNL     1       4.853  28.699  52.921  1.00  0.00     0.143 HD
ENDBRANCH   2  29
BRANCH   8  32
HETATM   32  C   UNL     1       6.730  24.125  54.766  1.00  0.00    -0.006 A 
HETATM   33  C   UNL     1       6.936  23.981  53.385  1.00  0.00     0.015 A 
HETATM   34  C   UNL     1       7.585  22.855  52.871  1.00  0.00     0.024 A 
HETATM   35  C   UNL     1       8.028  21.858  53.737  1.00  0.00     0.034 A 
HETATM   36 CL   UNL     1       8.820  20.466  53.109  1.00  0.00    -0.084 Cl
HETATM   37  C   UNL     1       7.831  21.982  55.110  1.00  0.00     0.024 A 
HETATM   38  C   UNL     1       7.185  23.111  55.623  1.00  0.00     0.015 A 
ENDBRANCH   8  32
TORSDOF 7
ENDMDL
MODEL 8
REMARK VINA RESULT:      -9.6      2.766      3.362
REMARK  7 active torsions:
REMARK  status: ('A' for Active; 'I' for Inactive)
REMARK       I    between atoms: C_2  and  N_3 
REMARK    1  A    between atoms: N_3  and  C_4 
REMARK    2  A    between atoms: C_7  and  N_8 
REMARK       I    between atoms: N_8  and  C_9 
REMARK    3  A    between atoms: C_9  and  C_10 
REMARK    4  A    between atoms: C_10  and  S_11 
REMARK    5  A    between atoms: S_11  and  C_12 
REMARK    6  A    between atoms: N_13  and  N_14 
REMARK    7  A    between atoms: C_20  and  C_21 
ROOT
HETATM    1  C   UNL     1       5.002  30.161  57.597  1.00  0.00     0.206 A 
HETATM    2  N   UNL     1       5.075  28.918  57.020  1.00  0.00    -0.234 N 
HETATM    3  C   UNL     1       6.364  28.489  57.259  1.00  0.00     0.197 A 
HETATM    4  C   UNL     1       6.943  27.243  56.886  1.00  0.00     0.101 A 
HETATM    5  N   UNL     1       8.080  26.774  57.475  1.00  0.00    -0.274 N 
HETATM    6  H   UNL     1       8.624  27.221  58.206  1.00  0.00     0.189 HD
HETATM    7  N   UNL     1       8.480  25.578  57.013  1.00  0.00    -0.174 NA
HETATM    8  C   UNL     1       7.599  25.278  56.044  1.00  0.00     0.089 A 
HETATM    9  C   UNL     1       6.605  26.294  55.949  1.00  0.00     0.069 A 
HETATM   10  N   UNL     1       7.011  29.421  57.938  1.00  0.00    -0.125 NA
HETATM   11  N   UNL     1       6.161  30.487  58.123  1.00  0.00    -0.121 NA
ENDROOT
BRANCH   1  12
HETATM   12  S   UNL     1       3.545  31.092  57.660  1.00  0.00    -0.080 SA
BRANCH  12  13
HETATM   13  C   UNL     1       3.328  31.278  59.455  1.00  0.00     0.185 C 
BRANCH  13  14
HETATM   14  C   UNL     1       3.925  32.596  59.935  1.00  0.00     0.231 C 
HETATM   15  N   UNL     1       3.925  32.717  61.314  1.00  0.00    -0.327 N 
HETATM   16  H   UNL     1       3.414  32.000  61.827  1.00  0.00     0.169 HD
HETATM   17  O   UNL     1       4.328  33.434  59.132  1.00  0.00    -0.272 OA
BRANCH  15  18
HETATM   18  C   UNL     1       4.357  33.810  62.089  1.00  0.00     0.034 A 
HETATM   19  C   UNL     1       5.690  34.085  62.384  1.00  0.00     0.032 A 
HETATM   20  C   UNL     1       6.036  35.223  63.131  1.00  0.00     0.032 A 
HETATM   21  C   UNL     1       5.057  36.099  63.593  1.00  0.00     0.034 A 
HETATM   22  C   UNL     1       3.716  35.791  63.338  1.00  0.00     0.032 A 
HETATM   23  C   UNL     1       3.371  34.667  62.582  1.00  0.00     0.032 A 
BRANCH  21  24
HETATM   24  N   UNL     1       5.302  37.262  64.341  1.00  0.00    -0.328 N 
HETATM   25  C   UNL     1       5.795  38.491  64.017  1.00  0.00     0.218 C 
HETATM   26  C   UNL     1       6.011  38.897  62.588  1.00  0.00     0.117 C 
HETATM   27  O   UNL     1       6.016  39.291  64.932  1.00  0.00    -0.274 OA
HETATM   28  H   UNL     1       5.057  37.225  65.324  1.00  0.00     0.169 HD
ENDBRANCH  21  24
ENDBRANCH  15  18
ENDBRANCH  13  14
ENDBRANCH  12  13
ENDBRANCH   1  12
BRANCH   2  29
HETATM   29  N   UNL     1       4.006  28.186  56.385  1.00  0.00    -0.239 NA
HETATM   30  H   UNL     1       3.319  28.835  55.996  1.00  0.00     0.143 HD
HETATM   31  H   UNL     1       3.493  27.643  57.079  1.00  0.00     0.143 HD
ENDBRANCH   2  29
BRANCH   8  32
HETATM   32  C   UNL     1       7.726  24.058  55.242  1.00  0.00    -0.006 A 
HETATM   33  C   UNL     1       7.723  24.126  53.840  1.00  0.00     0.015 A 
HETATM   34  C   UNL     1       7.833  22.967  53.066  1.00  0.00     0.024 A 
HETATM   35  C   UNL     1       7.941  21.727  53.690  1.00  0.00     0.034 A 
HETATM   36 CL   UNL     1       8.068  20.297  52.743  1.00  0.00    -0.084 Cl
HETATM   37  C   UNL     1       7.944  21.639  55.081  1.00  0.00     0.024 A 
HETATM   38  C   UNL     1       7.838  22.800  55.853  1.00  0.00     0.015 A 
ENDBRANCH   8  32
TORSDOF 7
ENDMDL
MODEL 9
REMARK VINA RESULT:      -9.5      5.779      9.732
REMARK  7 active torsions:
REMARK  status: ('A' for Active; 'I' for Inactive)
REMARK       I    between atoms: C_2  and  N_3 
REMARK    1  A    between atoms: N_3  and  C_4 
REMARK    2  A    between atoms: C_7  and  N_8 
REMARK       I    between atoms: N_8  and  C_9 
REMARK    3  A    between atoms: C_9  and  C_10 
REMARK    4  A    between atoms: C_10  and  S_11 
REMARK    5  A    between atoms: S_11  and  C_12 
REMARK    6  A    between atoms: N_13  and  N_14 
REMARK    7  A    between atoms: C_20  and  C_21 
ROOT
HETATM    1  C   UNL     1       4.873  30.143  56.987  1.00  0.00     0.206 A 
HETATM    2  N   UNL     1       4.988  28.904  56.407  1.00  0.00    -0.234 N 
HETATM    3  C   UNL     1       6.170  28.389  56.897  1.00  0.00     0.197 A 
HETATM    4  C   UNL     1       6.736  27.113  56.621  1.00  0.00     0.101 A 
HETATM    5  N   UNL     1       7.695  26.564  57.421  1.00  0.00    -0.274 N 
HETATM    6  H   UNL     1       8.102  26.967  58.259  1.00  0.00     0.189 HD
HETATM    7  N   UNL     1       8.108  25.350  57.024  1.00  0.00    -0.174 NA
HETATM    8  C   UNL     1       7.431  25.118  55.886  1.00  0.00     0.089 A 
HETATM    9  C   UNL     1       6.542  26.197  55.612  1.00  0.00     0.069 A 
HETATM   10  N   UNL     1       6.718  29.270  57.717  1.00  0.00    -0.125 NA
HETATM   11  N   UNL     1       5.915  30.387  57.748  1.00  0.00    -0.121 NA
ENDROOT
BRANCH   1  12
HETATM   12  S   UNL     1       3.494  31.166  56.769  1.00  0.00    -0.080 SA
BRANCH  12  13
HETATM   13  C   UNL     1       4.042  32.193  55.373  1.00  0.00     0.185 C 
BRANCH  13  14
HETATM   14  C   UNL     1       3.621  31.568  54.047  1.00  0.00     0.231 C 
HETATM   15  N   UNL     1       4.606  30.769  53.492  1.00  0.00    -0.327 N 
HETATM   16  H   UNL     1       5.518  30.803  53.943  1.00  0.00     0.169 HD
HETATM   17  O   UNL     1       2.517  31.804  53.562  1.00  0.00    -0.272 OA
BRANCH  15  18
HETATM   18  C   UNL     1       4.573  30.079  52.265  1.00  0.00     0.034 A 
HETATM   19  C   UNL     1       4.426  30.691  51.023  1.00  0.00     0.032 A 
HETATM   20  C   UNL     1       4.445  29.930  49.844  1.00  0.00     0.032 A 
HETATM   21  C   UNL     1       4.608  28.547  49.890  1.00  0.00     0.034 A 
HETATM   22  C   UNL     1       4.703  27.930  51.142  1.00  0.00     0.032 A 
HETATM   23  C   UNL     1       4.699  28.689  52.316  1.00  0.00     0.032 A 
BRANCH  21  24
HETATM   24  N   UNL     1       4.644  27.700  48.770  1.00  0.00    -0.328 N 
HETATM   25  C   UNL     1       3.677  27.058  48.056  1.00  0.00     0.218 C 
HETATM   26  C   UNL     1       2.220  27.339  48.283  1.00  0.00     0.117 C 
HETATM   27  O   UNL     1       4.029  26.266  47.176  1.00  0.00    -0.274 OA
HETATM   28  H   UNL     1       5.559  27.522  48.370  1.00  0.00     0.169 HD
ENDBRANCH  21  24
ENDBRANCH  15  18
ENDBRANCH  13  14
ENDBRANCH  12  13
ENDBRANCH   1  12
BRANCH   2  29
HETATM   29  N   UNL     1       4.031  28.250  55.547  1.00  0.00    -0.239 NA
HETATM   30  H   UNL     1       3.314  28.914  55.251  1.00  0.00     0.143 HD
HETATM   31  H   UNL     1       3.527  27.531  56.067  1.00  0.00     0.143 HD
ENDBRANCH   2  29
BRANCH   8  32
HETATM   32  C   UNL     1       7.647  23.901  55.098  1.00  0.00    -0.006 A 
HETATM   33  C   UNL     1       7.708  22.648  55.728  1.00  0.00     0.015 A 
HETATM   34  C   UNL     1       7.925  21.483  54.987  1.00  0.00     0.024 A 
HETATM   35  C   UNL     1       8.088  21.563  53.606  1.00  0.00     0.034 A 
HETATM   36 CL   UNL     1       8.363  20.134  52.690  1.00  0.00    -0.084 Cl
HETATM   37  C   UNL     1       8.033  22.798  52.963  1.00  0.00     0.024 A 
HETATM   38  C   UNL     1       7.812  23.962  53.706  1.00  0.00     0.015 A 
ENDBRANCH   8  32
TORSDOF 7
ENDMDL
MODEL 10
REMARK VINA RESULT:      -9.5      2.627      3.401
REMARK  7 active torsions:
REMARK  status: ('A' for Active; 'I' for Inactive)
REMARK       I    between atoms: C_2  and  N_3 
REMARK    1  A    between atoms: N_3  and  C_4 
REMARK    2  A    between atoms: C_7  and  N_8 
REMARK       I    between atoms: N_8  and  C_9 
REMARK    3  A    between atoms: C_9  and  C_10 
REMARK    4  A    between atoms: C_10  and  S_11 
REMARK    5  A    between atoms: S_11  and  C_12 
REMARK    6  A    between atoms: N_13  and  N_14 
REMARK    7  A    between atoms: C_20  and  C_21 
ROOT
HETATM    1  C   UNL     1       4.303  31.655  58.506  1.00  0.00     0.206 A 
HETATM    2  N   UNL     1       5.192  30.670  58.151  1.00  0.00    -0.234 N 
HETATM    3  C   UNL     1       4.490  29.848  57.295  1.00  0.00     0.197 A 
HETATM    4  C   UNL     1       4.971  28.687  56.625  1.00  0.00     0.101 A 
HETATM    5  N   UNL     1       4.328  28.167  55.540  1.00  0.00    -0.274 N 
HETATM    6  H   UNL     1       3.483  28.515  55.099  1.00  0.00     0.189 HD
HETATM    7  N   UNL     1       4.925  27.080  55.022  1.00  0.00    -0.174 NA
HETATM    8  C   UNL     1       5.969  26.849  55.835  1.00  0.00     0.089 A 
HETATM    9  C   UNL     1       6.042  27.852  56.844  1.00  0.00     0.069 A 
HETATM   10  N   UNL     1       3.263  30.319  57.151  1.00  0.00    -0.125 NA
HETATM   11  N   UNL     1       3.137  31.439  57.939  1.00  0.00    -0.121 NA
ENDROOT
BRANCH   1  12
HETATM   12  S   UNL     1       4.732  33.004  59.501  1.00  0.00    -0.080 SA
BRANCH  12  13
HETATM   13  C   UNL     1       4.491  32.301  61.160  1.00  0.00     0.185 C 
BRANCH  13  14
HETATM   14  C   UNL     1       4.881  33.311  62.233  1.00  0.00     0.231 C 
HETATM   15  N   UNL     1       4.923  32.759  63.503  1.00  0.00    -0.327 N 
HETATM   16  H   UNL     1       4.564  31.811  63.591  1.00  0.00     0.169 HD
HETATM   17  O   UNL     1       5.101  34.485  61.944  1.00  0.00    -0.272 OA
BRANCH  15  18
HETATM   18  C   UNL     1       5.202  33.408  64.721  1.00  0.00     0.034 A 
HETATM   19  C   UNL     1       4.237  33.979  65.546  1.00  0.00     0.032 A 
HETATM   20  C   UNL     1       4.599  34.571  66.766  1.00  0.00     0.032 A 
HETATM   21  C   UNL     1       5.930  34.602  67.178  1.00  0.00     0.034 A 
HETATM   22  C   UNL     1       6.902  34.073  66.322  1.00  0.00     0.032 A 
HETATM   23  C   UNL     1       6.541  33.469  65.114  1.00  0.00     0.032 A 
BRANCH  21  24
HETATM   24  N   UNL     1       6.391  35.165  68.379  1.00  0.00    -0.328 N 
HETATM   25  C   UNL     1       6.423  34.716  69.666  1.00  0.00     0.218 C 
HETATM   26  C   UNL     1       6.090  33.293  70.007  1.00  0.00     0.117 C 
HETATM   27  O   UNL     1       6.784  35.501  70.548  1.00  0.00    -0.274 OA
HETATM   28  H   UNL     1       6.809  36.086  68.313  1.00  0.00     0.169 HD
ENDBRANCH  21  24
ENDBRANCH  15  18
ENDBRANCH  13  14
ENDBRANCH  12  13
ENDBRANCH   1  12
BRANCH   2  29
HETATM   29  N   UNL     1       6.583  30.575  58.523  1.00  0.00    -0.239 NA
HETATM   30  H   UNL     1       7.105  31.363  58.135  1.00  0.00     0.143 HD
HETATM   31  H   UNL     1       7.002  29.746  58.101  1.00  0.00     0.143 HD
ENDBRANCH   2  29
BRANCH   8  32
HETATM   32  C   UNL     1       6.853  25.696  55.640  1.00  0.00    -0.006 A 
HETATM   33  C   UNL     1       7.152  25.240  54.347  1.00  0.00     0.015 A 
HETATM   34  C   UNL     1       7.985  24.134  54.151  1.00  0.00     0.024 A 
HETATM   35  C   UNL     1       8.522  23.471  55.251  1.00  0.00     0.034 A 
HETATM   36 CL   UNL     1       9.540  22.104  55.016  1.00  0.00    -0.084 Cl
HETATM   37  C   UNL     1       8.235  23.907  56.542  1.00  0.00     0.024 A 
HETATM   38  C   UNL     1       7.405  25.015  56.736  1.00  0.00     0.015 A 
ENDBRANCH   8  32
TORSDOF 7
ENDMDL
