MODEL 1
REMARK VINA RESULT:      -8.2      0.000      0.000
REMARK  6 active torsions:
REMARK  status: ('A' for Active; 'I' for Inactive)
REMARK    1  A    between atoms: C_2  and  O_3 
REMARK    2  A    between atoms: O_3  and  C_4 
REMARK    3  A    between atoms: C_7  and  N_8 
REMARK    4  A    between atoms: C_9  and  C_11 
REMARK    5  A    between atoms: C_9  and  O_10 
REMARK       I    between atoms: C_11  and  N_12 
REMARK    6  A    between atoms: N_12  and  C_13 
ROOT
HETATM    1  N   UNL     1       6.202  28.251  54.339  1.00  0.00    -0.254 N 
HETATM    2  C   UNL     1       6.869  28.677  55.582  1.00  0.00     0.256 C 
HETATM    3  C   UNL     1       6.279  29.911  56.236  1.00  0.00     0.035 A 
HETATM    4  C   UNL     1       5.328  30.650  55.547  1.00  0.00     0.048 A 
HETATM    5  N   UNL     1       4.915  30.220  54.298  1.00  0.00    -0.308 N 
HETATM    6  C   UNL     1       5.276  29.055  53.697  1.00  0.00     0.330 C 
HETATM    7  O   UNL     1       4.770  28.811  52.601  1.00  0.00    -0.246 OA
HETATM    8  C   UNL     1       6.685  30.361  57.506  1.00  0.00     0.034 A 
HETATM    9  C   UNL     1       6.119  31.510  58.062  1.00  0.00     0.011 A 
HETATM   10 BR   UNL     1       6.647  32.077  59.786  1.00  0.00    -0.051 Br
HETATM   11  C   UNL     1       5.168  32.240  57.357  1.00  0.00     0.021 A 
HETATM   12  C   UNL     1       4.775  31.813  56.089  1.00  0.00     0.031 A 
HETATM   13  H   UNL     1       4.225  30.751  53.782  1.00  0.00     0.170 HD
ENDROOT
BRANCH   1  14
HETATM   14  C   UNL     1       6.431  26.916  53.849  1.00  0.00     0.043 A 
HETATM   15  C   UNL     1       7.612  26.555  53.188  1.00  0.00     0.032 A 
HETATM   16  C   UNL     1       7.837  25.230  52.797  1.00  0.00     0.039 A 
HETATM   17  C   UNL     1       6.909  24.233  53.091  1.00  0.00     0.068 A 
HETATM   18  C   UNL     1       5.722  24.580  53.729  1.00  0.00     0.039 A 
HETATM   19  C   UNL     1       5.484  25.911  54.094  1.00  0.00     0.032 A 
BRANCH  17  20
HETATM   20  O   UNL     1       7.264  22.974  52.695  1.00  0.00    -0.352 OA
BRANCH  20  21
HETATM   21  C   UNL     1       8.126  22.256  53.580  1.00  0.00     0.171 C 
HETATM   22  C   UNL     1       7.995  20.777  53.264  1.00  0.00     0.034 C 
ENDBRANCH  20  21
ENDBRANCH  17  20
ENDBRANCH   1  14
BRANCH   2  23
HETATM   23  C   UNL     1       6.820  27.486  56.635  1.00  0.00     0.279 C 
HETATM   24  N   UNL     1       8.006  26.761  56.680  1.00  0.00    -0.352 N 
HETATM   25  H   UNL     1       8.756  27.073  56.070  1.00  0.00     0.163 HD
HETATM   26  O   UNL     1       5.837  27.223  57.325  1.00  0.00    -0.268 OA
BRANCH  24  27
HETATM   27  C   UNL     1       8.167  25.575  57.451  1.00  0.00     0.084 A 
HETATM   28  C   UNL     1       7.642  24.250  56.969  1.00  0.00     0.027 A 
HETATM   29  C   UNL     1       9.119  24.502  56.992  1.00  0.00     0.027 A 
ENDBRANCH  24  27
ENDBRANCH   2  23
BRANCH   2  30
HETATM   30  O   UNL     1       8.203  29.049  55.229  1.00  0.00    -0.359 OA
HETATM   31  H   UNL     1       8.747  28.539  55.854  1.00  0.00     0.213 HD
ENDBRANCH   2  30
TORSDOF 6
ENDMDL
MODEL 2
REMARK VINA RESULT:      -8.0      8.082     11.734
REMARK  6 active torsions:
REMARK  status: ('A' for Active; 'I' for Inactive)
REMARK    1  A    between atoms: C_2  and  O_3 
REMARK    2  A    between atoms: O_3  and  C_4 
REMARK    3  A    between atoms: C_7  and  N_8 
REMARK    4  A    between atoms: C_9  and  C_11 
REMARK    5  A    between atoms: C_9  and  O_10 
REMARK       I    between atoms: C_11  and  N_12 
REMARK    6  A    between atoms: N_12  and  C_13 
ROOT
HETATM    1  N   UNL     1       4.491  34.444  63.192  1.00  0.00    -0.254 N 
HETATM    2  C   UNL     1       4.097  33.251  62.421  1.00  0.00     0.256 C 
HETATM    3  C   UNL     1       4.044  33.448  60.919  1.00  0.00     0.035 A 
HETATM    4  C   UNL     1       4.157  34.731  60.402  1.00  0.00     0.048 A 
HETATM    5  N   UNL     1       4.357  35.792  61.269  1.00  0.00    -0.308 N 
HETATM    6  C   UNL     1       4.563  35.697  62.609  1.00  0.00     0.330 C 
HETATM    7  O   UNL     1       4.772  36.747  63.219  1.00  0.00    -0.246 OA
HETATM    8  C   UNL     1       3.845  32.382  60.022  1.00  0.00     0.034 A 
HETATM    9  C   UNL     1       3.793  32.616  58.648  1.00  0.00     0.011 A 
HETATM   10 BR   UNL     1       3.565  31.166  57.456  1.00  0.00    -0.051 Br
HETATM   11  C   UNL     1       3.907  33.908  58.146  1.00  0.00     0.021 A 
HETATM   12  C   UNL     1       4.083  34.973  59.028  1.00  0.00     0.031 A 
HETATM   13  H   UNL     1       4.437  36.734  60.907  1.00  0.00     0.170 HD
ENDROOT
BRANCH   1  14
HETATM   14  C   UNL     1       4.929  34.277  64.555  1.00  0.00     0.043 A 
HETATM   15  C   UNL     1       6.284  34.190  64.899  1.00  0.00     0.032 A 
HETATM   16  C   UNL     1       6.677  34.111  66.241  1.00  0.00     0.039 A 
HETATM   17  C   UNL     1       5.732  34.156  67.264  1.00  0.00     0.068 A 
HETATM   18  C   UNL     1       4.381  34.222  66.936  1.00  0.00     0.039 A 
HETATM   19  C   UNL     1       3.987  34.272  65.593  1.00  0.00     0.032 A 
BRANCH  17  20
HETATM   20  O   UNL     1       6.245  34.113  68.530  1.00  0.00    -0.352 OA
BRANCH  20  21
HETATM   21  C   UNL     1       6.919  35.292  68.975  1.00  0.00     0.171 C 
HETATM   22  C   UNL     1       8.217  34.867  69.637  1.00  0.00     0.034 C 
ENDBRANCH  20  21
ENDBRANCH  17  20
ENDBRANCH   1  14
BRANCH   2  23
HETATM   23  C   UNL     1       5.116  32.070  62.730  1.00  0.00     0.279 C 
HETATM   24  N   UNL     1       6.375  32.290  62.180  1.00  0.00    -0.352 N 
HETATM   25  H   UNL     1       6.507  33.162  61.674  1.00  0.00     0.163 HD
HETATM   26  O   UNL     1       4.822  31.063  63.372  1.00  0.00    -0.268 OA
BRANCH  24  27
HETATM   27  C   UNL     1       7.420  31.323  62.211  1.00  0.00     0.084 A 
HETATM   28  C   UNL     1       8.314  31.098  61.023  1.00  0.00     0.027 A 
HETATM   29  C   UNL     1       8.857  31.770  62.247  1.00  0.00     0.027 A 
ENDBRANCH  24  27
ENDBRANCH   2  23
BRANCH   2  30
HETATM   30  O   UNL     1       2.755  32.938  62.800  1.00  0.00    -0.359 OA
HETATM   31  H   UNL     1       2.812  32.003  63.062  1.00  0.00     0.213 HD
ENDBRANCH   2  30
TORSDOF 6
ENDMDL
MODEL 3
REMARK VINA RESULT:      -8.0      2.068      3.635
REMARK  6 active torsions:
REMARK  status: ('A' for Active; 'I' for Inactive)
REMARK    1  A    between atoms: C_2  and  O_3 
REMARK    2  A    between atoms: O_3  and  C_4 
REMARK    3  A    between atoms: C_7  and  N_8 
REMARK    4  A    between atoms: C_9  and  C_11 
REMARK    5  A    between atoms: C_9  and  O_10 
REMARK       I    between atoms: C_11  and  N_12 
REMARK    6  A    between atoms: N_12  and  C_13 
ROOT
HETATM    1  N   UNL     1       6.394  27.239  56.592  1.00  0.00    -0.254 N 
HETATM    2  C   UNL     1       5.189  27.893  56.052  1.00  0.00     0.256 C 
HETATM    3  C   UNL     1       5.032  29.354  56.424  1.00  0.00     0.035 A 
HETATM    4  C   UNL     1       5.879  29.903  57.377  1.00  0.00     0.048 A 
HETATM    5  N   UNL     1       6.870  29.112  57.932  1.00  0.00    -0.308 N 
HETATM    6  C   UNL     1       7.179  27.842  57.559  1.00  0.00     0.330 C 
HETATM    7  O   UNL     1       8.127  27.305  58.133  1.00  0.00    -0.246 OA
HETATM    8  C   UNL     1       4.034  30.174  55.866  1.00  0.00     0.034 A 
HETATM    9  C   UNL     1       3.923  31.512  56.249  1.00  0.00     0.011 A 
HETATM   10 BR   UNL     1       2.601  32.608  55.460  1.00  0.00    -0.051 Br
HETATM   11  C   UNL     1       4.779  32.045  57.207  1.00  0.00     0.021 A 
HETATM   12  C   UNL     1       5.758  31.235  57.780  1.00  0.00     0.031 A 
HETATM   13  H   UNL     1       7.492  29.497  58.632  1.00  0.00     0.170 HD
ENDROOT
BRANCH   1  14
HETATM   14  C   UNL     1       6.828  25.993  56.012  1.00  0.00     0.043 A 
HETATM   15  C   UNL     1       7.684  25.944  54.904  1.00  0.00     0.032 A 
HETATM   16  C   UNL     1       8.151  24.718  54.415  1.00  0.00     0.039 A 
HETATM   17  C   UNL     1       7.808  23.523  55.044  1.00  0.00     0.068 A 
HETATM   18  C   UNL     1       6.942  23.555  56.133  1.00  0.00     0.039 A 
HETATM   19  C   UNL     1       6.451  24.779  56.603  1.00  0.00     0.032 A 
BRANCH  17  20
HETATM   20  O   UNL     1       8.362  22.399  54.497  1.00  0.00    -0.352 OA
BRANCH  20  21
HETATM   21  C   UNL     1       7.916  22.053  53.185  1.00  0.00     0.171 C 
HETATM   22  C   UNL     1       8.276  20.599  52.937  1.00  0.00     0.034 C 
ENDBRANCH  20  21
ENDBRANCH  17  20
ENDBRANCH   1  14
BRANCH   2  23
HETATM   23  C   UNL     1       5.203  27.784  54.465  1.00  0.00     0.279 C 
HETATM   24  N   UNL     1       4.520  26.666  53.999  1.00  0.00    -0.352 N 
HETATM   25  H   UNL     1       4.085  26.071  54.699  1.00  0.00     0.163 HD
HETATM   26  O   UNL     1       5.768  28.591  53.729  1.00  0.00    -0.268 OA
BRANCH  24  27
HETATM   27  C   UNL     1       4.496  26.281  52.628  1.00  0.00     0.084 A 
HETATM   28  C   UNL     1       5.763  25.962  51.881  1.00  0.00     0.027 A 
HETATM   29  C   UNL     1       4.811  24.861  52.238  1.00  0.00     0.027 A 
ENDBRANCH  24  27
ENDBRANCH   2  23
BRANCH   2  30
HETATM   30  O   UNL     1       4.063  27.240  56.642  1.00  0.00    -0.359 OA
HETATM   31  H   UNL     1       4.382  26.331  56.778  1.00  0.00     0.213 HD
ENDBRANCH   2  30
TORSDOF 6
ENDMDL
MODEL 4
REMARK VINA RESULT:      -7.9      3.545      6.628
REMARK  6 active torsions:
REMARK  status: ('A' for Active; 'I' for Inactive)
REMARK    1  A    between atoms: C_2  and  O_3 
REMARK    2  A    between atoms: O_3  and  C_4 
REMARK    3  A    between atoms: C_7  and  N_8 
REMARK    4  A    between atoms: C_9  and  C_11 
REMARK    5  A    between atoms: C_9  and  O_10 
REMARK       I    between atoms: C_11  and  N_12 
REMARK    6  A    between atoms: N_12  and  C_13 
ROOT
HETATM    1  N   UNL     1       6.347  27.328  52.662  1.00  0.00    -0.254 N 
HETATM    2  C   UNL     1       5.432  28.352  52.126  1.00  0.00     0.256 C 
HETATM    3  C   UNL     1       4.636  27.924  50.909  1.00  0.00     0.035 A 
HETATM    4  C   UNL     1       4.955  26.729  50.279  1.00  0.00     0.048 A 
HETATM    5  N   UNL     1       5.965  25.941  50.802  1.00  0.00    -0.308 N 
HETATM    6  C   UNL     1       6.632  26.168  51.964  1.00  0.00     0.330 C 
HETATM    7  O   UNL     1       7.471  25.331  52.301  1.00  0.00    -0.246 OA
HETATM    8  C   UNL     1       3.603  28.711  50.365  1.00  0.00     0.034 A 
HETATM    9  C   UNL     1       2.906  28.279  49.237  1.00  0.00     0.011 A 
HETATM   10 BR   UNL     1       1.495  29.330  48.545  1.00  0.00    -0.051 Br
HETATM   11  C   UNL     1       3.240  27.079  48.616  1.00  0.00     0.021 A 
HETATM   12  C   UNL     1       4.275  26.304  49.136  1.00  0.00     0.031 A 
HETATM   13  H   UNL     1       6.212  25.069  50.350  1.00  0.00     0.170 HD
ENDROOT
BRANCH   1  14
HETATM   14  C   UNL     1       6.859  27.487  54.000  1.00  0.00     0.043 A 
HETATM   15  C   UNL     1       7.909  28.366  54.298  1.00  0.00     0.032 A 
HETATM   16  C   UNL     1       8.329  28.556  55.620  1.00  0.00     0.039 A 
HETATM   17  C   UNL     1       7.686  27.906  56.672  1.00  0.00     0.068 A 
HETATM   18  C   UNL     1       6.656  27.015  56.389  1.00  0.00     0.039 A 
HETATM   19  C   UNL     1       6.255  26.802  55.064  1.00  0.00     0.032 A 
BRANCH  17  20
HETATM   20  O   UNL     1       8.161  28.208  57.918  1.00  0.00    -0.352 OA
BRANCH  20  21
HETATM   21  C   UNL     1       8.618  29.548  58.108  1.00  0.00     0.171 C 
HETATM   22  C   UNL     1       7.445  30.377  58.598  1.00  0.00     0.034 C 
ENDBRANCH  20  21
ENDBRANCH  17  20
ENDBRANCH   1  14
BRANCH   2  23
HETATM   23  C   UNL     1       4.407  28.784  53.262  1.00  0.00     0.279 C 
HETATM   24  N   UNL     1       4.748  29.994  53.859  1.00  0.00    -0.352 N 
HETATM   25  H   UNL     1       5.576  30.463  53.502  1.00  0.00     0.163 HD
HETATM   26  O   UNL     1       3.428  28.117  53.590  1.00  0.00    -0.268 OA
BRANCH  24  27
HETATM   27  C   UNL     1       4.059  30.531  54.983  1.00  0.00     0.084 A 
HETATM   28  C   UNL     1       4.282  29.991  56.370  1.00  0.00     0.027 A 
HETATM   29  C   UNL     1       4.806  31.347  56.005  1.00  0.00     0.027 A 
ENDBRANCH  24  27
ENDBRANCH   2  23
BRANCH   2  30
HETATM   30  O   UNL     1       6.246  29.436  51.672  1.00  0.00    -0.359 OA
HETATM   31  H   UNL     1       6.105  30.117  52.352  1.00  0.00     0.213 HD
ENDBRANCH   2  30
TORSDOF 6
ENDMDL
MODEL 5
REMARK VINA RESULT:      -7.8      3.174      5.016
REMARK  6 active torsions:
REMARK  status: ('A' for Active; 'I' for Inactive)
REMARK    1  A    between atoms: C_2  and  O_3 
REMARK    2  A    between atoms: O_3  and  C_4 
REMARK    3  A    between atoms: C_7  and  N_8 
REMARK    4  A    between atoms: C_9  and  C_11 
REMARK    5  A    between atoms: C_9  and  O_10 
REMARK       I    between atoms: C_11  and  N_12 
REMARK    6  A    between atoms: N_12  and  C_13 
ROOT
HETATM    1  N   UNL     1       5.420  27.665  53.712  1.00  0.00    -0.254 N 
HETATM    2  C   UNL     1       4.380  28.187  52.808  1.00  0.00     0.256 C 
HETATM    3  C   UNL     1       4.023  29.645  53.017  1.00  0.00     0.035 A 
HETATM    4  C   UNL     1       4.519  30.309  54.129  1.00  0.00     0.048 A 
HETATM    5  N   UNL     1       5.360  29.634  54.997  1.00  0.00    -0.308 N 
HETATM    6  C   UNL     1       5.851  28.379  54.817  1.00  0.00     0.330 C 
HETATM    7  O   UNL     1       6.628  27.954  55.672  1.00  0.00    -0.246 OA
HETATM    8  C   UNL     1       3.173  30.348  52.142  1.00  0.00     0.034 A 
HETATM    9  C   UNL     1       2.865  31.688  52.383  1.00  0.00     0.011 A 
HETATM   10 BR   UNL     1       1.754  32.627  51.177  1.00  0.00    -0.051 Br
HETATM   11  C   UNL     1       3.370  32.339  53.505  1.00  0.00     0.021 A 
HETATM   12  C   UNL     1       4.196  31.643  54.387  1.00  0.00     0.031 A 
HETATM   13  H   UNL     1       5.726  30.104  55.816  1.00  0.00     0.170 HD
ENDROOT
BRANCH   1  14
HETATM   14  C   UNL     1       6.089  26.436  53.368  1.00  0.00     0.043 A 
HETATM   15  C   UNL     1       7.373  26.415  52.809  1.00  0.00     0.032 A 
HETATM   16  C   UNL     1       8.026  25.201  52.562  1.00  0.00     0.039 A 
HETATM   17  C   UNL     1       7.429  23.989  52.902  1.00  0.00     0.068 A 
HETATM   18  C   UNL     1       6.145  23.993  53.438  1.00  0.00     0.039 A 
HETATM   19  C   UNL     1       5.480  25.207  53.658  1.00  0.00     0.032 A 
BRANCH  17  20
HETATM   20  O   UNL     1       8.184  22.879  52.650  1.00  0.00    -0.352 OA
BRANCH  20  21
HETATM   21  C   UNL     1       8.095  21.826  53.612  1.00  0.00     0.171 C 
HETATM   22  C   UNL     1       8.279  20.508  52.882  1.00  0.00     0.034 C 
ENDBRANCH  20  21
ENDBRANCH  17  20
ENDBRANCH   1  14
BRANCH   2  23
HETATM   23  C   UNL     1       4.858  28.004  51.302  1.00  0.00     0.279 C 
HETATM   24  N   UNL     1       4.148  27.015  50.630  1.00  0.00    -0.352 N 
HETATM   25  H   UNL     1       3.412  26.546  51.152  1.00  0.00     0.163 HD
HETATM   26  O   UNL     1       5.767  28.655  50.789  1.00  0.00    -0.268 OA
BRANCH  24  27
HETATM   27  C   UNL     1       4.471  26.579  49.314  1.00  0.00     0.084 A 
HETATM   28  C   UNL     1       3.547  25.679  48.538  1.00  0.00     0.027 A 
HETATM   29  C   UNL     1       3.703  27.114  48.134  1.00  0.00     0.027 A 
ENDBRANCH  24  27
ENDBRANCH   2  23
BRANCH   2  30
HETATM   30  O   UNL     1       3.180  27.468  53.099  1.00  0.00    -0.359 OA
HETATM   31  H   UNL     1       2.586  28.159  53.441  1.00  0.00     0.213 HD
ENDBRANCH   2  30
TORSDOF 6
ENDMDL
MODEL 6
REMARK VINA RESULT:      -7.7      2.627      3.792
REMARK  6 active torsions:
REMARK  status: ('A' for Active; 'I' for Inactive)
REMARK    1  A    between atoms: C_2  and  O_3 
REMARK    2  A    between atoms: O_3  and  C_4 
REMARK    3  A    between atoms: C_7  and  N_8 
REMARK    4  A    between atoms: C_9  and  C_11 
REMARK    5  A    between atoms: C_9  and  O_10 
REMARK       I    between atoms: C_11  and  N_12 
REMARK    6  A    between atoms: N_12  and  C_13 
ROOT
HETATM    1  N   UNL     1       5.491  27.001  52.207  1.00  0.00    -0.254 N 
HETATM    2  C   UNL     1       5.501  28.321  52.862  1.00  0.00     0.256 C 
HETATM    3  C   UNL     1       4.435  29.284  52.378  1.00  0.00     0.035 A 
HETATM    4  C   UNL     1       3.686  28.955  51.257  1.00  0.00     0.048 A 
HETATM    5  N   UNL     1       3.906  27.739  50.634  1.00  0.00    -0.308 N 
HETATM    6  C   UNL     1       4.732  26.754  51.077  1.00  0.00     0.330 C 
HETATM    7  O   UNL     1       4.767  25.714  50.418  1.00  0.00    -0.246 OA
HETATM    8  C   UNL     1       4.195  30.523  53.002  1.00  0.00     0.034 A 
HETATM    9  C   UNL     1       3.208  31.380  52.512  1.00  0.00     0.011 A 
HETATM   10 BR   UNL     1       2.873  33.022  53.386  1.00  0.00    -0.051 Br
HETATM   11  C   UNL     1       2.468  31.035  51.386  1.00  0.00     0.021 A 
HETATM   12  C   UNL     1       2.713  29.819  50.750  1.00  0.00     0.031 A 
HETATM   13  H   UNL     1       3.371  27.486  49.812  1.00  0.00     0.170 HD
ENDROOT
BRANCH   1  14
HETATM   14  C   UNL     1       6.196  25.910  52.832  1.00  0.00     0.043 A 
HETATM   15  C   UNL     1       5.600  25.094  53.802  1.00  0.00     0.032 A 
HETATM   16  C   UNL     1       6.285  23.993  54.329  1.00  0.00     0.039 A 
HETATM   17  C   UNL     1       7.559  23.661  53.873  1.00  0.00     0.068 A 
HETATM   18  C   UNL     1       8.172  24.475  52.925  1.00  0.00     0.039 A 
HETATM   19  C   UNL     1       7.497  25.594  52.418  1.00  0.00     0.032 A 
BRANCH  17  20
HETATM   20  O   UNL     1       8.104  22.541  54.434  1.00  0.00    -0.352 OA
BRANCH  20  21
HETATM   21  C   UNL     1       8.890  21.722  53.567  1.00  0.00     0.171 C 
HETATM   22  C   UNL     1       8.016  20.581  53.080  1.00  0.00     0.034 C 
ENDBRANCH  20  21
ENDBRANCH  17  20
ENDBRANCH   1  14
BRANCH   2  23
HETATM   23  C   UNL     1       5.320  28.128  54.430  1.00  0.00     0.279 C 
HETATM   24  N   UNL     1       6.518  28.251  55.127  1.00  0.00    -0.352 N 
HETATM   25  H   UNL     1       7.347  28.463  54.577  1.00  0.00     0.163 HD
HETATM   26  O   UNL     1       4.243  27.883  54.969  1.00  0.00    -0.268 OA
BRANCH  24  27
HETATM   27  C   UNL     1       6.639  27.998  56.523  1.00  0.00     0.084 A 
HETATM   28  C   UNL     1       6.904  26.613  57.048  1.00  0.00     0.027 A 
HETATM   29  C   UNL     1       7.981  27.653  57.112  1.00  0.00     0.027 A 
ENDBRANCH  24  27
ENDBRANCH   2  23
BRANCH   2  30
HETATM   30  O   UNL     1       6.742  28.944  52.520  1.00  0.00    -0.359 OA
HETATM   31  H   UNL     1       6.615  29.189  51.586  1.00  0.00     0.213 HD
ENDBRANCH   2  30
TORSDOF 6
ENDMDL
MODEL 7
REMARK VINA RESULT:      -7.6      3.240      7.426
REMARK  6 active torsions:
REMARK  status: ('A' for Active; 'I' for Inactive)
REMARK    1  A    between atoms: C_2  and  O_3 
REMARK    2  A    between atoms: O_3  and  C_4 
REMARK    3  A    between atoms: C_7  and  N_8 
REMARK    4  A    between atoms: C_9  and  C_11 
REMARK    5  A    between atoms: C_9  and  O_10 
REMARK       I    between atoms: C_11  and  N_12 
REMARK    6  A    between atoms: N_12  and  C_13 
ROOT
HETATM    1  N   UNL     1       7.149  26.224  56.249  1.00  0.00    -0.254 N 
HETATM    2  C   UNL     1       7.273  25.463  54.994  1.00  0.00     0.256 C 
HETATM    3  C   UNL     1       7.649  24.004  55.164  1.00  0.00     0.035 A 
HETATM    4  C   UNL     1       8.041  23.549  56.416  1.00  0.00     0.048 A 
HETATM    5  N   UNL     1       8.039  24.431  57.483  1.00  0.00    -0.308 N 
HETATM    6  C   UNL     1       7.582  25.711  57.459  1.00  0.00     0.330 C 
HETATM    7  O   UNL     1       7.613  26.336  58.520  1.00  0.00    -0.246 OA
HETATM    8  C   UNL     1       7.653  23.093  54.091  1.00  0.00     0.034 A 
HETATM    9  C   UNL     1       8.017  21.762  54.297  1.00  0.00     0.011 A 
HETATM   10 BR   UNL     1       7.978  20.544  52.852  1.00  0.00    -0.051 Br
HETATM   11  C   UNL     1       8.408  21.323  55.558  1.00  0.00     0.021 A 
HETATM   12  C   UNL     1       8.428  22.223  56.622  1.00  0.00     0.031 A 
HETATM   13  H   UNL     1       8.326  24.115  58.401  1.00  0.00     0.170 HD
ENDROOT
BRANCH   1  14
HETATM   14  C   UNL     1       6.450  27.485  56.231  1.00  0.00     0.043 A 
HETATM   15  C   UNL     1       5.109  27.600  56.619  1.00  0.00     0.032 A 
HETATM   16  C   UNL     1       4.484  28.852  56.668  1.00  0.00     0.039 A 
HETATM   17  C   UNL     1       5.192  30.014  56.370  1.00  0.00     0.068 A 
HETATM   18  C   UNL     1       6.519  29.913  55.963  1.00  0.00     0.039 A 
HETATM   19  C   UNL     1       7.136  28.658  55.887  1.00  0.00     0.032 A 
BRANCH  17  20
HETATM   20  O   UNL     1       4.483  31.175  56.495  1.00  0.00    -0.352 OA
BRANCH  20  21
HETATM   21  C   UNL     1       4.442  32.015  55.340  1.00  0.00     0.171 C 
HETATM   22  C   UNL     1       3.346  31.500  54.426  1.00  0.00     0.034 C 
ENDBRANCH  20  21
ENDBRANCH  17  20
ENDBRANCH   1  14
BRANCH   2  23
HETATM   23  C   UNL     1       5.895  25.530  54.203  1.00  0.00     0.279 C 
HETATM   24  N   UNL     1       5.900  26.492  53.198  1.00  0.00    -0.352 N 
HETATM   25  H   UNL     1       6.762  27.016  53.071  1.00  0.00     0.163 HD
HETATM   26  O   UNL     1       4.924  24.821  54.460  1.00  0.00    -0.268 OA
BRANCH  24  27
HETATM   27  C   UNL     1       4.747  26.830  52.434  1.00  0.00     0.084 A 
HETATM   28  C   UNL     1       3.860  27.982  52.822  1.00  0.00     0.027 A 
HETATM   29  C   UNL     1       4.732  28.089  51.609  1.00  0.00     0.027 A 
ENDBRANCH  24  27
ENDBRANCH   2  23
BRANCH   2  30
HETATM   30  O   UNL     1       8.359  26.040  54.265  1.00  0.00    -0.359 OA
HETATM   31  H   UNL     1       8.611  26.804  54.812  1.00  0.00     0.213 HD
ENDBRANCH   2  30
TORSDOF 6
ENDMDL
MODEL 8
REMARK VINA RESULT:      -7.6      3.963      7.430
REMARK  6 active torsions:
REMARK  status: ('A' for Active; 'I' for Inactive)
REMARK    1  A    between atoms: C_2  and  O_3 
REMARK    2  A    between atoms: O_3  and  C_4 
REMARK    3  A    between atoms: C_7  and  N_8 
REMARK    4  A    between atoms: C_9  and  C_11 
REMARK    5  A    between atoms: C_9  and  O_10 
REMARK       I    between atoms: C_11  and  N_12 
REMARK    6  A    between atoms: N_12  and  C_13 
ROOT
HETATM    1  N   UNL     1       5.922  27.002  53.564  1.00  0.00    -0.254 N 
HETATM    2  C   UNL     1       6.475  25.890  52.771  1.00  0.00     0.256 C 
HETATM    3  C   UNL     1       6.884  24.671  53.575  1.00  0.00     0.035 A 
HETATM    4  C   UNL     1       6.909  24.753  54.960  1.00  0.00     0.048 A 
HETATM    5  N   UNL     1       6.521  25.933  55.572  1.00  0.00    -0.308 N 
HETATM    6  C   UNL     1       6.002  27.023  54.946  1.00  0.00     0.330 C 
HETATM    7  O   UNL     1       5.666  27.970  55.658  1.00  0.00    -0.246 OA
HETATM    8  C   UNL     1       7.278  23.463  52.970  1.00  0.00     0.034 A 
HETATM    9  C   UNL     1       7.656  22.372  53.753  1.00  0.00     0.011 A 
HETATM   10 BR   UNL     1       8.144  20.745  52.924  1.00  0.00    -0.051 Br
HETATM   11  C   UNL     1       7.677  22.472  55.141  1.00  0.00     0.021 A 
HETATM   12  C   UNL     1       7.308  23.672  55.748  1.00  0.00     0.031 A 
HETATM   13  H   UNL     1       6.538  26.009  56.581  1.00  0.00     0.170 HD
ENDROOT
BRANCH   1  14
HETATM   14  C   UNL     1       5.173  28.032  52.890  1.00  0.00     0.043 A 
HETATM   15  C   UNL     1       5.778  28.945  52.017  1.00  0.00     0.032 A 
HETATM   16  C   UNL     1       5.010  29.882  51.315  1.00  0.00     0.039 A 
HETATM   17  C   UNL     1       3.622  29.900  51.439  1.00  0.00     0.068 A 
HETATM   18  C   UNL     1       3.008  29.013  52.318  1.00  0.00     0.039 A 
HETATM   19  C   UNL     1       3.781  28.095  53.042  1.00  0.00     0.032 A 
BRANCH  17  20
HETATM   20  O   UNL     1       2.982  30.832  50.671  1.00  0.00    -0.352 OA
BRANCH  20  21
HETATM   21  C   UNL     1       2.395  30.352  49.460  1.00  0.00     0.171 C 
HETATM   22  C   UNL     1       0.908  30.650  49.511  1.00  0.00     0.034 C 
ENDBRANCH  20  21
ENDBRANCH  17  20
ENDBRANCH   1  14
BRANCH   2  23
HETATM   23  C   UNL     1       5.400  25.433  51.691  1.00  0.00     0.279 C 
HETATM   24  N   UNL     1       5.583  26.051  50.459  1.00  0.00    -0.352 N 
HETATM   25  H   UNL     1       6.369  26.690  50.380  1.00  0.00     0.163 HD
HETATM   26  O   UNL     1       4.496  24.633  51.922  1.00  0.00    -0.268 OA
BRANCH  24  27
HETATM   27  C   UNL     1       4.678  25.903  49.369  1.00  0.00     0.084 A 
HETATM   28  C   UNL     1       3.554  26.877  49.146  1.00  0.00     0.027 A 
HETATM   29  C   UNL     1       4.727  26.867  48.214  1.00  0.00     0.027 A 
ENDBRANCH  24  27
ENDBRANCH   2  23
BRANCH   2  30
HETATM   30  O   UNL     1       7.686  26.365  52.180  1.00  0.00    -0.359 OA
HETATM   31  H   UNL     1       7.816  25.762  51.427  1.00  0.00     0.213 HD
ENDBRANCH   2  30
TORSDOF 6
ENDMDL
MODEL 9
REMARK VINA RESULT:      -7.4      2.468      4.589
REMARK  6 active torsions:
REMARK  status: ('A' for Active; 'I' for Inactive)
REMARK    1  A    between atoms: C_2  and  O_3 
REMARK    2  A    between atoms: O_3  and  C_4 
REMARK    3  A    between atoms: C_7  and  N_8 
REMARK    4  A    between atoms: C_9  and  C_11 
REMARK    5  A    between atoms: C_9  and  O_10 
REMARK       I    between atoms: C_11  and  N_12 
REMARK    6  A    between atoms: N_12  and  C_13 
ROOT
HETATM    1  N   UNL     1       8.171  28.731  56.091  1.00  0.00    -0.254 N 
HETATM    2  C   UNL     1       7.715  28.925  57.479  1.00  0.00     0.256 C 
HETATM    3  C   UNL     1       8.474  29.980  58.260  1.00  0.00     0.035 A 
HETATM    4  C   UNL     1       9.630  30.522  57.716  1.00  0.00     0.048 A 
HETATM    5  N   UNL     1      10.037  30.114  56.458  1.00  0.00    -0.308 N 
HETATM    6  C   UNL     1       9.349  29.288  55.626  1.00  0.00     0.330 C 
HETATM    7  O   UNL     1       9.842  29.072  54.519  1.00  0.00    -0.246 OA
HETATM    8  C   UNL     1       8.072  30.410  59.539  1.00  0.00     0.034 A 
HETATM    9  C   UNL     1       8.810  31.376  60.223  1.00  0.00     0.011 A 
HETATM   10 BR   UNL     1       8.234  31.970  61.923  1.00  0.00    -0.051 Br
HETATM   11  C   UNL     1       9.968  31.908  59.664  1.00  0.00     0.021 A 
HETATM   12  C   UNL     1      10.384  31.473  58.407  1.00  0.00     0.031 A 
HETATM   13  H   UNL     1      10.881  30.497  56.050  1.00  0.00     0.170 HD
ENDROOT
BRANCH   1  14
HETATM   14  C   UNL     1       7.306  28.044  55.166  1.00  0.00     0.043 A 
HETATM   15  C   UNL     1       6.479  28.730  54.267  1.00  0.00     0.032 A 
HETATM   16  C   UNL     1       5.712  28.032  53.326  1.00  0.00     0.039 A 
HETATM   17  C   UNL     1       5.784  26.643  53.237  1.00  0.00     0.068 A 
HETATM   18  C   UNL     1       6.585  25.948  54.136  1.00  0.00     0.039 A 
HETATM   19  C   UNL     1       7.330  26.644  55.097  1.00  0.00     0.032 A 
BRANCH  17  20
HETATM   20  O   UNL     1       5.020  26.084  52.250  1.00  0.00    -0.352 OA
BRANCH  20  21
HETATM   21  C   UNL     1       5.660  25.906  50.986  1.00  0.00     0.171 C 
HETATM   22  C   UNL     1       4.720  26.418  49.909  1.00  0.00     0.034 C 
ENDBRANCH  20  21
ENDBRANCH  17  20
ENDBRANCH   1  14
BRANCH   2  23
HETATM   23  C   UNL     1       6.176  29.325  57.473  1.00  0.00     0.279 C 
HETATM   24  N   UNL     1       5.976  30.686  57.264  1.00  0.00    -0.352 N 
HETATM   25  H   UNL     1       6.808  31.254  57.124  1.00  0.00     0.163 HD
HETATM   26  O   UNL     1       5.260  28.523  57.648  1.00  0.00    -0.268 OA
BRANCH  24  27
HETATM   27  C   UNL     1       4.697  31.308  57.339  1.00  0.00     0.084 A 
HETATM   28  C   UNL     1       4.071  31.653  58.663  1.00  0.00     0.027 A 
HETATM   29  C   UNL     1       4.584  32.745  57.773  1.00  0.00     0.027 A 
ENDBRANCH  24  27
ENDBRANCH   2  23
BRANCH   2  30
HETATM   30  O   UNL     1       7.966  27.701  58.173  1.00  0.00    -0.359 OA
HETATM   31  H   UNL     1       7.072  27.363  58.354  1.00  0.00     0.213 HD
ENDBRANCH   2  30
TORSDOF 6
ENDMDL
MODEL 10
REMARK VINA RESULT:      -7.4      2.930      6.755
REMARK  6 active torsions:
REMARK  status: ('A' for Active; 'I' for Inactive)
REMARK    1  A    between atoms: C_2  and  O_3 
REMARK    2  A    between atoms: O_3  and  C_4 
REMARK    3  A    between atoms: C_7  and  N_8 
REMARK    4  A    between atoms: C_9  and  C_11 
REMARK    5  A    between atoms: C_9  and  O_10 
REMARK       I    between atoms: C_11  and  N_12 
REMARK    6  A    between atoms: N_12  and  C_13 
ROOT
HETATM    1  N   UNL     1       5.482  27.921  54.788  1.00  0.00    -0.254 N 
HETATM    2  C   UNL     1       5.999  26.692  55.416  1.00  0.00     0.256 C 
HETATM    3  C   UNL     1       6.734  25.754  54.478  1.00  0.00     0.035 A 
HETATM    4  C   UNL     1       6.695  25.997  53.113  1.00  0.00     0.048 A 
HETATM    5  N   UNL     1       6.019  27.111  52.646  1.00  0.00    -0.308 N 
HETATM    6  C   UNL     1       5.457  28.082  53.414  1.00  0.00     0.330 C 
HETATM    7  O   UNL     1       4.936  29.030  52.825  1.00  0.00    -0.246 OA
HETATM    8  C   UNL     1       7.430  24.619  54.936  1.00  0.00     0.034 A 
HETATM    9  C   UNL     1       8.083  23.780  54.031  1.00  0.00     0.011 A 
HETATM   10 BR   UNL     1       9.046  22.283  54.667  1.00  0.00    -0.051 Br
HETATM   11  C   UNL     1       8.032  24.038  52.665  1.00  0.00     0.021 A 
HETATM   12  C   UNL     1       7.328  25.148  52.202  1.00  0.00     0.031 A 
HETATM   13  H   UNL     1       5.977  27.299  51.652  1.00  0.00     0.170 HD
ENDROOT
BRANCH   1  14
HETATM   14  C   UNL     1       5.107  29.028  55.632  1.00  0.00     0.043 A 
HETATM   15  C   UNL     1       5.942  30.135  55.826  1.00  0.00     0.032 A 
HETATM   16  C   UNL     1       5.514  31.230  56.586  1.00  0.00     0.039 A 
HETATM   17  C   UNL     1       4.233  31.259  57.134  1.00  0.00     0.068 A 
HETATM   18  C   UNL     1       3.400  30.156  56.967  1.00  0.00     0.039 A 
HETATM   19  C   UNL     1       3.840  29.049  56.231  1.00  0.00     0.032 A 
BRANCH  17  20
HETATM   20  O   UNL     1       3.919  32.399  57.818  1.00  0.00    -0.352 OA
BRANCH  20  21
HETATM   21  C   UNL     1       3.641  32.241  59.210  1.00  0.00     0.171 C 
HETATM   22  C   UNL     1       4.780  32.872  59.990  1.00  0.00     0.034 C 
ENDBRANCH  20  21
ENDBRANCH  17  20
ENDBRANCH   1  14
BRANCH   2  23
HETATM   23  C   UNL     1       6.986  27.085  56.599  1.00  0.00     0.279 C 
HETATM   24  N   UNL     1       8.034  27.896  56.176  1.00  0.00    -0.352 N 
HETATM   25  H   UNL     1       8.042  28.157  55.193  1.00  0.00     0.163 HD
HETATM   26  O   UNL     1       6.850  26.702  57.759  1.00  0.00    -0.268 OA
BRANCH  24  27
HETATM   27  C   UNL     1       9.115  28.279  57.020  1.00  0.00     0.084 A 
HETATM   28  C   UNL     1      10.074  29.367  56.619  1.00  0.00     0.027 A 
HETATM   29  C   UNL     1       9.088  29.612  57.720  1.00  0.00     0.027 A 
ENDBRANCH  24  27
ENDBRANCH   2  23
BRANCH   2  30
HETATM   30  O   UNL     1       4.864  25.948  55.865  1.00  0.00    -0.359 OA
HETATM   31  H   UNL     1       5.243  25.351  56.534  1.00  0.00     0.213 HD
ENDBRANCH   2  30
TORSDOF 6
ENDMDL
