MODEL 1
REMARK VINA RESULT:     -10.9      0.000      0.000
REMARK  8 active torsions:
REMARK  status: ('A' for Active; 'I' for Inactive)
REMARK    1  A    between atoms: C_2  and  C_3 
REMARK    2  A    between atoms: C_6  and  N_7 
REMARK       I    between atoms: N_7  and  C_8 
REMARK    3  A    between atoms: C_8  and  O_9 
REMARK    4  A    between atoms: O_9  and  C_10 
REMARK    5  A    between atoms: C_13  and  N_14 
REMARK       I    between atoms: N_14  and  C_15 
REMARK    6  A    between atoms: C_15  and  C_16 
REMARK    7  A    between atoms: N_19  and  C_20 
REMARK    8  A    between atoms: C_22  and  C_23 
ROOT
HETATM    1  C   UNL     1       7.874  30.408  57.334  1.00  0.00     0.189 C 
HETATM    2  C   UNL     1       7.862  29.282  56.295  1.00  0.00     0.184 C 
HETATM    3  C   UNL     1       6.538  28.553  56.514  1.00  0.00     0.177 C 
HETATM    4  C   UNL     1       6.917  27.081  56.586  1.00  0.00     0.139 C 
HETATM    5  C   UNL     1       8.334  27.178  57.140  1.00  0.00     0.196 C 
HETATM    6  O   UNL     1       8.921  28.320  56.496  1.00  0.00    -0.378 OA
HETATM    7  O   UNL     1       6.029  28.999  57.786  1.00  0.00    -0.378 OA
HETATM    8  C   UNL     1       6.481  30.351  57.941  1.00  0.00     0.203 C 
ENDROOT
BRANCH   4   9
HETATM    9  N   UNL     1       6.918  26.400  55.290  1.00  0.00    -0.351 N 
HETATM   10  C   UNL     1       6.796  25.032  55.182  1.00  0.00     0.222 C 
HETATM   11  O   UNL     1       6.448  24.318  56.115  1.00  0.00    -0.273 OA
HETATM   12  H   UNL     1       7.327  26.900  54.509  1.00  0.00     0.163 HD
BRANCH  10  13
HETATM   13  C   UNL     1       7.194  24.498  53.807  1.00  0.00     0.081 C 
HETATM   14  C   UNL     1       6.008  23.877  53.058  1.00  0.00     0.034 C 
HETATM   15  C   UNL     1       5.101  24.915  52.396  1.00  0.00     0.142 C 
HETATM   16  N   UNL     1       5.921  25.818  51.590  1.00  0.00    -0.214 N 
HETATM   17  C   UNL     1       6.941  26.556  52.324  1.00  0.00     0.142 C 
HETATM   18  C   UNL     1       7.909  25.556  52.957  1.00  0.00     0.034 C 
BRANCH  16  19
HETATM   19  C   UNL     1       5.252  26.514  50.591  1.00  0.00     0.724 A 
HETATM   20  N   UNL     1       4.367  25.854  49.828  1.00  0.00    -0.058 NA
HETATM   21  C   UNL     1       3.781  26.500  48.785  1.00  0.00     0.160 A 
HETATM   22  C   UNL     1       4.075  27.816  48.492  1.00  0.00     0.057 A 
HETATM   23  C   UNL     1       4.977  28.422  49.323  1.00  0.00     0.139 A 
HETATM   24  N   UNL     1       5.568  27.798  50.358  1.00  0.00    -0.075 NA
BRANCH  21  25
HETATM   25  C   UNL     1       2.824  25.738  47.888  1.00  0.00     0.435 C 
HETATM   26  F   UNL     1       2.735  24.406  48.160  1.00  0.00    -0.165 F 
HETATM   27  F   UNL     1       1.545  26.214  47.969  1.00  0.00    -0.165 F 
HETATM   28  F   UNL     1       3.159  25.832  46.569  1.00  0.00    -0.165 F 
ENDBRANCH  21  25
ENDBRANCH  16  19
ENDBRANCH  10  13
ENDBRANCH   4   9
BRANCH   1  29
HETATM   29  O   UNL     1       8.844  30.149  58.368  1.00  0.00    -0.293 OA
BRANCH  29  30
HETATM   30  C   UNL     1       9.854  31.048  58.443  1.00  0.00     0.365 C 
HETATM   31  N   UNL     1       9.791  31.938  59.482  1.00  0.00    -0.303 N 
HETATM   32  H   UNL     1      10.594  32.553  59.468  1.00  0.00     0.171 HD
HETATM   33  O   UNL     1      10.794  31.092  57.655  1.00  0.00    -0.238 OA
BRANCH  31  34
HETATM   34  C   UNL     1       8.936  32.037  60.594  1.00  0.00     0.036 A 
HETATM   35  C   UNL     1       9.159  31.442  61.836  1.00  0.00     0.030 A 
HETATM   36  C   UNL     1       8.284  31.670  62.910  1.00  0.00     0.017 A 
HETATM   37  C   UNL     1       7.166  32.490  62.747  1.00  0.00     0.009 A 
HETATM   38  C   UNL     1       6.909  33.050  61.493  1.00  0.00     0.017 A 
HETATM   39  C   UNL     1       7.788  32.824  60.428  1.00  0.00     0.030 A 
BRANCH  37  40
HETATM   40  C   UNL     1       6.234  32.798  63.868  1.00  0.00     0.155 C 
HETATM   41  C   UNL     1       6.642  33.825  64.892  1.00  0.00     0.096 C 
HETATM   42  O   UNL     1       5.150  32.222  63.939  1.00  0.00    -0.293 OA
ENDBRANCH  37  40
ENDBRANCH  31  34
ENDBRANCH  29  30
ENDBRANCH   1  29
TORSDOF 8
ENDMDL
MODEL 2
REMARK VINA RESULT:     -10.6      3.594      5.097
REMARK  8 active torsions:
REMARK  status: ('A' for Active; 'I' for Inactive)
REMARK    1  A    between atoms: C_2  and  C_3 
REMARK    2  A    between atoms: C_6  and  N_7 
REMARK       I    between atoms: N_7  and  C_8 
REMARK    3  A    between atoms: C_8  and  O_9 
REMARK    4  A    between atoms: O_9  and  C_10 
REMARK    5  A    between atoms: C_13  and  N_14 
REMARK       I    between atoms: N_14  and  C_15 
REMARK    6  A    between atoms: C_15  and  C_16 
REMARK    7  A    between atoms: N_19  and  C_20 
REMARK    8  A    between atoms: C_22  and  C_23 
ROOT
HETATM    1  C   UNL     1       7.375  31.649  58.876  1.00  0.00     0.189 C 
HETATM    2  C   UNL     1       7.383  30.773  57.619  1.00  0.00     0.184 C 
HETATM    3  C   UNL     1       5.999  30.954  56.999  1.00  0.00     0.177 C 
HETATM    4  C   UNL     1       5.509  29.540  56.729  1.00  0.00     0.139 C 
HETATM    5  C   UNL     1       6.233  28.772  57.828  1.00  0.00     0.196 C 
HETATM    6  O   UNL     1       7.539  29.367  57.916  1.00  0.00    -0.378 OA
HETATM    7  O   UNL     1       5.179  31.583  58.004  1.00  0.00    -0.378 OA
HETATM    8  C   UNL     1       6.060  32.407  58.778  1.00  0.00     0.203 C 
ENDROOT
BRANCH   4   9
HETATM    9  N   UNL     1       5.879  29.022  55.410  1.00  0.00    -0.351 N 
HETATM   10  C   UNL     1       4.959  28.431  54.571  1.00  0.00     0.222 C 
HETATM   11  O   UNL     1       3.749  28.504  54.752  1.00  0.00    -0.273 OA
HETATM   12  H   UNL     1       6.859  28.812  55.257  1.00  0.00     0.163 HD
BRANCH  10  13
HETATM   13  C   UNL     1       5.602  27.636  53.437  1.00  0.00     0.081 C 
HETATM   14  C   UNL     1       7.130  27.577  53.559  1.00  0.00     0.034 C 
HETATM   15  C   UNL     1       7.616  26.537  54.568  1.00  0.00     0.142 C 
HETATM   16  N   UNL     1       6.982  25.254  54.269  1.00  0.00    -0.214 N 
HETATM   17  C   UNL     1       5.526  25.249  54.327  1.00  0.00     0.142 C 
HETATM   18  C   UNL     1       4.992  26.236  53.289  1.00  0.00     0.034 C 
BRANCH  16  19
HETATM   19  C   UNL     1       7.625  24.129  54.772  1.00  0.00     0.724 A 
HETATM   20  N   UNL     1       7.729  23.043  53.991  1.00  0.00    -0.058 NA
HETATM   21  C   UNL     1       8.267  21.906  54.507  1.00  0.00     0.160 A 
HETATM   22  C   UNL     1       8.707  21.842  55.813  1.00  0.00     0.057 A 
HETATM   23  C   UNL     1       8.579  22.994  56.541  1.00  0.00     0.139 A 
HETATM   24  N   UNL     1       8.048  24.126  56.047  1.00  0.00    -0.075 NA
BRANCH  21  25
HETATM   25  C   UNL     1       8.332  20.661  53.642  1.00  0.00     0.435 C 
HETATM   26  F   UNL     1       8.477  19.498  54.336  1.00  0.00    -0.165 F 
HETATM   27  F   UNL     1       7.208  20.497  52.882  1.00  0.00    -0.165 F 
HETATM   28  F   UNL     1       9.365  20.700  52.751  1.00  0.00    -0.165 F 
ENDBRANCH  21  25
ENDBRANCH  16  19
ENDBRANCH  10  13
ENDBRANCH   4   9
BRANCH   1  29
HETATM   29  O   UNL     1       7.361  30.843  60.070  1.00  0.00    -0.293 OA
BRANCH  29  30
HETATM   30  C   UNL     1       8.537  30.795  60.742  1.00  0.00     0.365 C 
HETATM   31  N   UNL     1       8.560  31.421  61.960  1.00  0.00    -0.303 N 
HETATM   32  H   UNL     1       9.468  31.314  62.394  1.00  0.00     0.171 HD
HETATM   33  O   UNL     1       9.542  30.227  60.326  1.00  0.00    -0.238 OA
BRANCH  31  34
HETATM   34  C   UNL     1       7.551  32.014  62.739  1.00  0.00     0.036 A 
HETATM   35  C   UNL     1       6.183  31.785  62.594  1.00  0.00     0.030 A 
HETATM   36  C   UNL     1       5.259  32.363  63.477  1.00  0.00     0.017 A 
HETATM   37  C   UNL     1       5.696  33.191  64.514  1.00  0.00     0.009 A 
HETATM   38  C   UNL     1       7.061  33.465  64.635  1.00  0.00     0.017 A 
HETATM   39  C   UNL     1       7.978  32.880  63.755  1.00  0.00     0.030 A 
BRANCH  37  40
HETATM   40  C   UNL     1       4.759  33.792  65.504  1.00  0.00     0.155 C 
HETATM   41  C   UNL     1       5.286  34.186  66.859  1.00  0.00     0.096 C 
HETATM   42  O   UNL     1       3.580  33.965  65.203  1.00  0.00    -0.293 OA
ENDBRANCH  37  40
ENDBRANCH  31  34
ENDBRANCH  29  30
ENDBRANCH   1  29
TORSDOF 8
ENDMDL
MODEL 3
REMARK VINA RESULT:     -10.4      6.757     12.940
REMARK  8 active torsions:
REMARK  status: ('A' for Active; 'I' for Inactive)
REMARK    1  A    between atoms: C_2  and  C_3 
REMARK    2  A    between atoms: C_6  and  N_7 
REMARK       I    between atoms: N_7  and  C_8 
REMARK    3  A    between atoms: C_8  and  O_9 
REMARK    4  A    between atoms: O_9  and  C_10 
REMARK    5  A    between atoms: C_13  and  N_14 
REMARK       I    between atoms: N_14  and  C_15 
REMARK    6  A    between atoms: C_15  and  C_16 
REMARK    7  A    between atoms: N_19  and  C_20 
REMARK    8  A    between atoms: C_22  and  C_23 
ROOT
HETATM    1  C   UNL     1       6.492  27.346  55.983  1.00  0.00     0.189 C 
HETATM    2  C   UNL     1       7.052  27.942  57.278  1.00  0.00     0.184 C 
HETATM    3  C   UNL     1       6.413  29.324  57.388  1.00  0.00     0.177 C 
HETATM    4  C   UNL     1       7.575  30.265  57.669  1.00  0.00     0.139 C 
HETATM    5  C   UNL     1       8.713  29.528  56.974  1.00  0.00     0.196 C 
HETATM    6  O   UNL     1       8.484  28.133  57.235  1.00  0.00    -0.378 OA
HETATM    7  O   UNL     1       5.837  29.614  56.100  1.00  0.00    -0.378 OA
HETATM    8  C   UNL     1       5.437  28.352  55.551  1.00  0.00     0.203 C 
ENDROOT
BRANCH   4   9
HETATM    9  N   UNL     1       7.870  30.440  59.093  1.00  0.00    -0.351 N 
HETATM   10  C   UNL     1       7.277  31.429  59.848  1.00  0.00     0.222 C 
HETATM   11  O   UNL     1       6.306  32.069  59.462  1.00  0.00    -0.273 OA
HETATM   12  H   UNL     1       8.739  30.046  59.434  1.00  0.00     0.163 HD
BRANCH  10  13
HETATM   13  C   UNL     1       7.985  31.680  61.177  1.00  0.00     0.081 C 
HETATM   14  C   UNL     1       8.080  33.174  61.514  1.00  0.00     0.034 C 
HETATM   15  C   UNL     1       6.787  33.746  62.092  1.00  0.00     0.142 C 
HETATM   16  N   UNL     1       6.348  32.901  63.202  1.00  0.00    -0.214 N 
HETATM   17  C   UNL     1       6.078  31.511  62.858  1.00  0.00     0.142 C 
HETATM   18  C   UNL     1       7.365  30.879  62.328  1.00  0.00     0.034 C 
BRANCH  16  19
HETATM   19  C   UNL     1       5.478  33.495  64.108  1.00  0.00     0.724 A 
HETATM   20  N   UNL     1       5.900  33.704  65.365  1.00  0.00    -0.058 NA
HETATM   21  C   UNL     1       5.026  34.192  66.284  1.00  0.00     0.160 A 
HETATM   22  C   UNL     1       3.717  34.477  65.957  1.00  0.00     0.057 A 
HETATM   23  C   UNL     1       3.367  34.250  64.654  1.00  0.00     0.139 A 
HETATM   24  N   UNL     1       4.218  33.765  63.732  1.00  0.00    -0.075 NA
BRANCH  21  25
HETATM   25  C   UNL     1       5.487  34.374  67.718  1.00  0.00     0.435 C 
HETATM   26  F   UNL     1       4.843  33.585  68.623  1.00  0.00    -0.165 F 
HETATM   27  F   UNL     1       6.818  34.101  67.875  1.00  0.00    -0.165 F 
HETATM   28  F   UNL     1       5.330  35.657  68.157  1.00  0.00    -0.165 F 
ENDBRANCH  21  25
ENDBRANCH  16  19
ENDBRANCH  10  13
ENDBRANCH   4   9
BRANCH   1  29
HETATM   29  O   UNL     1       7.508  27.269  54.964  1.00  0.00    -0.293 OA
BRANCH  29  30
HETATM   30  C   UNL     1       7.042  27.209  53.694  1.00  0.00     0.365 C 
HETATM   31  N   UNL     1       7.071  25.975  53.100  1.00  0.00    -0.303 N 
HETATM   32  H   UNL     1       6.686  26.025  52.166  1.00  0.00     0.171 HD
HETATM   33  O   UNL     1       6.602  28.175  53.078  1.00  0.00    -0.238 OA
BRANCH  31  34
HETATM   34  C   UNL     1       7.377  24.695  53.593  1.00  0.00     0.036 A 
HETATM   35  C   UNL     1       7.088  24.237  54.879  1.00  0.00     0.030 A 
HETATM   36  C   UNL     1       7.360  22.910  55.248  1.00  0.00     0.017 A 
HETATM   37  C   UNL     1       7.939  22.028  54.333  1.00  0.00     0.009 A 
HETATM   38  C   UNL     1       8.277  22.493  53.059  1.00  0.00     0.017 A 
HETATM   39  C   UNL     1       7.997  23.815  52.695  1.00  0.00     0.030 A 
BRANCH  37  40
HETATM   40  C   UNL     1       8.206  20.599  54.663  1.00  0.00     0.155 C 
HETATM   41  C   UNL     1       8.048  20.142  56.091  1.00  0.00     0.096 C 
HETATM   42  O   UNL     1       8.541  19.818  53.776  1.00  0.00    -0.293 OA
ENDBRANCH  37  40
ENDBRANCH  31  34
ENDBRANCH  29  30
ENDBRANCH   1  29
TORSDOF 8
ENDMDL
MODEL 4
REMARK VINA RESULT:     -10.2      4.132      6.276
REMARK  8 active torsions:
REMARK  status: ('A' for Active; 'I' for Inactive)
REMARK    1  A    between atoms: C_2  and  C_3 
REMARK    2  A    between atoms: C_6  and  N_7 
REMARK       I    between atoms: N_7  and  C_8 
REMARK    3  A    between atoms: C_8  and  O_9 
REMARK    4  A    between atoms: O_9  and  C_10 
REMARK    5  A    between atoms: C_13  and  N_14 
REMARK       I    between atoms: N_14  and  C_15 
REMARK    6  A    between atoms: C_15  and  C_16 
REMARK    7  A    between atoms: N_19  and  C_20 
REMARK    8  A    between atoms: C_22  and  C_23 
ROOT
HETATM    1  C   UNL     1       3.204  34.366  58.841  1.00  0.00     0.189 C 
HETATM    2  C   UNL     1       4.269  33.265  58.841  1.00  0.00     0.184 C 
HETATM    3  C   UNL     1       4.131  32.577  57.485  1.00  0.00     0.177 C 
HETATM    4  C   UNL     1       4.075  31.092  57.809  1.00  0.00     0.139 C 
HETATM    5  C   UNL     1       3.451  31.127  59.199  1.00  0.00     0.196 C 
HETATM    6  O   UNL     1       4.040  32.262  59.856  1.00  0.00    -0.378 OA
HETATM    7  O   UNL     1       2.875  33.014  56.930  1.00  0.00    -0.378 OA
HETATM    8  C   UNL     1       2.666  34.345  57.419  1.00  0.00     0.203 C 
ENDROOT
BRANCH   4   9
HETATM    9  N   UNL     1       5.386  30.440  57.851  1.00  0.00    -0.351 N 
HETATM   10  C   UNL     1       5.948  29.857  56.736  1.00  0.00     0.222 C 
HETATM   11  O   UNL     1       5.522  30.039  55.602  1.00  0.00    -0.273 OA
HETATM   12  H   UNL     1       5.722  30.142  58.758  1.00  0.00     0.163 HD
BRANCH  10  13
HETATM   13  C   UNL     1       7.111  28.923  57.066  1.00  0.00     0.081 C 
HETATM   14  C   UNL     1       6.640  27.502  57.400  1.00  0.00     0.034 C 
HETATM   15  C   UNL     1       6.318  26.666  56.161  1.00  0.00     0.142 C 
HETATM   16  N   UNL     1       7.450  26.729  55.239  1.00  0.00    -0.214 N 
HETATM   17  C   UNL     1       7.798  28.063  54.768  1.00  0.00     0.142 C 
HETATM   18  C   UNL     1       8.186  28.921  55.972  1.00  0.00     0.034 C 
BRANCH  16  19
HETATM   19  C   UNL     1       7.526  25.703  54.304  1.00  0.00     0.724 A 
HETATM   20  N   UNL     1       7.612  24.438  54.741  1.00  0.00    -0.058 NA
HETATM   21  C   UNL     1       7.787  23.436  53.839  1.00  0.00     0.160 A 
HETATM   22  C   UNL     1       7.879  23.690  52.486  1.00  0.00     0.057 A 
HETATM   23  C   UNL     1       7.771  25.003  52.119  1.00  0.00     0.139 A 
HETATM   24  N   UNL     1       7.599  26.006  52.997  1.00  0.00    -0.075 NA
BRANCH  21  25
HETATM   25  C   UNL     1       7.941  22.012  54.338  1.00  0.00     0.435 C 
HETATM   26  F   UNL     1       7.423  21.064  53.508  1.00  0.00    -0.165 F 
HETATM   27  F   UNL     1       9.250  21.663  54.520  1.00  0.00    -0.165 F 
HETATM   28  F   UNL     1       7.345  21.817  55.550  1.00  0.00    -0.165 F 
ENDBRANCH  21  25
ENDBRANCH  16  19
ENDBRANCH  10  13
ENDBRANCH   4   9
BRANCH   1  29
HETATM   29  O   UNL     1       2.131  34.051  59.750  1.00  0.00    -0.293 OA
BRANCH  29  30
HETATM   30  C   UNL     1       1.614  35.111  60.416  1.00  0.00     0.365 C 
HETATM   31  N   UNL     1       2.249  35.459  61.579  1.00  0.00    -0.303 N 
HETATM   32  H   UNL     1       1.807  36.270  61.992  1.00  0.00     0.171 HD
HETATM   33  O   UNL     1       0.643  35.756  60.031  1.00  0.00    -0.238 OA
BRANCH  31  34
HETATM   34  C   UNL     1       3.437  35.008  62.180  1.00  0.00     0.036 A 
HETATM   35  C   UNL     1       4.717  35.481  61.887  1.00  0.00     0.030 A 
HETATM   36  C   UNL     1       5.833  35.025  62.604  1.00  0.00     0.017 A 
HETATM   37  C   UNL     1       5.682  34.077  63.619  1.00  0.00     0.009 A 
HETATM   38  C   UNL     1       4.410  33.563  63.884  1.00  0.00     0.017 A 
HETATM   39  C   UNL     1       3.300  34.026  63.170  1.00  0.00     0.030 A 
BRANCH  37  40
HETATM   40  C   UNL     1       6.830  33.596  64.437  1.00  0.00     0.155 C 
HETATM   41  C   UNL     1       7.935  32.828  63.758  1.00  0.00     0.096 C 
HETATM   42  O   UNL     1       6.866  33.834  65.642  1.00  0.00    -0.293 OA
ENDBRANCH  37  40
ENDBRANCH  31  34
ENDBRANCH  29  30
ENDBRANCH   1  29
TORSDOF 8
ENDMDL
MODEL 5
REMARK VINA RESULT:     -10.2      4.588      7.799
REMARK  8 active torsions:
REMARK  status: ('A' for Active; 'I' for Inactive)
REMARK    1  A    between atoms: C_2  and  C_3 
REMARK    2  A    between atoms: C_6  and  N_7 
REMARK       I    between atoms: N_7  and  C_8 
REMARK    3  A    between atoms: C_8  and  O_9 
REMARK    4  A    between atoms: O_9  and  C_10 
REMARK    5  A    between atoms: C_13  and  N_14 
REMARK       I    between atoms: N_14  and  C_15 
REMARK    6  A    between atoms: C_15  and  C_16 
REMARK    7  A    between atoms: N_19  and  C_20 
REMARK    8  A    between atoms: C_22  and  C_23 
ROOT
HETATM    1  C   UNL     1       6.823  28.075  55.714  1.00  0.00     0.189 C 
HETATM    2  C   UNL     1       6.715  28.331  54.207  1.00  0.00     0.184 C 
HETATM    3  C   UNL     1       5.277  27.967  53.844  1.00  0.00     0.177 C 
HETATM    4  C   UNL     1       5.405  27.055  52.634  1.00  0.00     0.139 C 
HETATM    5  C   UNL     1       6.767  26.423  52.895  1.00  0.00     0.196 C 
HETATM    6  O   UNL     1       7.584  27.478  53.429  1.00  0.00    -0.378 OA
HETATM    7  O   UNL     1       4.743  27.237  54.965  1.00  0.00    -0.378 OA
HETATM    8  C   UNL     1       5.393  27.765  56.128  1.00  0.00     0.203 C 
ENDROOT
BRANCH   4   9
HETATM    9  N   UNL     1       5.404  27.761  51.350  1.00  0.00    -0.351 N 
HETATM   10  C   UNL     1       5.138  27.117  50.161  1.00  0.00     0.222 C 
HETATM   11  O   UNL     1       4.660  25.990  50.106  1.00  0.00    -0.273 OA
HETATM   12  H   UNL     1       5.910  28.638  51.308  1.00  0.00     0.163 HD
BRANCH  10  13
HETATM   13  C   UNL     1       5.551  27.925  48.933  1.00  0.00     0.081 C 
HETATM   14  C   UNL     1       4.981  27.343  47.633  1.00  0.00     0.034 C 
HETATM   15  C   UNL     1       3.520  27.721  47.393  1.00  0.00     0.142 C 
HETATM   16  N   UNL     1       3.376  29.170  47.522  1.00  0.00    -0.214 N 
HETATM   17  C   UNL     1       3.745  29.719  48.821  1.00  0.00     0.142 C 
HETATM   18  C   UNL     1       5.221  29.416  49.079  1.00  0.00     0.034 C 
BRANCH  16  19
HETATM   19  C   UNL     1       2.258  29.724  46.911  1.00  0.00     0.724 A 
HETATM   20  N   UNL     1       1.233  28.919  46.589  1.00  0.00    -0.058 NA
HETATM   21  C   UNL     1       0.179  29.433  45.903  1.00  0.00     0.160 A 
HETATM   22  C   UNL     1       0.136  30.760  45.529  1.00  0.00     0.057 A 
HETATM   23  C   UNL     1       1.212  31.518  45.904  1.00  0.00     0.139 A 
HETATM   24  N   UNL     1       2.264  31.026  46.582  1.00  0.00    -0.075 NA
BRANCH  21  25
HETATM   25  C   UNL     1      -0.953  28.510  45.489  1.00  0.00     0.435 C 
HETATM   26  F   UNL     1      -1.283  27.570  46.418  1.00  0.00    -0.165 F 
HETATM   27  F   UNL     1      -2.110  29.191  45.229  1.00  0.00    -0.165 F 
HETATM   28  F   UNL     1      -0.674  27.825  44.342  1.00  0.00    -0.165 F 
ENDBRANCH  21  25
ENDBRANCH  16  19
ENDBRANCH  10  13
ENDBRANCH   4   9
BRANCH   1  29
HETATM   29  O   UNL     1       7.647  26.926  55.988  1.00  0.00    -0.293 OA
BRANCH  29  30
HETATM   30  C   UNL     1       7.694  26.551  57.289  1.00  0.00     0.365 C 
HETATM   31  N   UNL     1       7.648  25.203  57.528  1.00  0.00    -0.303 N 
HETATM   32  H   UNL     1       7.709  25.020  58.522  1.00  0.00     0.171 HD
HETATM   33  O   UNL     1       7.780  27.338  58.227  1.00  0.00    -0.238 OA
BRANCH  31  34
HETATM   34  C   UNL     1       7.691  24.088  56.674  1.00  0.00     0.036 A 
HETATM   35  C   UNL     1       7.078  24.008  55.423  1.00  0.00     0.030 A 
HETATM   36  C   UNL     1       7.250  22.879  54.608  1.00  0.00     0.017 A 
HETATM   37  C   UNL     1       8.032  21.806  55.044  1.00  0.00     0.009 A 
HETATM   38  C   UNL     1       8.608  21.858  56.316  1.00  0.00     0.017 A 
HETATM   39  C   UNL     1       8.438  22.990  57.121  1.00  0.00     0.030 A 
BRANCH  37  40
HETATM   40  C   UNL     1       8.280  20.605  54.198  1.00  0.00     0.155 C 
HETATM   41  C   UNL     1       8.050  20.703  52.712  1.00  0.00     0.096 C 
HETATM   42  O   UNL     1       8.674  19.563  54.715  1.00  0.00    -0.293 OA
ENDBRANCH  37  40
ENDBRANCH  31  34
ENDBRANCH  29  30
ENDBRANCH   1  29
TORSDOF 8
ENDMDL
MODEL 6
REMARK VINA RESULT:     -10.1      6.508     12.664
REMARK  8 active torsions:
REMARK  status: ('A' for Active; 'I' for Inactive)
REMARK    1  A    between atoms: C_2  and  C_3 
REMARK    2  A    between atoms: C_6  and  N_7 
REMARK       I    between atoms: N_7  and  C_8 
REMARK    3  A    between atoms: C_8  and  O_9 
REMARK    4  A    between atoms: O_9  and  C_10 
REMARK    5  A    between atoms: C_13  and  N_14 
REMARK       I    between atoms: N_14  and  C_15 
REMARK    6  A    between atoms: C_15  and  C_16 
REMARK    7  A    between atoms: N_19  and  C_20 
REMARK    8  A    between atoms: C_22  and  C_23 
ROOT
HETATM    1  C   UNL     1       6.282  28.339  54.856  1.00  0.00     0.189 C 
HETATM    2  C   UNL     1       5.999  29.544  55.760  1.00  0.00     0.184 C 
HETATM    3  C   UNL     1       5.810  28.957  57.157  1.00  0.00     0.177 C 
HETATM    4  C   UNL     1       4.519  29.580  57.665  1.00  0.00     0.139 C 
HETATM    5  C   UNL     1       3.775  29.806  56.354  1.00  0.00     0.196 C 
HETATM    6  O   UNL     1       4.776  30.231  55.413  1.00  0.00    -0.378 OA
HETATM    7  O   UNL     1       5.643  27.536  56.986  1.00  0.00    -0.378 OA
HETATM    8  C   UNL     1       6.418  27.181  55.833  1.00  0.00     0.203 C 
ENDROOT
BRANCH   4   9
HETATM    9  N   UNL     1       4.707  30.848  58.374  1.00  0.00    -0.351 N 
HETATM   10  C   UNL     1       3.727  31.389  59.179  1.00  0.00     0.222 C 
HETATM   11  O   UNL     1       2.743  30.757  59.547  1.00  0.00    -0.273 OA
HETATM   12  H   UNL     1       5.421  31.472  58.018  1.00  0.00     0.163 HD
BRANCH  10  13
HETATM   13  C   UNL     1       3.965  32.860  59.513  1.00  0.00     0.081 C 
HETATM   14  C   UNL     1       3.078  33.347  60.665  1.00  0.00     0.034 C 
HETATM   15  C   UNL     1       3.604  32.947  62.043  1.00  0.00     0.142 C 
HETATM   16  N   UNL     1       5.007  33.343  62.150  1.00  0.00    -0.214 N 
HETATM   17  C   UNL     1       5.901  32.743  61.167  1.00  0.00     0.142 C 
HETATM   18  C   UNL     1       5.446  33.166  59.770  1.00  0.00     0.034 C 
BRANCH  16  19
HETATM   19  C   UNL     1       5.504  33.470  63.441  1.00  0.00     0.724 A 
HETATM   20  N   UNL     1       4.675  33.883  64.413  1.00  0.00    -0.058 NA
HETATM   21  C   UNL     1       5.174  34.106  65.657  1.00  0.00     0.160 A 
HETATM   22  C   UNL     1       6.510  33.920  65.945  1.00  0.00     0.057 A 
HETATM   23  C   UNL     1       7.287  33.487  64.906  1.00  0.00     0.139 A 
HETATM   24  N   UNL     1       6.811  33.263  63.668  1.00  0.00    -0.075 NA
BRANCH  21  25
HETATM   25  C   UNL     1       4.248  34.627  66.741  1.00  0.00     0.435 C 
HETATM   26  F   UNL     1       2.989  34.921  66.314  1.00  0.00    -0.165 F 
HETATM   27  F   UNL     1       4.090  33.733  67.763  1.00  0.00    -0.165 F 
HETATM   28  F   UNL     1       4.722  35.764  67.329  1.00  0.00    -0.165 F 
ENDBRANCH  21  25
ENDBRANCH  16  19
ENDBRANCH  10  13
ENDBRANCH   4   9
BRANCH   1  29
HETATM   29  O   UNL     1       5.172  28.079  53.975  1.00  0.00    -0.293 OA
BRANCH  29  30
HETATM   30  C   UNL     1       5.418  28.303  52.662  1.00  0.00     0.365 C 
HETATM   31  N   UNL     1       6.148  27.341  52.015  1.00  0.00    -0.303 N 
HETATM   32  H   UNL     1       6.263  27.584  51.039  1.00  0.00     0.171 HD
HETATM   33  O   UNL     1       5.023  29.289  52.048  1.00  0.00    -0.238 OA
BRANCH  31  34
HETATM   34  C   UNL     1       6.602  26.071  52.410  1.00  0.00     0.036 A 
HETATM   35  C   UNL     1       7.935  25.731  52.647  1.00  0.00     0.030 A 
HETATM   36  C   UNL     1       8.278  24.455  53.121  1.00  0.00     0.017 A 
HETATM   37  C   UNL     1       7.287  23.498  53.352  1.00  0.00     0.009 A 
HETATM   38  C   UNL     1       5.956  23.816  53.070  1.00  0.00     0.017 A 
HETATM   39  C   UNL     1       5.619  25.091  52.605  1.00  0.00     0.030 A 
BRANCH  37  40
HETATM   40  C   UNL     1       7.597  22.146  53.897  1.00  0.00     0.155 C 
HETATM   41  C   UNL     1       7.886  21.023  52.934  1.00  0.00     0.096 C 
HETATM   42  O   UNL     1       7.620  21.966  55.112  1.00  0.00    -0.293 OA
ENDBRANCH  37  40
ENDBRANCH  31  34
ENDBRANCH  29  30
ENDBRANCH   1  29
TORSDOF 8
ENDMDL
MODEL 7
REMARK VINA RESULT:     -10.0      3.950      5.314
REMARK  8 active torsions:
REMARK  status: ('A' for Active; 'I' for Inactive)
REMARK    1  A    between atoms: C_2  and  C_3 
REMARK    2  A    between atoms: C_6  and  N_7 
REMARK       I    between atoms: N_7  and  C_8 
REMARK    3  A    between atoms: C_8  and  O_9 
REMARK    4  A    between atoms: O_9  and  C_10 
REMARK    5  A    between atoms: C_13  and  N_14 
REMARK       I    between atoms: N_14  and  C_15 
REMARK    6  A    between atoms: C_15  and  C_16 
REMARK    7  A    between atoms: N_19  and  C_20 
REMARK    8  A    between atoms: C_22  and  C_23 
ROOT
HETATM    1  C   UNL     1       9.727  29.234  57.635  1.00  0.00     0.189 C 
HETATM    2  C   UNL     1       8.676  28.386  56.911  1.00  0.00     0.184 C 
HETATM    3  C   UNL     1       8.956  28.592  55.424  1.00  0.00     0.177 C 
HETATM    4  C   UNL     1       7.602  28.929  54.819  1.00  0.00     0.139 C 
HETATM    5  C   UNL     1       6.916  29.592  56.008  1.00  0.00     0.196 C 
HETATM    6  O   UNL     1       7.325  28.834  57.159  1.00  0.00    -0.378 OA
HETATM    7  O   UNL     1       9.842  29.724  55.325  1.00  0.00    -0.378 OA
HETATM    8  C   UNL     1      10.640  29.708  56.516  1.00  0.00     0.203 C 
ENDROOT
BRANCH   4   9
HETATM    9  N   UNL     1       6.840  27.760  54.372  1.00  0.00    -0.351 N 
HETATM   10  C   UNL     1       5.712  27.878  53.588  1.00  0.00     0.222 C 
HETATM   11  O   UNL     1       5.402  28.918  53.020  1.00  0.00    -0.273 OA
HETATM   12  H   UNL     1       6.957  26.905  54.902  1.00  0.00     0.163 HD
BRANCH  10  13
HETATM   13  C   UNL     1       4.869  26.606  53.551  1.00  0.00     0.081 C 
HETATM   14  C   UNL     1       5.166  25.746  52.315  1.00  0.00     0.034 C 
HETATM   15  C   UNL     1       6.435  24.905  52.456  1.00  0.00     0.142 C 
HETATM   16  N   UNL     1       6.374  24.160  53.712  1.00  0.00    -0.214 N 
HETATM   17  C   UNL     1       6.273  24.974  54.916  1.00  0.00     0.142 C 
HETATM   18  C   UNL     1       4.984  25.792  54.847  1.00  0.00     0.034 C 
BRANCH  16  19
HETATM   19  C   UNL     1       7.190  23.038  53.791  1.00  0.00     0.724 A 
HETATM   20  N   UNL     1       7.362  22.448  54.984  1.00  0.00    -0.058 NA
HETATM   21  C   UNL     1       8.235  21.412  55.091  1.00  0.00     0.160 A 
HETATM   22  C   UNL     1       8.949  20.953  54.004  1.00  0.00     0.057 A 
HETATM   23  C   UNL     1       8.710  21.597  52.821  1.00  0.00     0.139 A 
HETATM   24  N   UNL     1       7.851  22.625  52.697  1.00  0.00    -0.075 NA
BRANCH  21  25
HETATM   25  C   UNL     1       8.471  20.783  56.451  1.00  0.00     0.435 C 
HETATM   26  F   UNL     1       8.431  21.659  57.493  1.00  0.00    -0.165 F 
HETATM   27  F   UNL     1       7.546  19.820  56.746  1.00  0.00    -0.165 F 
HETATM   28  F   UNL     1       9.681  20.156  56.532  1.00  0.00    -0.165 F 
ENDBRANCH  21  25
ENDBRANCH  16  19
ENDBRANCH  10  13
ENDBRANCH   4   9
BRANCH   1  29
HETATM   29  O   UNL     1       9.124  30.382  58.264  1.00  0.00    -0.293 OA
BRANCH  29  30
HETATM   30  C   UNL     1       9.971  31.411  58.507  1.00  0.00     0.365 C 
HETATM   31  N   UNL     1       9.654  32.211  59.573  1.00  0.00    -0.303 N 
HETATM   32  H   UNL     1      10.351  32.936  59.689  1.00  0.00     0.171 HD
HETATM   33  O   UNL     1      10.977  31.643  57.844  1.00  0.00    -0.238 OA
BRANCH  31  34
HETATM   34  C   UNL     1       8.672  32.110  60.573  1.00  0.00     0.036 A 
HETATM   35  C   UNL     1       8.920  31.844  61.921  1.00  0.00     0.030 A 
HETATM   36  C   UNL     1       7.875  31.846  62.858  1.00  0.00     0.017 A 
HETATM   37  C   UNL     1       6.564  32.105  62.453  1.00  0.00     0.009 A 
HETATM   38  C   UNL     1       6.301  32.324  61.098  1.00  0.00     0.017 A 
HETATM   39  C   UNL     1       7.347  32.327  60.170  1.00  0.00     0.030 A 
BRANCH  37  40
HETATM   40  C   UNL     1       5.429  32.163  63.417  1.00  0.00     0.155 C 
HETATM   41  C   UNL     1       5.355  33.316  64.385  1.00  0.00     0.096 C 
HETATM   42  O   UNL     1       4.572  31.282  63.407  1.00  0.00    -0.293 OA
ENDBRANCH  37  40
ENDBRANCH  31  34
ENDBRANCH  29  30
ENDBRANCH   1  29
TORSDOF 8
ENDMDL
MODEL 8
REMARK VINA RESULT:      -9.9      3.851      6.024
REMARK  8 active torsions:
REMARK  status: ('A' for Active; 'I' for Inactive)
REMARK    1  A    between atoms: C_2  and  C_3 
REMARK    2  A    between atoms: C_6  and  N_7 
REMARK       I    between atoms: N_7  and  C_8 
REMARK    3  A    between atoms: C_8  and  O_9 
REMARK    4  A    between atoms: O_9  and  C_10 
REMARK    5  A    between atoms: C_13  and  N_14 
REMARK       I    between atoms: N_14  and  C_15 
REMARK    6  A    between atoms: C_15  and  C_16 
REMARK    7  A    between atoms: N_19  and  C_20 
REMARK    8  A    between atoms: C_22  and  C_23 
ROOT
HETATM    1  C   UNL     1       8.153  32.162  61.616  1.00  0.00     0.189 C 
HETATM    2  C   UNL     1       7.200  31.294  60.789  1.00  0.00     0.184 C 
HETATM    3  C   UNL     1       7.752  31.343  59.366  1.00  0.00     0.177 C 
HETATM    4  C   UNL     1       6.549  31.677  58.497  1.00  0.00     0.139 C 
HETATM    5  C   UNL     1       5.703  32.480  59.477  1.00  0.00     0.196 C 
HETATM    6  O   UNL     1       5.855  31.821  60.746  1.00  0.00    -0.378 OA
HETATM    7  O   UNL     1       8.707  32.422  59.332  1.00  0.00    -0.378 OA
HETATM    8  C   UNL     1       9.278  32.487  60.645  1.00  0.00     0.203 C 
ENDROOT
BRANCH   4   9
HETATM    9  N   UNL     1       5.811  30.504  58.022  1.00  0.00    -0.351 N 
HETATM   10  C   UNL     1       6.188  29.811  56.892  1.00  0.00     0.222 C 
HETATM   11  O   UNL     1       7.274  29.966  56.346  1.00  0.00    -0.273 OA
HETATM   12  H   UNL     1       4.854  30.405  58.338  1.00  0.00     0.163 HD
BRANCH  10  13
HETATM   13  C   UNL     1       5.098  28.880  56.365  1.00  0.00     0.081 C 
HETATM   14  C   UNL     1       5.011  28.892  54.834  1.00  0.00     0.034 C 
HETATM   15  C   UNL     1       6.078  28.027  54.162  1.00  0.00     0.142 C 
HETATM   16  N   UNL     1       6.054  26.693  54.760  1.00  0.00    -0.214 N 
HETATM   17  C   UNL     1       6.316  26.648  56.193  1.00  0.00     0.142 C 
HETATM   18  C   UNL     1       5.235  27.454  56.914  1.00  0.00     0.034 C 
BRANCH  16  19
HETATM   19  C   UNL     1       6.615  25.677  53.996  1.00  0.00     0.724 A 
HETATM   20  N   UNL     1       6.897  24.506  54.589  1.00  0.00    -0.058 NA
HETATM   21  C   UNL     1       7.536  23.541  53.877  1.00  0.00     0.160 A 
HETATM   22  C   UNL     1       7.902  23.736  52.561  1.00  0.00     0.057 A 
HETATM   23  C   UNL     1       7.569  24.950  52.025  1.00  0.00     0.139 A 
HETATM   24  N   UNL     1       6.938  25.916  52.715  1.00  0.00    -0.075 NA
BRANCH  21  25
HETATM   25  C   UNL     1       7.906  22.239  54.563  1.00  0.00     0.435 C 
HETATM   26  F   UNL     1       7.213  21.989  55.709  1.00  0.00    -0.165 F 
HETATM   27  F   UNL     1       7.696  21.151  53.763  1.00  0.00    -0.165 F 
HETATM   28  F   UNL     1       9.227  22.186  54.903  1.00  0.00    -0.165 F 
ENDBRANCH  21  25
ENDBRANCH  16  19
ENDBRANCH  10  13
ENDBRANCH   4   9
BRANCH   1  29
HETATM   29  O   UNL     1       7.518  33.390  62.021  1.00  0.00    -0.293 OA
BRANCH  29  30
HETATM   30  C   UNL     1       7.192  33.460  63.335  1.00  0.00     0.365 C 
HETATM   31  N   UNL     1       5.972  34.012  63.623  1.00  0.00    -0.303 N 
HETATM   32  H   UNL     1       5.809  34.002  64.622  1.00  0.00     0.171 HD
HETATM   33  O   UNL     1       7.913  33.057  64.243  1.00  0.00    -0.238 OA
BRANCH  31  34
HETATM   34  C   UNL     1       4.901  34.419  62.810  1.00  0.00     0.036 A 
HETATM   35  C   UNL     1       4.944  35.463  61.885  1.00  0.00     0.030 A 
HETATM   36  C   UNL     1       3.844  35.738  61.059  1.00  0.00     0.017 A 
HETATM   37  C   UNL     1       2.678  34.975  61.158  1.00  0.00     0.009 A 
HETATM   38  C   UNL     1       2.610  33.960  62.116  1.00  0.00     0.017 A 
HETATM   39  C   UNL     1       3.713  33.686  62.932  1.00  0.00     0.030 A 
BRANCH  37  40
HETATM   40  C   UNL     1       1.501  35.200  60.273  1.00  0.00     0.155 C 
HETATM   41  C   UNL     1       1.535  36.346  59.295  1.00  0.00     0.096 C 
HETATM   42  O   UNL     1       0.529  34.451  60.345  1.00  0.00    -0.293 OA
ENDBRANCH  37  40
ENDBRANCH  31  34
ENDBRANCH  29  30
ENDBRANCH   1  29
TORSDOF 8
ENDMDL
MODEL 9
REMARK VINA RESULT:      -9.7      4.387      6.528
REMARK  8 active torsions:
REMARK  status: ('A' for Active; 'I' for Inactive)
REMARK    1  A    between atoms: C_2  and  C_3 
REMARK    2  A    between atoms: C_6  and  N_7 
REMARK       I    between atoms: N_7  and  C_8 
REMARK    3  A    between atoms: C_8  and  O_9 
REMARK    4  A    between atoms: O_9  and  C_10 
REMARK    5  A    between atoms: C_13  and  N_14 
REMARK       I    between atoms: N_14  and  C_15 
REMARK    6  A    between atoms: C_15  and  C_16 
REMARK    7  A    between atoms: N_19  and  C_20 
REMARK    8  A    between atoms: C_22  and  C_23 
ROOT
HETATM    1  C   UNL     1       8.649  29.775  58.413  1.00  0.00     0.189 C 
HETATM    2  C   UNL     1       7.833  28.837  57.517  1.00  0.00     0.184 C 
HETATM    3  C   UNL     1       8.629  28.737  56.217  1.00  0.00     0.177 C 
HETATM    4  C   UNL     1       7.608  28.994  55.120  1.00  0.00     0.139 C 
HETATM    5  C   UNL     1       6.624  29.900  55.851  1.00  0.00     0.196 C 
HETATM    6  O   UNL     1       6.532  29.370  57.184  1.00  0.00    -0.378 OA
HETATM    7  O   UNL     1       9.603  29.798  56.250  1.00  0.00    -0.378 OA
HETATM    8  C   UNL     1       9.936  29.989  57.631  1.00  0.00     0.203 C 
ENDROOT
BRANCH   4   9
HETATM    9  N   UNL     1       6.933  27.787  54.638  1.00  0.00    -0.351 N 
HETATM   10  C   UNL     1       6.311  27.737  53.409  1.00  0.00     0.222 C 
HETATM   11  O   UNL     1       6.471  28.592  52.546  1.00  0.00    -0.273 OA
HETATM   12  H   UNL     1       6.652  27.107  55.335  1.00  0.00     0.163 HD
BRANCH  10  13
HETATM   13  C   UNL     1       5.365  26.548  53.260  1.00  0.00     0.081 C 
HETATM   14  C   UNL     1       5.712  25.675  52.046  1.00  0.00     0.034 C 
HETATM   15  C   UNL     1       6.877  24.720  52.302  1.00  0.00     0.142 C 
HETATM   16  N   UNL     1       6.617  23.972  53.531  1.00  0.00    -0.214 N 
HETATM   17  C   UNL     1       6.464  24.782  54.733  1.00  0.00     0.142 C 
HETATM   18  C   UNL     1       5.268  25.716  54.545  1.00  0.00     0.034 C 
BRANCH  16  19
HETATM   19  C   UNL     1       7.316  22.780  53.674  1.00  0.00     0.724 A 
HETATM   20  N   UNL     1       7.490  22.278  54.906  1.00  0.00    -0.058 NA
HETATM   21  C   UNL     1       8.256  21.167  55.067  1.00  0.00     0.160 A 
HETATM   22  C   UNL     1       8.859  20.543  53.994  1.00  0.00     0.057 A 
HETATM   23  C   UNL     1       8.623  21.107  52.770  1.00  0.00     0.139 A 
HETATM   24  N   UNL     1       7.870  22.207  52.593  1.00  0.00    -0.075 NA
BRANCH  21  25
HETATM   25  C   UNL     1       8.500  20.633  56.466  1.00  0.00     0.435 C 
HETATM   26  F   UNL     1       7.608  19.688  56.873  1.00  0.00    -0.165 F 
HETATM   27  F   UNL     1       9.732  20.055  56.594  1.00  0.00    -0.165 F 
HETATM   28  F   UNL     1       8.464  21.617  57.412  1.00  0.00    -0.165 F 
ENDBRANCH  21  25
ENDBRANCH  16  19
ENDBRANCH  10  13
ENDBRANCH   4   9
BRANCH   1  29
HETATM   29  O   UNL     1       7.986  31.043  58.577  1.00  0.00    -0.293 OA
BRANCH  29  30
HETATM   30  C   UNL     1       7.375  31.220  59.773  1.00  0.00     0.365 C 
HETATM   31  N   UNL     1       6.078  31.660  59.726  1.00  0.00    -0.303 N 
HETATM   32  H   UNL     1       5.701  31.742  60.662  1.00  0.00     0.171 HD
HETATM   33  O   UNL     1       7.909  31.000  60.855  1.00  0.00    -0.238 OA
BRANCH  31  34
HETATM   34  C   UNL     1       5.182  31.855  58.661  1.00  0.00     0.036 A 
HETATM   35  C   UNL     1       5.258  32.885  57.724  1.00  0.00     0.030 A 
HETATM   36  C   UNL     1       4.361  32.944  56.646  1.00  0.00     0.017 A 
HETATM   37  C   UNL     1       3.367  31.975  56.501  1.00  0.00     0.009 A 
HETATM   38  C   UNL     1       3.254  30.968  57.464  1.00  0.00     0.017 A 
HETATM   39  C   UNL     1       4.155  30.911  58.532  1.00  0.00     0.030 A 
BRANCH  37  40
HETATM   40  C   UNL     1       2.420  31.970  55.351  1.00  0.00     0.155 C 
HETATM   41  C   UNL     1       2.910  31.491  54.008  1.00  0.00     0.096 C 
HETATM   42  O   UNL     1       1.260  32.344  55.510  1.00  0.00    -0.293 OA
ENDBRANCH  37  40
ENDBRANCH  31  34
ENDBRANCH  29  30
ENDBRANCH   1  29
TORSDOF 8
ENDMDL
MODEL 10
REMARK VINA RESULT:      -9.6      4.031      7.207
REMARK  8 active torsions:
REMARK  status: ('A' for Active; 'I' for Inactive)
REMARK    1  A    between atoms: C_2  and  C_3 
REMARK    2  A    between atoms: C_6  and  N_7 
REMARK       I    between atoms: N_7  and  C_8 
REMARK    3  A    between atoms: C_8  and  O_9 
REMARK    4  A    between atoms: O_9  and  C_10 
REMARK    5  A    between atoms: C_13  and  N_14 
REMARK       I    between atoms: N_14  and  C_15 
REMARK    6  A    between atoms: C_15  and  C_16 
REMARK    7  A    between atoms: N_19  and  C_20 
REMARK    8  A    between atoms: C_22  and  C_23 
ROOT
HETATM    1  C   UNL     1       6.171  32.383  63.287  1.00  0.00     0.189 C 
HETATM    2  C   UNL     1       5.764  31.732  61.961  1.00  0.00     0.184 C 
HETATM    3  C   UNL     1       7.053  31.648  61.147  1.00  0.00     0.177 C 
HETATM    4  C   UNL     1       6.688  32.225  59.787  1.00  0.00     0.139 C 
HETATM    5  C   UNL     1       5.583  33.200  60.177  1.00  0.00     0.196 C 
HETATM    6  O   UNL     1       4.829  32.535  61.205  1.00  0.00    -0.378 OA
HETATM    7  O   UNL     1       8.012  32.497  61.807  1.00  0.00    -0.378 OA
HETATM    8  C   UNL     1       7.688  32.450  63.203  1.00  0.00     0.203 C 
ENDROOT
BRANCH   4   9
HETATM    9  N   UNL     1       6.185  31.233  58.834  1.00  0.00    -0.351 N 
HETATM   10  C   UNL     1       7.028  30.406  58.124  1.00  0.00     0.222 C 
HETATM   11  O   UNL     1       8.214  30.269  58.400  1.00  0.00    -0.273 OA
HETATM   12  H   UNL     1       5.252  31.381  58.466  1.00  0.00     0.163 HD
BRANCH  10  13
HETATM   13  C   UNL     1       6.349  29.729  56.936  1.00  0.00     0.081 C 
HETATM   14  C   UNL     1       7.334  29.420  55.800  1.00  0.00     0.034 C 
HETATM   15  C   UNL     1       8.164  28.161  56.047  1.00  0.00     0.142 C 
HETATM   16  N   UNL     1       7.265  27.058  56.386  1.00  0.00    -0.214 N 
HETATM   17  C   UNL     1       6.448  27.264  57.575  1.00  0.00     0.142 C 
HETATM   18  C   UNL     1       5.555  28.484  57.350  1.00  0.00     0.034 C 
BRANCH  16  19
HETATM   19  C   UNL     1       7.778  25.780  56.201  1.00  0.00     0.724 A 
HETATM   20  N   UNL     1       7.532  25.148  55.043  1.00  0.00    -0.058 NA
HETATM   21  C   UNL     1       7.943  23.862  54.891  1.00  0.00     0.160 A 
HETATM   22  C   UNL     1       8.607  23.191  55.897  1.00  0.00     0.057 A 
HETATM   23  C   UNL     1       8.831  23.906  57.041  1.00  0.00     0.139 A 
HETATM   24  N   UNL     1       8.429  25.178  57.210  1.00  0.00    -0.075 NA
BRANCH  21  25
HETATM   25  C   UNL     1       7.615  23.130  53.603  1.00  0.00     0.435 C 
HETATM   26  F   UNL     1       8.620  23.126  52.684  1.00  0.00    -0.165 F 
HETATM   27  F   UNL     1       7.309  21.814  53.817  1.00  0.00    -0.165 F 
HETATM   28  F   UNL     1       6.526  23.653  52.969  1.00  0.00    -0.165 F 
ENDBRANCH  21  25
ENDBRANCH  16  19
ENDBRANCH  10  13
ENDBRANCH   4   9
BRANCH   1  29
HETATM   29  O   UNL     1       5.650  33.722  63.389  1.00  0.00    -0.293 OA
BRANCH  29  30
HETATM   30  C   UNL     1       4.915  33.968  64.500  1.00  0.00     0.365 C 
HETATM   31  N   UNL     1       4.418  35.238  64.625  1.00  0.00    -0.303 N 
HETATM   32  H   UNL     1       3.868  35.319  65.471  1.00  0.00     0.171 HD
HETATM   33  O   UNL     1       4.677  33.129  65.364  1.00  0.00    -0.238 OA
BRANCH  31  34
HETATM   34  C   UNL     1       4.406  36.339  63.752  1.00  0.00     0.036 A 
HETATM   35  C   UNL     1       3.405  36.617  62.820  1.00  0.00     0.030 A 
HETATM   36  C   UNL     1       3.444  37.790  62.051  1.00  0.00     0.017 A 
HETATM   37  C   UNL     1       4.496  38.697  62.199  1.00  0.00     0.009 A 
HETATM   38  C   UNL     1       5.527  38.402  63.096  1.00  0.00     0.017 A 
HETATM   39  C   UNL     1       5.479  37.233  63.864  1.00  0.00     0.030 A 
BRANCH  37  40
HETATM   40  C   UNL     1       4.559  39.977  61.438  1.00  0.00     0.155 C 
HETATM   41  C   UNL     1       5.167  39.974  60.060  1.00  0.00     0.096 C 
HETATM   42  O   UNL     1       4.110  41.007  61.936  1.00  0.00    -0.293 OA
ENDBRANCH  37  40
ENDBRANCH  31  34
ENDBRANCH  29  30
ENDBRANCH   1  29
TORSDOF 8
ENDMDL
