MODEL 1
REMARK VINA RESULT:     -10.7      0.000      0.000
REMARK  8 active torsions:
REMARK  status: ('A' for Active; 'I' for Inactive)
REMARK    1  A    between atoms: C_2  and  O_3 
REMARK    2  A    between atoms: O_3  and  C_4 
REMARK    3  A    between atoms: C_7  and  N_8 
REMARK       I    between atoms: N_8  and  C_9 
REMARK       I    between atoms: C_9  and  N_10 
REMARK    4  A    between atoms: N_10  and  C_11 
REMARK    5  A    between atoms: C_12  and  N_13 
REMARK    6  A    between atoms: C_29  and  C_30 
REMARK       I    between atoms: C_30  and  N_31 
REMARK    7  A    between atoms: N_31  and  C_32 
REMARK    8  A    between atoms: C_32  and  C_33 
ROOT
HETATM    1  C   UNL     1       4.044  28.113  53.332  1.00  0.00     0.043 A 
HETATM    2  C   UNL     1       3.521  29.005  52.367  1.00  0.00     0.052 A 
HETATM    3  C   UNL     1       3.573  30.369  52.722  1.00  0.00     0.032 A 
HETATM    4  C   UNL     1       4.150  30.826  53.921  1.00  0.00     0.019 A 
HETATM    5  C   UNL     1       4.697  29.923  54.827  1.00  0.00     0.033 A 
HETATM    6  C   UNL     1       4.614  28.567  54.540  1.00  0.00     0.043 A 
ENDROOT
BRANCH   1   7
HETATM    7  N   UNL     1       4.030  26.699  53.172  1.00  0.00    -0.213 NA
HETATM    8  C   UNL     1       5.281  26.124  52.980  1.00  0.00     0.281 C 
HETATM    9  N   UNL     1       5.352  24.828  53.476  1.00  0.00    -0.215 NA
HETATM   10  O   UNL     1       6.228  26.755  52.513  1.00  0.00    -0.260 OA
HETATM   11  H   UNL     1       4.668  24.685  54.207  1.00  0.00     0.138 HD
HETATM   12  H   UNL     1       3.347  26.373  52.501  1.00  0.00     0.138 HD
BRANCH   9  13
HETATM   13  C   UNL     1       6.660  24.351  53.753  1.00  0.00     0.016 C 
HETATM   14  C   UNL     1       7.246  23.457  52.856  1.00  0.00     0.026 C 
HETATM   15  C   UNL     1       8.272  22.622  53.302  1.00  0.00     0.038 C 
HETATM   16  C   UNL     1       8.705  22.715  54.625  1.00  0.00     0.068 C 
HETATM   17  C   UNL     1       8.264  23.743  55.454  1.00  0.00     0.038 C 
HETATM   18  C   UNL     1       7.233  24.566  55.014  1.00  0.00     0.026 C 
BRANCH  16  19
HETATM   19  O   UNL     1       9.484  21.701  55.120  1.00  0.00    -0.352 OA
BRANCH  19  20
HETATM   20  C   UNL     1       8.767  20.456  55.002  1.00  0.00     0.171 C 
HETATM   21  C   UNL     1       7.849  20.299  56.198  1.00  0.00     0.034 C 
ENDBRANCH  19  20
ENDBRANCH  16  19
ENDBRANCH   9  13
ENDBRANCH   1   7
BRANCH   2  22
HETATM   22  N   UNL     1       3.018  28.587  51.129  1.00  0.00    -0.378 N 
HETATM   23  C   UNL     1       1.883  29.287  50.499  1.00  0.00     0.133 C 
HETATM   24  C   UNL     1       2.265  30.015  49.187  1.00  0.00     0.054 C 
HETATM   25  C   UNL     1       2.908  29.016  48.231  1.00  0.00     0.020 C 
HETATM   26  C   UNL     1       3.193  31.199  49.401  1.00  0.00     0.020 A 
HETATM   27  C   UNL     1       4.186  28.529  48.893  1.00  0.00     0.023 C 
HETATM   28  C   UNL     1       5.162  29.693  49.088  1.00  0.00     0.138 C 
HETATM   29  C   UNL     1       3.883  27.815  50.217  1.00  0.00     0.129 C 
HETATM   30  N   UNL     1       4.575  30.997  49.386  1.00  0.00    -0.317 N 
HETATM   31  C   UNL     1       5.489  32.043  49.567  1.00  0.00     0.247 A 
HETATM   32  O   UNL     1       6.711  31.923  49.522  1.00  0.00    -0.268 OA
HETATM   33  C   UNL     1       4.910  33.389  49.798  1.00  0.00     0.074 A 
HETATM   34  C   UNL     1       3.585  33.559  49.791  1.00  0.00     0.007 A 
HETATM   35  C   UNL     1       2.704  32.441  49.578  1.00  0.00     0.026 A 
ENDBRANCH   2  22
BRANCH   5  36
HETATM   36  C   UNL     1       5.317  30.415  56.090  1.00  0.00     0.251 C 
HETATM   37  N   UNL     1       6.083  29.505  56.785  1.00  0.00    -0.353 N 
HETATM   38  H   UNL     1       6.405  28.669  56.316  1.00  0.00     0.163 HD
HETATM   39  O   UNL     1       5.139  31.573  56.455  1.00  0.00    -0.268 OA
BRANCH  37  40
HETATM   40  C   UNL     1       6.756  29.858  58.014  1.00  0.00     0.161 C 
BRANCH  40  41
HETATM   41  C   UNL     1       8.239  30.017  57.785  1.00  0.00    -0.041 A 
HETATM   42  C   UNL     1       8.925  29.188  56.886  1.00  0.00     0.009 A 
HETATM   43  C   UNL     1      10.295  29.356  56.674  1.00  0.00     0.001 A 
HETATM   44  C   UNL     1      10.995  30.348  57.357  1.00  0.00     0.000 A 
HETATM   45  C   UNL     1      10.325  31.177  58.255  1.00  0.00     0.001 A 
HETATM   46  C   UNL     1       8.955  31.013  58.468  1.00  0.00     0.009 A 
ENDBRANCH  40  41
ENDBRANCH  37  40
ENDBRANCH   5  36
TORSDOF 8
ENDMDL
MODEL 2
REMARK VINA RESULT:     -10.2      3.661      4.969
REMARK  8 active torsions:
REMARK  status: ('A' for Active; 'I' for Inactive)
REMARK    1  A    between atoms: C_2  and  O_3 
REMARK    2  A    between atoms: O_3  and  C_4 
REMARK    3  A    between atoms: C_7  and  N_8 
REMARK       I    between atoms: N_8  and  C_9 
REMARK       I    between atoms: C_9  and  N_10 
REMARK    4  A    between atoms: N_10  and  C_11 
REMARK    5  A    between atoms: C_12  and  N_13 
REMARK    6  A    between atoms: C_29  and  C_30 
REMARK       I    between atoms: C_30  and  N_31 
REMARK    7  A    between atoms: N_31  and  C_32 
REMARK    8  A    between atoms: C_32  and  C_33 
ROOT
HETATM    1  C   UNL     1       4.514  30.014  56.741  1.00  0.00     0.043 A 
HETATM    2  C   UNL     1       4.057  31.224  56.170  1.00  0.00     0.052 A 
HETATM    3  C   UNL     1       4.644  32.393  56.697  1.00  0.00     0.032 A 
HETATM    4  C   UNL     1       5.651  32.367  57.680  1.00  0.00     0.019 A 
HETATM    5  C   UNL     1       6.109  31.156  58.186  1.00  0.00     0.033 A 
HETATM    6  C   UNL     1       5.516  29.984  57.734  1.00  0.00     0.043 A 
ENDROOT
BRANCH   1   7
HETATM    7  N   UNL     1       3.999  28.739  56.372  1.00  0.00    -0.213 NA
HETATM    8  C   UNL     1       4.869  27.957  55.622  1.00  0.00     0.281 C 
HETATM    9  N   UNL     1       4.680  26.597  55.835  1.00  0.00    -0.215 NA
HETATM   10  O   UNL     1       5.763  28.447  54.933  1.00  0.00    -0.260 OA
HETATM   11  H   UNL     1       4.261  26.430  56.740  1.00  0.00     0.138 HD
HETATM   12  H   UNL     1       3.069  28.775  55.975  1.00  0.00     0.138 HD
BRANCH   9  13
HETATM   13  C   UNL     1       5.783  25.767  55.504  1.00  0.00     0.016 C 
HETATM   14  C   UNL     1       5.841  25.216  54.223  1.00  0.00     0.026 C 
HETATM   15  C   UNL     1       6.601  24.064  54.013  1.00  0.00     0.038 C 
HETATM   16  C   UNL     1       7.305  23.504  55.079  1.00  0.00     0.068 C 
HETATM   17  C   UNL     1       7.412  24.170  56.297  1.00  0.00     0.038 C 
HETATM   18  C   UNL     1       6.645  25.309  56.510  1.00  0.00     0.026 C 
BRANCH  16  19
HETATM   19  O   UNL     1       7.790  22.230  54.932  1.00  0.00    -0.352 OA
BRANCH  19  20
HETATM   20  C   UNL     1       8.389  22.102  53.627  1.00  0.00     0.171 C 
HETATM   21  C   UNL     1       8.079  20.727  53.071  1.00  0.00     0.034 C 
ENDBRANCH  19  20
ENDBRANCH  16  19
ENDBRANCH   9  13
ENDBRANCH   1   7
BRANCH   2  22
HETATM   22  N   UNL     1       3.119  31.278  55.132  1.00  0.00    -0.378 N 
HETATM   23  C   UNL     1       1.934  32.151  55.229  1.00  0.00     0.133 C 
HETATM   24  C   UNL     1       1.939  33.305  54.197  1.00  0.00     0.054 C 
HETATM   25  C   UNL     1       2.093  32.723  52.796  1.00  0.00     0.020 C 
HETATM   26  C   UNL     1       3.023  34.339  54.452  1.00  0.00     0.020 A 
HETATM   27  C   UNL     1       3.448  32.038  52.748  1.00  0.00     0.023 C 
HETATM   28  C   UNL     1       4.569  33.060  52.962  1.00  0.00     0.138 C 
HETATM   29  C   UNL     1       3.524  30.893  53.767  1.00  0.00     0.129 C 
HETATM   30  N   UNL     1       4.284  34.165  53.874  1.00  0.00    -0.317 N 
HETATM   31  C   UNL     1       5.327  35.081  54.058  1.00  0.00     0.247 A 
HETATM   32  O   UNL     1       6.438  34.993  53.540  1.00  0.00    -0.268 OA
HETATM   33  C   UNL     1       5.031  36.249  54.923  1.00  0.00     0.074 A 
HETATM   34  C   UNL     1       3.812  36.402  55.450  1.00  0.00     0.007 A 
HETATM   35  C   UNL     1       2.780  35.430  55.201  1.00  0.00     0.026 A 
ENDBRANCH   2  22
BRANCH   5  36
HETATM   36  C   UNL     1       7.184  31.135  59.218  1.00  0.00     0.251 C 
HETATM   37  N   UNL     1       6.797  31.442  60.505  1.00  0.00    -0.353 N 
HETATM   38  H   UNL     1       5.815  31.409  60.747  1.00  0.00     0.163 HD
HETATM   39  O   UNL     1       8.335  30.850  58.905  1.00  0.00    -0.268 OA
BRANCH  37  40
HETATM   40  C   UNL     1       7.736  31.438  61.603  1.00  0.00     0.161 C 
BRANCH  40  41
HETATM   41  C   UNL     1       7.175  32.183  62.789  1.00  0.00    -0.041 A 
HETATM   42  C   UNL     1       8.018  32.829  63.703  1.00  0.00     0.009 A 
HETATM   43  C   UNL     1       7.483  33.527  64.789  1.00  0.00     0.001 A 
HETATM   44  C   UNL     1       6.103  33.584  64.974  1.00  0.00     0.000 A 
HETATM   45  C   UNL     1       5.254  32.944  64.074  1.00  0.00     0.001 A 
HETATM   46  C   UNL     1       5.786  32.248  62.987  1.00  0.00     0.009 A 
ENDBRANCH  40  41
ENDBRANCH  37  40
ENDBRANCH   5  36
TORSDOF 8
ENDMDL
MODEL 3
REMARK VINA RESULT:      -9.9      1.314      1.582
REMARK  8 active torsions:
REMARK  status: ('A' for Active; 'I' for Inactive)
REMARK    1  A    between atoms: C_2  and  O_3 
REMARK    2  A    between atoms: O_3  and  C_4 
REMARK    3  A    between atoms: C_7  and  N_8 
REMARK       I    between atoms: N_8  and  C_9 
REMARK       I    between atoms: C_9  and  N_10 
REMARK    4  A    between atoms: N_10  and  C_11 
REMARK    5  A    between atoms: C_12  and  N_13 
REMARK    6  A    between atoms: C_29  and  C_30 
REMARK       I    between atoms: C_30  and  N_31 
REMARK    7  A    between atoms: N_31  and  C_32 
REMARK    8  A    between atoms: C_32  and  C_33 
ROOT
HETATM    1  C   UNL     1       3.616  28.479  53.181  1.00  0.00     0.043 A 
HETATM    2  C   UNL     1       3.471  29.263  52.012  1.00  0.00     0.052 A 
HETATM    3  C   UNL     1       3.382  30.653  52.232  1.00  0.00     0.032 A 
HETATM    4  C   UNL     1       3.483  31.234  53.510  1.00  0.00     0.019 A 
HETATM    5  C   UNL     1       3.670  30.435  54.632  1.00  0.00     0.033 A 
HETATM    6  C   UNL     1       3.706  29.057  54.464  1.00  0.00     0.043 A 
ENDROOT
BRANCH   1   7
HETATM    7  N   UNL     1       3.670  27.057  53.160  1.00  0.00    -0.213 NA
HETATM    8  C   UNL     1       4.945  26.523  53.304  1.00  0.00     0.281 C 
HETATM    9  N   UNL     1       4.933  25.281  53.927  1.00  0.00    -0.215 NA
HETATM   10  O   UNL     1       5.957  27.150  52.997  1.00  0.00    -0.260 OA
HETATM   11  H   UNL     1       4.108  25.174  54.501  1.00  0.00     0.138 HD
HETATM   12  H   UNL     1       3.160  26.641  52.390  1.00  0.00     0.138 HD
BRANCH   9  13
HETATM   13  C   UNL     1       6.157  24.889  54.530  1.00  0.00     0.016 C 
HETATM   14  C   UNL     1       7.059  24.136  53.776  1.00  0.00     0.026 C 
HETATM   15  C   UNL     1       8.005  23.349  54.436  1.00  0.00     0.038 C 
HETATM   16  C   UNL     1       8.045  23.351  55.830  1.00  0.00     0.068 C 
HETATM   17  C   UNL     1       7.287  24.256  56.569  1.00  0.00     0.038 C 
HETATM   18  C   UNL     1       6.337  25.029  55.913  1.00  0.00     0.026 C 
BRANCH  16  19
HETATM   19  O   UNL     1       8.761  22.362  56.455  1.00  0.00    -0.352 OA
BRANCH  19  20
HETATM   20  C   UNL     1       9.033  21.309  55.509  1.00  0.00     0.171 C 
HETATM   21  C   UNL     1       8.441  20.014  56.026  1.00  0.00     0.034 C 
ENDBRANCH  19  20
ENDBRANCH  16  19
ENDBRANCH   9  13
ENDBRANCH   1   7
BRANCH   2  22
HETATM   22  N   UNL     1       3.454  28.721  50.722  1.00  0.00    -0.378 N 
HETATM   23  C   UNL     1       2.292  28.917  49.835  1.00  0.00     0.133 C 
HETATM   24  C   UNL     1       2.610  29.784  48.593  1.00  0.00     0.054 C 
HETATM   25  C   UNL     1       3.789  29.172  47.844  1.00  0.00     0.020 C 
HETATM   26  C   UNL     1       2.908  31.236  48.929  1.00  0.00     0.020 A 
HETATM   27  C   UNL     1       4.984  29.226  48.780  1.00  0.00     0.023 C 
HETATM   28  C   UNL     1       5.337  30.680  49.109  1.00  0.00     0.138 C 
HETATM   29  C   UNL     1       4.728  28.404  50.050  1.00  0.00     0.129 C 
HETATM   30  N   UNL     1       4.222  31.618  49.210  1.00  0.00    -0.317 N 
HETATM   31  C   UNL     1       4.571  32.939  49.518  1.00  0.00     0.247 A 
HETATM   32  O   UNL     1       5.716  33.331  49.732  1.00  0.00    -0.268 OA
HETATM   33  C   UNL     1       3.460  33.921  49.553  1.00  0.00     0.074 A 
HETATM   34  C   UNL     1       2.214  33.535  49.264  1.00  0.00     0.007 A 
HETATM   35  C   UNL     1       1.931  32.162  48.935  1.00  0.00     0.026 A 
ENDBRANCH   2  22
BRANCH   5  36
HETATM   36  C   UNL     1       3.787  31.057  55.982  1.00  0.00     0.251 C 
HETATM   37  N   UNL     1       5.032  31.544  56.320  1.00  0.00    -0.353 N 
HETATM   38  H   UNL     1       5.716  31.700  55.592  1.00  0.00     0.163 HD
HETATM   39  O   UNL     1       2.809  31.122  56.719  1.00  0.00    -0.268 OA
BRANCH  37  40
HETATM   40  C   UNL     1       5.276  32.189  57.590  1.00  0.00     0.161 C 
BRANCH  40  41
HETATM   41  C   UNL     1       6.408  31.513  58.324  1.00  0.00    -0.041 A 
HETATM   42  C   UNL     1       6.995  30.341  57.827  1.00  0.00     0.009 A 
HETATM   43  C   UNL     1       8.052  29.734  58.510  1.00  0.00     0.001 A 
HETATM   44  C   UNL     1       8.531  30.288  59.695  1.00  0.00     0.000 A 
HETATM   45  C   UNL     1       7.954  31.451  60.201  1.00  0.00     0.001 A 
HETATM   46  C   UNL     1       6.899  32.061  59.520  1.00  0.00     0.009 A 
ENDBRANCH  40  41
ENDBRANCH  37  40
ENDBRANCH   5  36
TORSDOF 8
ENDMDL
MODEL 4
REMARK VINA RESULT:      -9.7      3.516      6.212
REMARK  8 active torsions:
REMARK  status: ('A' for Active; 'I' for Inactive)
REMARK    1  A    between atoms: C_2  and  O_3 
REMARK    2  A    between atoms: O_3  and  C_4 
REMARK    3  A    between atoms: C_7  and  N_8 
REMARK       I    between atoms: N_8  and  C_9 
REMARK       I    between atoms: C_9  and  N_10 
REMARK    4  A    between atoms: N_10  and  C_11 
REMARK    5  A    between atoms: C_12  and  N_13 
REMARK    6  A    between atoms: C_29  and  C_30 
REMARK       I    between atoms: C_30  and  N_31 
REMARK    7  A    between atoms: N_31  and  C_32 
REMARK    8  A    between atoms: C_32  and  C_33 
ROOT
HETATM    1  C   UNL     1       4.249  30.156  51.977  1.00  0.00     0.043 A 
HETATM    2  C   UNL     1       3.895  29.577  50.736  1.00  0.00     0.052 A 
HETATM    3  C   UNL     1       2.735  30.110  50.136  1.00  0.00     0.032 A 
HETATM    4  C   UNL     1       2.006  31.176  50.695  1.00  0.00     0.019 A 
HETATM    5  C   UNL     1       2.409  31.751  51.895  1.00  0.00     0.033 A 
HETATM    6  C   UNL     1       3.514  31.217  52.545  1.00  0.00     0.043 A 
ENDROOT
BRANCH   1   7
HETATM    7  N   UNL     1       5.357  29.713  52.753  1.00  0.00    -0.213 NA
HETATM    8  C   UNL     1       5.161  28.502  53.406  1.00  0.00     0.281 C 
HETATM    9  N   UNL     1       6.343  27.790  53.570  1.00  0.00    -0.215 NA
HETATM   10  O   UNL     1       4.040  28.089  53.700  1.00  0.00    -0.260 OA
HETATM   11  H   UNL     1       7.024  28.057  52.872  1.00  0.00     0.138 HD
HETATM   12  H   UNL     1       5.737  30.426  53.363  1.00  0.00     0.138 HD
BRANCH   9  13
HETATM   13  C   UNL     1       6.191  26.394  53.780  1.00  0.00     0.016 C 
HETATM   14  C   UNL     1       6.229  25.909  55.088  1.00  0.00     0.026 C 
HETATM   15  C   UNL     1       6.559  24.571  55.307  1.00  0.00     0.038 C 
HETATM   16  C   UNL     1       6.819  23.742  54.216  1.00  0.00     0.068 C 
HETATM   17  C   UNL     1       6.579  24.173  52.914  1.00  0.00     0.038 C 
HETATM   18  C   UNL     1       6.263  25.509  52.696  1.00  0.00     0.026 C 
BRANCH  16  19
HETATM   19  O   UNL     1       7.427  22.536  54.454  1.00  0.00    -0.352 OA
BRANCH  19  20
HETATM   20  C   UNL     1       8.139  22.126  53.269  1.00  0.00     0.171 C 
HETATM   21  C   UNL     1       7.898  20.649  53.033  1.00  0.00     0.034 C 
ENDBRANCH  19  20
ENDBRANCH  16  19
ENDBRANCH   9  13
ENDBRANCH   1   7
BRANCH   2  22
HETATM   22  N   UNL     1       4.649  28.575  50.114  1.00  0.00    -0.378 N 
HETATM   23  C   UNL     1       4.119  27.205  49.978  1.00  0.00     0.133 C 
HETATM   24  C   UNL     1       3.856  26.794  48.509  1.00  0.00     0.054 C 
HETATM   25  C   UNL     1       5.136  26.982  47.700  1.00  0.00     0.020 C 
HETATM   26  C   UNL     1       2.716  27.561  47.861  1.00  0.00     0.020 A 
HETATM   27  C   UNL     1       5.462  28.466  47.727  1.00  0.00     0.023 C 
HETATM   28  C   UNL     1       4.349  29.268  47.045  1.00  0.00     0.138 C 
HETATM   29  C   UNL     1       5.711  28.949  49.162  1.00  0.00     0.129 C 
HETATM   30  N   UNL     1       2.987  28.764  47.203  1.00  0.00    -0.317 N 
HETATM   31  C   UNL     1       1.988  29.519  46.576  1.00  0.00     0.247 A 
HETATM   32  O   UNL     1       2.182  30.560  45.952  1.00  0.00    -0.268 OA
HETATM   33  C   UNL     1       0.608  28.984  46.663  1.00  0.00     0.074 A 
HETATM   34  C   UNL     1       0.377  27.822  47.283  1.00  0.00     0.007 A 
HETATM   35  C   UNL     1       1.457  27.088  47.888  1.00  0.00     0.026 A 
ENDBRANCH   2  22
BRANCH   5  36
HETATM   36  C   UNL     1       1.638  32.887  52.475  1.00  0.00     0.251 C 
HETATM   37  N   UNL     1       0.993  32.638  53.667  1.00  0.00    -0.353 N 
HETATM   38  H   UNL     1       1.263  31.833  54.216  1.00  0.00     0.163 HD
HETATM   39  O   UNL     1       1.608  33.970  51.899  1.00  0.00    -0.268 OA
BRANCH  37  40
HETATM   40  C   UNL     1       0.228  33.659  54.346  1.00  0.00     0.161 C 
BRANCH  40  41
HETATM   41  C   UNL     1      -1.220  33.253  54.463  1.00  0.00    -0.041 A 
HETATM   42  C   UNL     1      -1.853  33.182  55.711  1.00  0.00     0.009 A 
HETATM   43  C   UNL     1      -3.198  32.818  55.804  1.00  0.00     0.001 A 
HETATM   44  C   UNL     1      -3.924  32.518  54.652  1.00  0.00     0.000 A 
HETATM   45  C   UNL     1      -3.305  32.582  53.405  1.00  0.00     0.001 A 
HETATM   46  C   UNL     1      -1.962  32.947  53.311  1.00  0.00     0.009 A 
ENDBRANCH  40  41
ENDBRANCH  37  40
ENDBRANCH   5  36
TORSDOF 8
ENDMDL
MODEL 5
REMARK VINA RESULT:      -9.6      2.549      7.150
REMARK  8 active torsions:
REMARK  status: ('A' for Active; 'I' for Inactive)
REMARK    1  A    between atoms: C_2  and  O_3 
REMARK    2  A    between atoms: O_3  and  C_4 
REMARK    3  A    between atoms: C_7  and  N_8 
REMARK       I    between atoms: N_8  and  C_9 
REMARK       I    between atoms: C_9  and  N_10 
REMARK    4  A    between atoms: N_10  and  C_11 
REMARK    5  A    between atoms: C_12  and  N_13 
REMARK    6  A    between atoms: C_29  and  C_30 
REMARK       I    between atoms: C_30  and  N_31 
REMARK    7  A    between atoms: N_31  and  C_32 
REMARK    8  A    between atoms: C_32  and  C_33 
ROOT
HETATM    1  C   UNL     1       4.652  29.514  53.419  1.00  0.00     0.043 A 
HETATM    2  C   UNL     1       4.048  29.174  52.186  1.00  0.00     0.052 A 
HETATM    3  C   UNL     1       4.136  27.812  51.831  1.00  0.00     0.032 A 
HETATM    4  C   UNL     1       4.730  26.843  52.660  1.00  0.00     0.019 A 
HETATM    5  C   UNL     1       5.275  27.205  53.887  1.00  0.00     0.033 A 
HETATM    6  C   UNL     1       5.258  28.546  54.247  1.00  0.00     0.043 A 
ENDROOT
BRANCH   1   7
HETATM    7  N   UNL     1       4.707  30.846  53.916  1.00  0.00    -0.213 NA
HETATM    8  C   UNL     1       4.386  30.977  55.262  1.00  0.00     0.281 C 
HETATM    9  N   UNL     1       5.048  32.040  55.865  1.00  0.00    -0.215 NA
HETATM   10  O   UNL     1       3.672  30.165  55.848  1.00  0.00    -0.260 OA
HETATM   11  H   UNL     1       5.901  32.261  55.368  1.00  0.00     0.138 HD
HETATM   12  H   UNL     1       4.222  31.517  53.334  1.00  0.00     0.138 HD
BRANCH   9  13
HETATM   13  C   UNL     1       5.159  31.967  57.278  1.00  0.00     0.016 C 
HETATM   14  C   UNL     1       4.369  32.818  58.052  1.00  0.00     0.026 C 
HETATM   15  C   UNL     1       4.770  33.119  59.355  1.00  0.00     0.038 C 
HETATM   16  C   UNL     1       5.936  32.546  59.863  1.00  0.00     0.068 C 
HETATM   17  C   UNL     1       6.605  31.543  59.166  1.00  0.00     0.038 C 
HETATM   18  C   UNL     1       6.213  31.253  57.864  1.00  0.00     0.026 C 
BRANCH  16  19
HETATM   19  O   UNL     1       6.469  33.078  61.009  1.00  0.00    -0.352 OA
BRANCH  19  20
HETATM   20  C   UNL     1       7.822  32.607  61.160  1.00  0.00     0.171 C 
HETATM   21  C   UNL     1       8.077  32.293  62.621  1.00  0.00     0.034 C 
ENDBRANCH  19  20
ENDBRANCH  16  19
ENDBRANCH   9  13
ENDBRANCH   1   7
BRANCH   2  22
HETATM   22  N   UNL     1       3.375  30.100  51.380  1.00  0.00    -0.378 N 
HETATM   23  C   UNL     1       4.100  30.889  50.367  1.00  0.00     0.133 C 
HETATM   24  C   UNL     1       3.690  30.545  48.915  1.00  0.00     0.054 C 
HETATM   25  C   UNL     1       2.179  30.703  48.771  1.00  0.00     0.020 C 
HETATM   26  C   UNL     1       4.108  29.150  48.482  1.00  0.00     0.020 A 
HETATM   27  C   UNL     1       1.538  29.686  49.700  1.00  0.00     0.023 C 
HETATM   28  C   UNL     1       1.908  28.264  49.268  1.00  0.00     0.138 C 
HETATM   29  C   UNL     1       1.924  29.953  51.161  1.00  0.00     0.129 C 
HETATM   30  N   UNL     1       3.242  28.076  48.705  1.00  0.00    -0.317 N 
HETATM   31  C   UNL     1       3.557  26.765  48.325  1.00  0.00     0.247 A 
HETATM   32  O   UNL     1       2.815  25.796  48.463  1.00  0.00    -0.268 OA
HETATM   33  C   UNL     1       4.881  26.567  47.685  1.00  0.00     0.074 A 
HETATM   34  C   UNL     1       5.684  27.613  47.466  1.00  0.00     0.007 A 
HETATM   35  C   UNL     1       5.285  28.938  47.865  1.00  0.00     0.026 A 
ENDBRANCH   2  22
BRANCH   5  36
HETATM   36  C   UNL     1       5.892  26.171  54.765  1.00  0.00     0.251 C 
HETATM   37  N   UNL     1       7.235  25.931  54.569  1.00  0.00    -0.353 N 
HETATM   38  H   UNL     1       7.789  26.606  54.058  1.00  0.00     0.163 HD
HETATM   39  O   UNL     1       5.215  25.592  55.608  1.00  0.00    -0.268 OA
BRANCH  37  40
HETATM   40  C   UNL     1       7.960  24.968  55.366  1.00  0.00     0.161 C 
BRANCH  40  41
HETATM   41  C   UNL     1       7.923  23.604  54.722  1.00  0.00    -0.041 A 
HETATM   42  C   UNL     1       7.811  22.441  55.496  1.00  0.00     0.009 A 
HETATM   43  C   UNL     1       7.764  21.186  54.886  1.00  0.00     0.001 A 
HETATM   44  C   UNL     1       7.831  21.079  53.498  1.00  0.00     0.000 A 
HETATM   45  C   UNL     1       7.946  22.227  52.717  1.00  0.00     0.001 A 
HETATM   46  C   UNL     1       7.991  23.483  53.325  1.00  0.00     0.009 A 
ENDBRANCH  40  41
ENDBRANCH  37  40
ENDBRANCH   5  36
TORSDOF 8
ENDMDL
MODEL 6
REMARK VINA RESULT:      -9.5      3.000      9.614
REMARK  8 active torsions:
REMARK  status: ('A' for Active; 'I' for Inactive)
REMARK    1  A    between atoms: C_2  and  O_3 
REMARK    2  A    between atoms: O_3  and  C_4 
REMARK    3  A    between atoms: C_7  and  N_8 
REMARK       I    between atoms: N_8  and  C_9 
REMARK       I    between atoms: C_9  and  N_10 
REMARK    4  A    between atoms: N_10  and  C_11 
REMARK    5  A    between atoms: C_12  and  N_13 
REMARK    6  A    between atoms: C_29  and  C_30 
REMARK       I    between atoms: C_30  and  N_31 
REMARK    7  A    between atoms: N_31  and  C_32 
REMARK    8  A    between atoms: C_32  and  C_33 
ROOT
HETATM    1  C   UNL     1       4.597  30.944  54.619  1.00  0.00     0.043 A 
HETATM    2  C   UNL     1       4.940  29.684  55.163  1.00  0.00     0.052 A 
HETATM    3  C   UNL     1       4.421  28.572  54.468  1.00  0.00     0.032 A 
HETATM    4  C   UNL     1       3.664  28.692  53.288  1.00  0.00     0.019 A 
HETATM    5  C   UNL     1       3.384  29.946  52.757  1.00  0.00     0.033 A 
HETATM    6  C   UNL     1       3.828  31.069  53.442  1.00  0.00     0.043 A 
ENDROOT
BRANCH   1   7
HETATM    7  N   UNL     1       4.986  32.178  55.213  1.00  0.00    -0.213 NA
HETATM    8  C   UNL     1       4.484  32.390  56.491  1.00  0.00     0.281 C 
HETATM    9  N   UNL     1       5.330  33.169  57.271  1.00  0.00    -0.215 NA
HETATM   10  O   UNL     1       3.452  31.850  56.889  1.00  0.00    -0.260 OA
HETATM   11  H   UNL     1       6.284  33.103  56.943  1.00  0.00     0.138 HD
HETATM   12  H   UNL     1       4.857  32.979  54.607  1.00  0.00     0.138 HD
BRANCH   9  13
HETATM   13  C   UNL     1       5.152  33.045  58.675  1.00  0.00     0.016 C 
HETATM   14  C   UNL     1       4.439  34.041  59.345  1.00  0.00     0.026 C 
HETATM   15  C   UNL     1       4.643  34.216  60.715  1.00  0.00     0.038 C 
HETATM   16  C   UNL     1       5.533  33.380  61.388  1.00  0.00     0.068 C 
HETATM   17  C   UNL     1       6.082  32.263  60.762  1.00  0.00     0.038 C 
HETATM   18  C   UNL     1       5.889  32.096  59.396  1.00  0.00     0.026 C 
BRANCH  16  19
HETATM   19  O   UNL     1       5.944  33.752  62.642  1.00  0.00    -0.352 OA
BRANCH  19  20
HETATM   20  C   UNL     1       7.115  32.991  62.998  1.00  0.00     0.171 C 
HETATM   21  C   UNL     1       7.511  33.329  64.422  1.00  0.00     0.034 C 
ENDBRANCH  19  20
ENDBRANCH  16  19
ENDBRANCH   9  13
ENDBRANCH   1   7
BRANCH   2  22
HETATM   22  N   UNL     1       5.762  29.531  56.285  1.00  0.00    -0.378 N 
HETATM   23  C   UNL     1       5.449  28.528  57.320  1.00  0.00     0.133 C 
HETATM   24  C   UNL     1       6.493  27.389  57.404  1.00  0.00     0.054 C 
HETATM   25  C   UNL     1       7.878  27.994  57.611  1.00  0.00     0.020 C 
HETATM   26  C   UNL     1       6.501  26.484  56.183  1.00  0.00     0.020 A 
HETATM   27  C   UNL     1       8.185  28.830  56.380  1.00  0.00     0.023 C 
HETATM   28  C   UNL     1       8.238  27.941  55.133  1.00  0.00     0.138 C 
HETATM   29  C   UNL     1       7.169  29.969  56.220  1.00  0.00     0.129 C 
HETATM   30  N   UNL     1       7.321  26.805  55.098  1.00  0.00    -0.317 N 
HETATM   31  C   UNL     1       7.386  26.013  53.944  1.00  0.00     0.247 A 
HETATM   32  O   UNL     1       8.119  26.231  52.983  1.00  0.00    -0.268 OA
HETATM   33  C   UNL     1       6.514  24.813  53.922  1.00  0.00     0.074 A 
HETATM   34  C   UNL     1       5.751  24.518  54.979  1.00  0.00     0.007 A 
HETATM   35  C   UNL     1       5.751  25.367  56.142  1.00  0.00     0.026 A 
ENDBRANCH   2  22
BRANCH   5  36
HETATM   36  C   UNL     1       2.591  30.065  51.500  1.00  0.00     0.251 C 
HETATM   37  N   UNL     1       2.358  28.892  50.815  1.00  0.00    -0.353 N 
HETATM   38  H   UNL     1       2.488  28.008  51.290  1.00  0.00     0.163 HD
HETATM   39  O   UNL     1       2.179  31.160  51.132  1.00  0.00    -0.268 OA
BRANCH  37  40
HETATM   40  C   UNL     1       1.585  28.865  49.594  1.00  0.00     0.161 C 
BRANCH  40  41
HETATM   41  C   UNL     1       2.061  27.759  48.685  1.00  0.00    -0.041 A 
HETATM   42  C   UNL     1       3.334  27.192  48.839  1.00  0.00     0.009 A 
HETATM   43  C   UNL     1       3.756  26.159  47.999  1.00  0.00     0.001 A 
HETATM   44  C   UNL     1       2.913  25.683  46.996  1.00  0.00     0.000 A 
HETATM   45  C   UNL     1       1.647  26.240  46.830  1.00  0.00     0.001 A 
HETATM   46  C   UNL     1       1.222  27.271  47.670  1.00  0.00     0.009 A 
ENDBRANCH  40  41
ENDBRANCH  37  40
ENDBRANCH   5  36
TORSDOF 8
ENDMDL
MODEL 7
REMARK VINA RESULT:      -9.5      1.984      2.885
REMARK  8 active torsions:
REMARK  status: ('A' for Active; 'I' for Inactive)
REMARK    1  A    between atoms: C_2  and  O_3 
REMARK    2  A    between atoms: O_3  and  C_4 
REMARK    3  A    between atoms: C_7  and  N_8 
REMARK       I    between atoms: N_8  and  C_9 
REMARK       I    between atoms: C_9  and  N_10 
REMARK    4  A    between atoms: N_10  and  C_11 
REMARK    5  A    between atoms: C_12  and  N_13 
REMARK    6  A    between atoms: C_29  and  C_30 
REMARK       I    between atoms: C_30  and  N_31 
REMARK    7  A    between atoms: N_31  and  C_32 
REMARK    8  A    between atoms: C_32  and  C_33 
ROOT
HETATM    1  C   UNL     1       3.924  28.061  53.441  1.00  0.00     0.043 A 
HETATM    2  C   UNL     1       3.518  29.004  52.467  1.00  0.00     0.052 A 
HETATM    3  C   UNL     1       3.491  30.344  52.906  1.00  0.00     0.032 A 
HETATM    4  C   UNL     1       3.889  30.733  54.199  1.00  0.00     0.019 A 
HETATM    5  C   UNL     1       4.325  29.785  55.116  1.00  0.00     0.033 A 
HETATM    6  C   UNL     1       4.312  28.448  54.741  1.00  0.00     0.043 A 
ENDROOT
BRANCH   1   7
HETATM    7  N   UNL     1       3.962  26.660  53.197  1.00  0.00    -0.213 NA
HETATM    8  C   UNL     1       5.238  26.136  53.025  1.00  0.00     0.281 C 
HETATM    9  N   UNL     1       5.331  24.815  53.446  1.00  0.00    -0.215 NA
HETATM   10  O   UNL     1       6.182  26.822  52.638  1.00  0.00    -0.260 OA
HETATM   11  H   UNL     1       4.623  24.607  54.138  1.00  0.00     0.138 HD
HETATM   12  H   UNL     1       3.318  26.354  52.479  1.00  0.00     0.138 HD
BRANCH   9  13
HETATM   13  C   UNL     1       6.641  24.361  53.750  1.00  0.00     0.016 C 
HETATM   14  C   UNL     1       7.269  23.493  52.856  1.00  0.00     0.026 C 
HETATM   15  C   UNL     1       8.301  22.673  53.318  1.00  0.00     0.038 C 
HETATM   16  C   UNL     1       8.698  22.757  54.652  1.00  0.00     0.068 C 
HETATM   17  C   UNL     1       8.214  23.763  55.483  1.00  0.00     0.038 C 
HETATM   18  C   UNL     1       7.178  24.570  55.028  1.00  0.00     0.026 C 
BRANCH  16  19
HETATM   19  O   UNL     1       9.486  21.752  55.153  1.00  0.00    -0.352 OA
BRANCH  19  20
HETATM   20  C   UNL     1       8.777  20.502  55.049  1.00  0.00     0.171 C 
HETATM   21  C   UNL     1       7.903  20.324  56.274  1.00  0.00     0.034 C 
ENDBRANCH  19  20
ENDBRANCH  16  19
ENDBRANCH   9  13
ENDBRANCH   1   7
BRANCH   2  22
HETATM   22  N   UNL     1       3.199  28.656  51.149  1.00  0.00    -0.378 N 
HETATM   23  C   UNL     1       1.968  29.159  50.512  1.00  0.00     0.133 C 
HETATM   24  C   UNL     1       2.240  30.128  49.335  1.00  0.00     0.054 C 
HETATM   25  C   UNL     1       3.154  29.442  48.325  1.00  0.00     0.020 C 
HETATM   26  C   UNL     1       2.848  31.451  49.769  1.00  0.00     0.020 A 
HETATM   27  C   UNL     1       4.471  29.172  49.032  1.00  0.00     0.023 C 
HETATM   28  C   UNL     1       5.132  30.489  49.449  1.00  0.00     0.138 C 
HETATM   29  C   UNL     1       4.272  28.234  50.229  1.00  0.00     0.129 C 
HETATM   30  N   UNL     1       4.238  31.573  49.850  1.00  0.00    -0.317 N 
HETATM   31  C   UNL     1       4.867  32.764  50.234  1.00  0.00     0.247 A 
HETATM   32  O   UNL     1       6.083  32.932  50.281  1.00  0.00    -0.268 OA
HETATM   33  C   UNL     1       3.974  33.898  50.574  1.00  0.00     0.074 A 
HETATM   34  C   UNL     1       2.648  33.762  50.472  1.00  0.00     0.007 A 
HETATM   35  C   UNL     1       2.070  32.513  50.051  1.00  0.00     0.026 A 
ENDBRANCH   2  22
BRANCH   5  36
HETATM   36  C   UNL     1       4.755  30.206  56.480  1.00  0.00     0.251 C 
HETATM   37  N   UNL     1       5.300  31.468  56.582  1.00  0.00    -0.353 N 
HETATM   38  H   UNL     1       5.154  32.132  55.833  1.00  0.00     0.163 HD
HETATM   39  O   UNL     1       4.611  29.449  57.434  1.00  0.00    -0.268 OA
BRANCH  37  40
HETATM   40  C   UNL     1       5.739  32.006  57.849  1.00  0.00     0.161 C 
BRANCH  40  41
HETATM   41  C   UNL     1       4.699  32.937  58.424  1.00  0.00    -0.041 A 
HETATM   42  C   UNL     1       4.116  32.687  59.673  1.00  0.00     0.009 A 
HETATM   43  C   UNL     1       3.165  33.564  60.199  1.00  0.00     0.001 A 
HETATM   44  C   UNL     1       2.785  34.697  59.482  1.00  0.00     0.000 A 
HETATM   45  C   UNL     1       3.355  34.955  58.238  1.00  0.00     0.001 A 
HETATM   46  C   UNL     1       4.307  34.081  57.711  1.00  0.00     0.009 A 
ENDBRANCH  40  41
ENDBRANCH  37  40
ENDBRANCH   5  36
TORSDOF 8
ENDMDL
MODEL 8
REMARK VINA RESULT:      -9.1      2.887      7.485
REMARK  8 active torsions:
REMARK  status: ('A' for Active; 'I' for Inactive)
REMARK    1  A    between atoms: C_2  and  O_3 
REMARK    2  A    between atoms: O_3  and  C_4 
REMARK    3  A    between atoms: C_7  and  N_8 
REMARK       I    between atoms: N_8  and  C_9 
REMARK       I    between atoms: C_9  and  N_10 
REMARK    4  A    between atoms: N_10  and  C_11 
REMARK    5  A    between atoms: C_12  and  N_13 
REMARK    6  A    between atoms: C_29  and  C_30 
REMARK       I    between atoms: C_30  and  N_31 
REMARK    7  A    between atoms: N_31  and  C_32 
REMARK    8  A    between atoms: C_32  and  C_33 
ROOT
HETATM    1  C   UNL     1       4.491  30.033  52.972  1.00  0.00     0.043 A 
HETATM    2  C   UNL     1       3.770  29.544  51.857  1.00  0.00     0.052 A 
HETATM    3  C   UNL     1       3.707  28.139  51.755  1.00  0.00     0.032 A 
HETATM    4  C   UNL     1       4.269  27.276  52.714  1.00  0.00     0.019 A 
HETATM    5  C   UNL     1       4.933  27.793  53.821  1.00  0.00     0.033 A 
HETATM    6  C   UNL     1       5.065  29.171  53.929  1.00  0.00     0.043 A 
ENDROOT
BRANCH   1   7
HETATM    7  N   UNL     1       4.704  31.420  53.211  1.00  0.00    -0.213 NA
HETATM    8  C   UNL     1       4.138  31.900  54.386  1.00  0.00     0.281 C 
HETATM    9  N   UNL     1       4.854  32.960  54.927  1.00  0.00    -0.215 NA
HETATM   10  O   UNL     1       3.168  31.358  54.915  1.00  0.00    -0.260 OA
HETATM   11  H   UNL     1       5.820  32.932  54.627  1.00  0.00     0.138 HD
HETATM   12  H   UNL     1       4.498  32.007  52.413  1.00  0.00     0.138 HD
BRANCH   9  13
HETATM   13  C   UNL     1       4.646  33.193  56.312  1.00  0.00     0.016 C 
HETATM   14  C   UNL     1       5.152  32.268  57.226  1.00  0.00     0.026 C 
HETATM   15  C   UNL     1       4.586  32.193  58.500  1.00  0.00     0.038 C 
HETATM   16  C   UNL     1       3.546  33.057  58.840  1.00  0.00     0.068 C 
HETATM   17  C   UNL     1       3.186  34.111  58.003  1.00  0.00     0.038 C 
HETATM   18  C   UNL     1       3.741  34.177  56.730  1.00  0.00     0.026 C 
BRANCH  16  19
HETATM   19  O   UNL     1       2.811  32.772  59.962  1.00  0.00    -0.352 OA
BRANCH  19  20
HETATM   20  C   UNL     1       2.773  33.939  60.807  1.00  0.00     0.171 C 
HETATM   21  C   UNL     1       3.508  33.640  62.098  1.00  0.00     0.034 C 
ENDBRANCH  19  20
ENDBRANCH  16  19
ENDBRANCH   9  13
ENDBRANCH   1   7
BRANCH   2  22
HETATM   22  N   UNL     1       3.127  30.377  50.934  1.00  0.00    -0.378 N 
HETATM   23  C   UNL     1       3.893  31.070  49.880  1.00  0.00     0.133 C 
HETATM   24  C   UNL     1       3.553  30.578  48.453  1.00  0.00     0.054 C 
HETATM   25  C   UNL     1       2.050  30.702  48.226  1.00  0.00     0.020 C 
HETATM   26  C   UNL     1       4.002  29.152  48.181  1.00  0.00     0.020 A 
HETATM   27  C   UNL     1       1.374  29.774  49.222  1.00  0.00     0.023 C 
HETATM   28  C   UNL     1       1.775  28.320  48.951  1.00  0.00     0.138 C 
HETATM   29  C   UNL     1       1.689  30.190  50.664  1.00  0.00     0.129 C 
HETATM   30  N   UNL     1       3.136  28.094  48.471  1.00  0.00    -0.317 N 
HETATM   31  C   UNL     1       3.480  26.757  48.239  1.00  0.00     0.247 A 
HETATM   32  O   UNL     1       2.739  25.797  48.439  1.00  0.00    -0.268 OA
HETATM   33  C   UNL     1       4.833  26.513  47.682  1.00  0.00     0.074 A 
HETATM   34  C   UNL     1       5.636  27.543  47.397  1.00  0.00     0.007 A 
HETATM   35  C   UNL     1       5.208  28.895  47.643  1.00  0.00     0.026 A 
ENDBRANCH   2  22
BRANCH   5  36
HETATM   36  C   UNL     1       5.516  26.873  54.839  1.00  0.00     0.251 C 
HETATM   37  N   UNL     1       6.611  26.139  54.438  1.00  0.00    -0.353 N 
HETATM   38  H   UNL     1       7.121  26.423  53.612  1.00  0.00     0.163 HD
HETATM   39  O   UNL     1       5.027  26.805  55.962  1.00  0.00    -0.268 OA
BRANCH  37  40
HETATM   40  C   UNL     1       7.284  25.225  55.333  1.00  0.00     0.161 C 
BRANCH  40  41
HETATM   41  C   UNL     1       7.546  23.905  54.652  1.00  0.00    -0.041 A 
HETATM   42  C   UNL     1       7.543  22.704  55.375  1.00  0.00     0.009 A 
HETATM   43  C   UNL     1       7.773  21.488  54.729  1.00  0.00     0.001 A 
HETATM   44  C   UNL     1       8.011  21.457  53.356  1.00  0.00     0.000 A 
HETATM   45  C   UNL     1       8.019  22.644  52.627  1.00  0.00     0.001 A 
HETATM   46  C   UNL     1       7.787  23.861  53.270  1.00  0.00     0.009 A 
ENDBRANCH  40  41
ENDBRANCH  37  40
ENDBRANCH   5  36
TORSDOF 8
ENDMDL
MODEL 9
REMARK VINA RESULT:      -9.1      3.655      8.127
REMARK  8 active torsions:
REMARK  status: ('A' for Active; 'I' for Inactive)
REMARK    1  A    between atoms: C_2  and  O_3 
REMARK    2  A    between atoms: O_3  and  C_4 
REMARK    3  A    between atoms: C_7  and  N_8 
REMARK       I    between atoms: N_8  and  C_9 
REMARK       I    between atoms: C_9  and  N_10 
REMARK    4  A    between atoms: N_10  and  C_11 
REMARK    5  A    between atoms: C_12  and  N_13 
REMARK    6  A    between atoms: C_29  and  C_30 
REMARK       I    between atoms: C_30  and  N_31 
REMARK    7  A    between atoms: N_31  and  C_32 
REMARK    8  A    between atoms: C_32  and  C_33 
ROOT
HETATM    1  C   UNL     1       4.813  31.399  55.661  1.00  0.00     0.043 A 
HETATM    2  C   UNL     1       4.172  31.470  54.402  1.00  0.00     0.052 A 
HETATM    3  C   UNL     1       4.004  30.233  53.746  1.00  0.00     0.032 A 
HETATM    4  C   UNL     1       4.392  29.006  54.316  1.00  0.00     0.019 A 
HETATM    5  C   UNL     1       4.978  28.970  55.576  1.00  0.00     0.033 A 
HETATM    6  C   UNL     1       5.213  30.172  56.230  1.00  0.00     0.043 A 
ENDROOT
BRANCH   1   7
HETATM    7  N   UNL     1       5.114  32.549  56.445  1.00  0.00    -0.213 NA
HETATM    8  C   UNL     1       4.175  32.845  57.425  1.00  0.00     0.281 C 
HETATM    9  N   UNL     1       4.740  33.467  58.532  1.00  0.00    -0.215 NA
HETATM   10  O   UNL     1       3.000  32.491  57.336  1.00  0.00    -0.260 OA
HETATM   11  H   UNL     1       5.722  33.239  58.611  1.00  0.00     0.138 HD
HETATM   12  H   UNL     1       5.371  33.359  55.896  1.00  0.00     0.138 HD
BRANCH   9  13
HETATM   13  C   UNL     1       3.988  33.378  59.733  1.00  0.00     0.016 C 
HETATM   14  C   UNL     1       3.475  34.552  60.286  1.00  0.00     0.026 C 
HETATM   15  C   UNL     1       3.166  34.583  61.647  1.00  0.00     0.038 C 
HETATM   16  C   UNL     1       3.352  33.437  62.418  1.00  0.00     0.068 C 
HETATM   17  C   UNL     1       3.665  32.216  61.825  1.00  0.00     0.038 C 
HETATM   18  C   UNL     1       3.985  32.188  60.473  1.00  0.00     0.026 C 
BRANCH  16  19
HETATM   19  O   UNL     1       3.335  33.568  63.783  1.00  0.00    -0.352 OA
BRANCH  19  20
HETATM   20  C   UNL     1       4.686  33.732  64.257  1.00  0.00     0.171 C 
HETATM   21  C   UNL     1       4.673  33.825  65.769  1.00  0.00     0.034 C 
ENDBRANCH  19  20
ENDBRANCH  16  19
ENDBRANCH   9  13
ENDBRANCH   1   7
BRANCH   2  22
HETATM   22  N   UNL     1       3.698  32.665  53.848  1.00  0.00    -0.378 N 
HETATM   23  C   UNL     1       4.606  33.574  53.123  1.00  0.00     0.133 C 
HETATM   24  C   UNL     1       4.279  33.689  51.614  1.00  0.00     0.054 C 
HETATM   25  C   UNL     1       2.821  34.103  51.448  1.00  0.00     0.020 C 
HETATM   26  C   UNL     1       4.545  32.409  50.839  1.00  0.00     0.020 A 
HETATM   27  C   UNL     1       1.974  32.987  52.034  1.00  0.00     0.023 C 
HETATM   28  C   UNL     1       2.188  31.688  51.250  1.00  0.00     0.138 C 
HETATM   29  C   UNL     1       2.265  32.800  53.529  1.00  0.00     0.129 C 
HETATM   30  N   UNL     1       3.530  31.456  50.721  1.00  0.00    -0.317 N 
HETATM   31  C   UNL     1       3.701  30.259  50.014  1.00  0.00     0.247 A 
HETATM   32  O   UNL     1       2.828  29.411  49.848  1.00  0.00    -0.268 OA
HETATM   33  C   UNL     1       5.037  30.040  49.407  1.00  0.00     0.074 A 
HETATM   34  C   UNL     1       5.986  30.974  49.519  1.00  0.00     0.007 A 
HETATM   35  C   UNL     1       5.733  32.192  50.244  1.00  0.00     0.026 A 
ENDBRANCH   2  22
BRANCH   5  36
HETATM   36  C   UNL     1       5.376  27.666  56.178  1.00  0.00     0.251 C 
HETATM   37  N   UNL     1       5.224  26.555  55.377  1.00  0.00    -0.353 N 
HETATM   38  H   UNL     1       5.111  26.677  54.379  1.00  0.00     0.163 HD
HETATM   39  O   UNL     1       5.817  27.623  57.322  1.00  0.00    -0.268 OA
BRANCH  37  40
HETATM   40  C   UNL     1       5.590  25.233  55.831  1.00  0.00     0.161 C 
BRANCH  40  41
HETATM   41  C   UNL     1       6.449  24.534  54.807  1.00  0.00    -0.041 A 
HETATM   42  C   UNL     1       6.553  25.021  53.496  1.00  0.00     0.009 A 
HETATM   43  C   UNL     1       7.363  24.372  52.562  1.00  0.00     0.001 A 
HETATM   44  C   UNL     1       8.075  23.230  52.925  1.00  0.00     0.000 A 
HETATM   45  C   UNL     1       7.978  22.735  54.224  1.00  0.00     0.001 A 
HETATM   46  C   UNL     1       7.171  23.383  55.160  1.00  0.00     0.009 A 
ENDBRANCH  40  41
ENDBRANCH  37  40
ENDBRANCH   5  36
TORSDOF 8
ENDMDL
MODEL 10
REMARK VINA RESULT:      -8.9      2.974      7.140
REMARK  8 active torsions:
REMARK  status: ('A' for Active; 'I' for Inactive)
REMARK    1  A    between atoms: C_2  and  O_3 
REMARK    2  A    between atoms: O_3  and  C_4 
REMARK    3  A    between atoms: C_7  and  N_8 
REMARK       I    between atoms: N_8  and  C_9 
REMARK       I    between atoms: C_9  and  N_10 
REMARK    4  A    between atoms: N_10  and  C_11 
REMARK    5  A    between atoms: C_12  and  N_13 
REMARK    6  A    between atoms: C_29  and  C_30 
REMARK       I    between atoms: C_30  and  N_31 
REMARK    7  A    between atoms: N_31  and  C_32 
REMARK    8  A    between atoms: C_32  and  C_33 
ROOT
HETATM    1  C   UNL     1       5.372  29.029  51.999  1.00  0.00     0.043 A 
HETATM    2  C   UNL     1       4.522  30.112  52.323  1.00  0.00     0.052 A 
HETATM    3  C   UNL     1       4.128  30.179  53.676  1.00  0.00     0.032 A 
HETATM    4  C   UNL     1       4.584  29.274  54.652  1.00  0.00     0.019 A 
HETATM    5  C   UNL     1       5.455  28.247  54.306  1.00  0.00     0.033 A 
HETATM    6  C   UNL     1       5.822  28.113  52.973  1.00  0.00     0.043 A 
ENDROOT
BRANCH   1   7
HETATM    7  N   UNL     1       5.830  28.769  50.677  1.00  0.00    -0.213 NA
HETATM    8  C   UNL     1       4.924  28.089  49.872  1.00  0.00     0.281 C 
HETATM    9  N   UNL     1       5.056  28.417  48.528  1.00  0.00    -0.215 NA
HETATM   10  O   UNL     1       4.048  27.362  50.340  1.00  0.00    -0.260 OA
HETATM   11  H   UNL     1       5.471  29.333  48.421  1.00  0.00     0.138 HD
HETATM   12  H   UNL     1       6.758  28.369  50.639  1.00  0.00     0.138 HD
BRANCH   9  13
HETATM   13  C   UNL     1       3.916  28.159  47.722  1.00  0.00     0.016 C 
HETATM   14  C   UNL     1       3.000  29.192  47.516  1.00  0.00     0.026 C 
HETATM   15  C   UNL     1       1.688  28.874  47.160  1.00  0.00     0.038 C 
HETATM   16  C   UNL     1       1.327  27.538  46.995  1.00  0.00     0.068 C 
HETATM   17  C   UNL     1       2.287  26.529  46.998  1.00  0.00     0.038 C 
HETATM   18  C   UNL     1       3.591  26.844  47.365  1.00  0.00     0.026 C 
BRANCH  16  19
HETATM   19  O   UNL     1      -0.009  27.232  46.946  1.00  0.00    -0.352 OA
BRANCH  19  20
HETATM   20  C   UNL     1      -0.672  28.163  46.068  1.00  0.00     0.171 C 
HETATM   21  C   UNL     1      -0.731  27.572  44.673  1.00  0.00     0.034 C 
ENDBRANCH  19  20
ENDBRANCH  16  19
ENDBRANCH   9  13
ENDBRANCH   1   7
BRANCH   2  22
HETATM   22  N   UNL     1       4.120  31.077  51.393  1.00  0.00    -0.378 N 
HETATM   23  C   UNL     1       2.706  31.481  51.285  1.00  0.00     0.133 C 
HETATM   24  C   UNL     1       2.455  32.950  51.705  1.00  0.00     0.054 C 
HETATM   25  C   UNL     1       3.363  33.865  50.889  1.00  0.00     0.020 C 
HETATM   26  C   UNL     1       2.667  33.199  53.189  1.00  0.00     0.020 A 
HETATM   27  C   UNL     1       4.794  33.505  51.250  1.00  0.00     0.023 C 
HETATM   28  C   UNL     1       5.054  33.782  52.734  1.00  0.00     0.138 C 
HETATM   29  C   UNL     1       5.106  32.048  50.882  1.00  0.00     0.129 C 
HETATM   30  N   UNL     1       3.938  33.557  53.649  1.00  0.00    -0.317 N 
HETATM   31  C   UNL     1       4.204  33.811  55.000  1.00  0.00     0.247 A 
HETATM   32  O   UNL     1       5.292  34.167  55.446  1.00  0.00    -0.268 OA
HETATM   33  C   UNL     1       3.062  33.658  55.934  1.00  0.00     0.074 A 
HETATM   34  C   UNL     1       1.852  33.332  55.468  1.00  0.00     0.007 A 
HETATM   35  C   UNL     1       1.647  33.106  54.061  1.00  0.00     0.026 A 
ENDBRANCH   2  22
BRANCH   5  36
HETATM   36  C   UNL     1       5.943  27.299  55.347  1.00  0.00     0.251 C 
HETATM   37  N   UNL     1       6.255  26.028  54.913  1.00  0.00    -0.353 N 
HETATM   38  H   UNL     1       6.394  25.864  53.925  1.00  0.00     0.163 HD
HETATM   39  O   UNL     1       6.055  27.665  56.512  1.00  0.00    -0.268 OA
BRANCH  37  40
HETATM   40  C   UNL     1       6.757  25.018  55.816  1.00  0.00     0.161 C 
BRANCH  40  41
HETATM   41  C   UNL     1       7.451  23.916  55.053  1.00  0.00    -0.041 A 
HETATM   42  C   UNL     1       7.182  23.696  53.695  1.00  0.00     0.009 A 
HETATM   43  C   UNL     1       7.842  22.681  52.998  1.00  0.00     0.001 A 
HETATM   44  C   UNL     1       8.774  21.876  53.649  1.00  0.00     0.000 A 
HETATM   45  C   UNL     1       9.049  22.083  54.999  1.00  0.00     0.001 A 
HETATM   46  C   UNL     1       8.392  23.098  55.697  1.00  0.00     0.009 A 
ENDBRANCH  40  41
ENDBRANCH  37  40
ENDBRANCH   5  36
TORSDOF 8
ENDMDL
