MODEL 1
REMARK VINA RESULT:     -10.1      0.000      0.000
REMARK  9 active torsions:
REMARK  status: ('A' for Active; 'I' for Inactive)
REMARK    1  A    between atoms: C_2  and  C_3 
REMARK    2  A    between atoms: C_4  and  O_5 
REMARK    3  A    between atoms: C_6  and  C_7 
REMARK    4  A    between atoms: C_12  and  C_13 
REMARK    5  A    between atoms: C_13  and  C_14 
REMARK    6  A    between atoms: C_14  and  N_15 
REMARK    7  A    between atoms: N_20  and  C_21 
REMARK    8  A    between atoms: C_21  and  C_22 
REMARK    9  A    between atoms: C_22  and  N_23 
ROOT
HETATM    1  N   UNL     1       7.187  29.568  57.346  1.00  0.00    -0.174 N 
HETATM    2  C   UNL     1       6.715  30.509  58.244  1.00  0.00     0.681 A 
HETATM    3  N   UNL     1       5.435  30.621  58.609  1.00  0.00    -0.234 N 
HETATM    4  H   UNL     1       5.090  31.192  59.362  1.00  0.00     0.174 HD
HETATM    5  H   UNL     1       4.726  30.187  58.006  1.00  0.00     0.174 HD
HETATM    6  N   UNL     1       7.729  31.332  58.763  1.00  0.00    -0.180 N 
HETATM    7  C   UNL     1       8.931  30.818  58.170  1.00  0.00     0.079 A 
HETATM    8  C   UNL     1       8.594  29.781  57.285  1.00  0.00     0.079 A 
HETATM    9  C   UNL     1      10.247  31.168  58.389  1.00  0.00     0.032 A 
HETATM   10  C   UNL     1      11.228  30.491  57.654  1.00  0.00     0.002 A 
HETATM   11  C   UNL     1      10.883  29.474  56.747  1.00  0.00     0.002 A 
HETATM   12  C   UNL     1       9.551  29.099  56.563  1.00  0.00     0.032 A 
ENDROOT
BRANCH   1  13
HETATM   13  C   UNL     1       6.492  28.407  56.762  1.00  0.00     0.231 C 
BRANCH  13  14
HETATM   14  C   UNL     1       7.048  27.056  57.140  1.00  0.00     0.178 C 
HETATM   15  O   UNL     1       7.575  26.875  58.240  1.00  0.00    -0.290 OA
BRANCH  14  16
HETATM   16  C   UNL     1       6.983  25.961  56.123  1.00  0.00     0.013 A 
HETATM   17  C   UNL     1       6.385  26.164  54.875  1.00  0.00     0.026 A 
HETATM   18  C   UNL     1       6.327  25.149  53.898  1.00  0.00    -0.016 A 
HETATM   19  C   UNL     1       6.949  23.924  54.231  1.00  0.00     0.079 A 
HETATM   20  C   UNL     1       7.538  23.659  55.494  1.00  0.00    -0.016 A 
HETATM   21  C   UNL     1       7.551  24.721  56.422  1.00  0.00     0.026 A 
BRANCH  18  22
HETATM   22  C   UNL     1       5.668  25.476  52.530  1.00  0.00    -0.021 C 
HETATM   23  C   UNL     1       4.607  24.468  52.030  1.00  0.00     0.019 C 
HETATM   24  C   UNL     1       4.930  26.842  52.582  1.00  0.00     0.019 C 
HETATM   25  C   UNL     1       6.780  25.556  51.464  1.00  0.00     0.019 C 
ENDBRANCH  18  22
BRANCH  19  26
HETATM   26  O   UNL     1       7.077  22.976  53.260  1.00  0.00    -0.360 OA
HETATM   27  H   UNL     1       7.230  23.448  52.423  1.00  0.00     0.217 HD
ENDBRANCH  19  26
BRANCH  20  28
HETATM   28  C   UNL     1       8.218  22.309  55.851  1.00  0.00    -0.021 C 
HETATM   29  C   UNL     1       9.593  22.261  55.156  1.00  0.00     0.019 C 
HETATM   30  C   UNL     1       7.395  21.066  55.428  1.00  0.00     0.019 C 
HETATM   31  C   UNL     1       8.449  22.140  57.376  1.00  0.00     0.019 C 
ENDBRANCH  20  28
ENDBRANCH  14  16
ENDBRANCH  13  14
ENDBRANCH   1  13
BRANCH   6  32
HETATM   32  C   UNL     1       7.638  32.276  59.886  1.00  0.00     0.175 C 
BRANCH  32  33
HETATM   33  C   UNL     1       7.527  31.671  61.305  1.00  0.00     0.256 C 
BRANCH  33  34
HETATM   34  N   UNL     1       7.060  32.639  62.376  1.00  0.00    -0.066 N 
HETATM   35  H   UNL     1       6.999  33.589  61.984  1.00  0.00     0.280 HD
HETATM   36  C   UNL     1       5.617  32.274  62.809  1.00  0.00     0.261 C 
HETATM   37  C   UNL     1       5.136  33.229  63.902  1.00  0.00     0.195 C 
HETATM   38  O   UNL     1       6.026  33.198  65.020  1.00  0.00    -0.388 OA
HETATM   39  C   UNL     1       7.341  33.625  64.665  1.00  0.00     0.195 C 
HETATM   40  C   UNL     1       7.953  32.690  63.614  1.00  0.00     0.261 C 
ENDBRANCH  33  34
ENDBRANCH  32  33
ENDBRANCH   6  32
TORSDOF 9
ENDMDL
MODEL 2
REMARK VINA RESULT:     -10.0      1.445      2.767
REMARK  9 active torsions:
REMARK  status: ('A' for Active; 'I' for Inactive)
REMARK    1  A    between atoms: C_2  and  C_3 
REMARK    2  A    between atoms: C_4  and  O_5 
REMARK    3  A    between atoms: C_6  and  C_7 
REMARK    4  A    between atoms: C_12  and  C_13 
REMARK    5  A    between atoms: C_13  and  C_14 
REMARK    6  A    between atoms: C_14  and  N_15 
REMARK    7  A    between atoms: N_20  and  C_21 
REMARK    8  A    between atoms: C_21  and  C_22 
REMARK    9  A    between atoms: C_22  and  N_23 
ROOT
HETATM    1  N   UNL     1       7.330  28.766  57.546  1.00  0.00    -0.174 N 
HETATM    2  C   UNL     1       7.582  29.850  58.368  1.00  0.00     0.681 A 
HETATM    3  N   UNL     1       8.724  30.035  59.036  1.00  0.00    -0.234 N 
HETATM    4  H   UNL     1       8.989  30.877  59.518  1.00  0.00     0.174 HD
HETATM    5  H   UNL     1       9.334  29.221  59.175  1.00  0.00     0.174 HD
HETATM    6  N   UNL     1       6.518  30.766  58.414  1.00  0.00    -0.180 N 
HETATM    7  C   UNL     1       5.551  30.220  57.503  1.00  0.00     0.079 A 
HETATM    8  C   UNL     1       6.029  28.994  57.014  1.00  0.00     0.079 A 
HETATM    9  C   UNL     1       4.350  30.741  57.069  1.00  0.00     0.032 A 
HETATM   10  C   UNL     1       3.600  29.976  56.169  1.00  0.00     0.002 A 
HETATM   11  C   UNL     1       4.069  28.733  55.705  1.00  0.00     0.002 A 
HETATM   12  C   UNL     1       5.305  28.235  56.119  1.00  0.00     0.032 A 
ENDROOT
BRANCH   1  13
HETATM   13  C   UNL     1       8.255  27.722  57.071  1.00  0.00     0.231 C 
BRANCH  13  14
HETATM   14  C   UNL     1       7.923  26.313  57.496  1.00  0.00     0.178 C 
HETATM   15  O   UNL     1       7.876  26.007  58.690  1.00  0.00    -0.290 OA
BRANCH  14  16
HETATM   16  C   UNL     1       7.701  25.291  56.427  1.00  0.00     0.013 A 
HETATM   17  C   UNL     1       7.197  25.650  55.172  1.00  0.00     0.026 A 
HETATM   18  C   UNL     1       6.995  24.704  54.147  1.00  0.00    -0.016 A 
HETATM   19  C   UNL     1       7.374  23.374  54.439  1.00  0.00     0.079 A 
HETATM   20  C   UNL     1       7.857  22.955  55.705  1.00  0.00    -0.016 A 
HETATM   21  C   UNL     1       8.025  23.957  56.683  1.00  0.00     0.026 A 
BRANCH  18  22
HETATM   22  C   UNL     1       6.458  25.202  52.776  1.00  0.00    -0.021 C 
HETATM   23  C   UNL     1       5.102  24.613  52.326  1.00  0.00     0.019 C 
HETATM   24  C   UNL     1       6.242  26.741  52.791  1.00  0.00     0.019 C 
HETATM   25  C   UNL     1       7.503  24.861  51.694  1.00  0.00     0.019 C 
ENDBRANCH  18  22
BRANCH  19  26
HETATM   26  O   UNL     1       7.366  22.460  53.428  1.00  0.00    -0.360 OA
HETATM   27  H   UNL     1       6.482  22.495  53.023  1.00  0.00     0.217 HD
ENDBRANCH  19  26
BRANCH  20  28
HETATM   28  C   UNL     1       8.269  21.490  56.017  1.00  0.00    -0.021 C 
HETATM   29  C   UNL     1       8.453  21.353  57.541  1.00  0.00     0.019 C 
HETATM   30  C   UNL     1       9.573  21.046  55.310  1.00  0.00     0.019 C 
HETATM   31  C   UNL     1       7.197  20.460  55.573  1.00  0.00     0.019 C 
ENDBRANCH  20  28
ENDBRANCH  14  16
ENDBRANCH  13  14
ENDBRANCH   1  13
BRANCH   6  32
HETATM   32  C   UNL     1       6.515  32.118  58.992  1.00  0.00     0.175 C 
BRANCH  32  33
HETATM   33  C   UNL     1       5.493  32.397  60.120  1.00  0.00     0.256 C 
BRANCH  33  34
HETATM   34  N   UNL     1       6.018  32.167  61.525  1.00  0.00    -0.066 N 
HETATM   35  H   UNL     1       5.870  31.185  61.796  1.00  0.00     0.280 HD
HETATM   36  C   UNL     1       7.553  32.377  61.543  1.00  0.00     0.261 C 
HETATM   37  C   UNL     1       8.098  32.167  62.957  1.00  0.00     0.195 C 
HETATM   38  O   UNL     1       7.453  33.051  63.877  1.00  0.00    -0.388 OA
HETATM   39  C   UNL     1       6.048  32.810  63.949  1.00  0.00     0.195 C 
HETATM   40  C   UNL     1       5.381  33.058  62.591  1.00  0.00     0.261 C 
ENDBRANCH  33  34
ENDBRANCH  32  33
ENDBRANCH   6  32
TORSDOF 9
ENDMDL
MODEL 3
REMARK VINA RESULT:      -9.9      3.236      9.622
REMARK  9 active torsions:
REMARK  status: ('A' for Active; 'I' for Inactive)
REMARK    1  A    between atoms: C_2  and  C_3 
REMARK    2  A    between atoms: C_4  and  O_5 
REMARK    3  A    between atoms: C_6  and  C_7 
REMARK    4  A    between atoms: C_12  and  C_13 
REMARK    5  A    between atoms: C_13  and  C_14 
REMARK    6  A    between atoms: C_14  and  N_15 
REMARK    7  A    between atoms: N_20  and  C_21 
REMARK    8  A    between atoms: C_21  and  C_22 
REMARK    9  A    between atoms: C_22  and  N_23 
ROOT
HETATM    1  N   UNL     1       6.310  25.345  56.119  1.00  0.00    -0.174 N 
HETATM    2  C   UNL     1       5.598  25.691  54.984  1.00  0.00     0.681 A 
HETATM    3  N   UNL     1       4.781  26.744  54.904  1.00  0.00    -0.234 N 
HETATM    4  H   UNL     1       4.370  27.101  54.057  1.00  0.00     0.174 HD
HETATM    5  H   UNL     1       4.444  27.156  55.781  1.00  0.00     0.174 HD
HETATM    6  N   UNL     1       5.842  24.831  53.899  1.00  0.00    -0.180 N 
HETATM    7  C   UNL     1       6.824  23.911  54.398  1.00  0.00     0.079 A 
HETATM    8  C   UNL     1       7.072  24.200  55.749  1.00  0.00     0.079 A 
HETATM    9  C   UNL     1       7.510  22.908  53.746  1.00  0.00     0.032 A 
HETATM   10  C   UNL     1       8.419  22.152  54.496  1.00  0.00     0.002 A 
HETATM   11  C   UNL     1       8.642  22.426  55.858  1.00  0.00     0.002 A 
HETATM   12  C   UNL     1       7.973  23.471  56.497  1.00  0.00     0.032 A 
ENDROOT
BRANCH   1  13
HETATM   13  C   UNL     1       6.494  26.102  57.370  1.00  0.00     0.231 C 
BRANCH  13  14
HETATM   14  C   UNL     1       7.600  27.129  57.355  1.00  0.00     0.178 C 
HETATM   15  O   UNL     1       8.761  26.802  57.101  1.00  0.00    -0.290 OA
BRANCH  14  16
HETATM   16  C   UNL     1       7.252  28.541  57.704  1.00  0.00     0.013 A 
HETATM   17  C   UNL     1       8.064  29.301  58.553  1.00  0.00     0.026 A 
HETATM   18  C   UNL     1       7.759  30.637  58.883  1.00  0.00    -0.016 A 
HETATM   19  C   UNL     1       6.609  31.186  58.271  1.00  0.00     0.079 A 
HETATM   20  C   UNL     1       5.737  30.447  57.432  1.00  0.00    -0.016 A 
HETATM   21  C   UNL     1       6.103  29.114  57.154  1.00  0.00     0.026 A 
BRANCH  18  22
HETATM   22  C   UNL     1       8.736  31.411  59.810  1.00  0.00    -0.021 C 
HETATM   23  C   UNL     1       8.158  32.663  60.509  1.00  0.00     0.019 C 
HETATM   24  C   UNL     1       9.240  30.503  60.967  1.00  0.00     0.019 C 
HETATM   25  C   UNL     1       9.950  31.858  58.970  1.00  0.00     0.019 C 
ENDBRANCH  18  22
BRANCH  19  26
HETATM   26  O   UNL     1       6.372  32.520  58.415  1.00  0.00    -0.360 OA
HETATM   27  H   UNL     1       6.948  32.833  59.135  1.00  0.00     0.217 HD
ENDBRANCH  19  26
BRANCH  20  28
HETATM   28  C   UNL     1       4.474  31.059  56.766  1.00  0.00    -0.021 C 
HETATM   29  C   UNL     1       4.932  32.057  55.685  1.00  0.00     0.019 C 
HETATM   30  C   UNL     1       3.536  31.787  57.760  1.00  0.00     0.019 C 
HETATM   31  C   UNL     1       3.583  29.990  56.078  1.00  0.00     0.019 C 
ENDBRANCH  20  28
ENDBRANCH  14  16
ENDBRANCH  13  14
ENDBRANCH   1  13
BRANCH   6  32
HETATM   32  C   UNL     1       5.444  25.016  52.496  1.00  0.00     0.175 C 
BRANCH  32  33
HETATM   33  C   UNL     1       6.418  25.801  51.586  1.00  0.00     0.256 C 
BRANCH  33  34
HETATM   34  N   UNL     1       5.762  26.843  50.699  1.00  0.00    -0.066 N 
HETATM   35  H   UNL     1       6.439  27.183  50.003  1.00  0.00     0.280 HD
HETATM   36  C   UNL     1       4.623  26.181  49.882  1.00  0.00     0.261 C 
HETATM   37  C   UNL     1       3.937  27.220  48.995  1.00  0.00     0.195 C 
HETATM   38  O   UNL     1       3.434  28.299  49.787  1.00  0.00    -0.388 OA
HETATM   39  C   UNL     1       4.480  28.986  50.473  1.00  0.00     0.195 C 
HETATM   40  C   UNL     1       5.200  28.048  51.450  1.00  0.00     0.261 C 
ENDBRANCH  33  34
ENDBRANCH  32  33
ENDBRANCH   6  32
TORSDOF 9
ENDMDL
MODEL 4
REMARK VINA RESULT:      -9.7      1.556      4.045
REMARK  9 active torsions:
REMARK  status: ('A' for Active; 'I' for Inactive)
REMARK    1  A    between atoms: C_2  and  C_3 
REMARK    2  A    between atoms: C_4  and  O_5 
REMARK    3  A    between atoms: C_6  and  C_7 
REMARK    4  A    between atoms: C_12  and  C_13 
REMARK    5  A    between atoms: C_13  and  C_14 
REMARK    6  A    between atoms: C_14  and  N_15 
REMARK    7  A    between atoms: N_20  and  C_21 
REMARK    8  A    between atoms: C_21  and  C_22 
REMARK    9  A    between atoms: C_22  and  N_23 
ROOT
HETATM    1  N   UNL     1       7.333  28.850  57.639  1.00  0.00    -0.174 N 
HETATM    2  C   UNL     1       7.642  29.910  58.473  1.00  0.00     0.681 A 
HETATM    3  N   UNL     1       8.817  30.060  59.089  1.00  0.00    -0.234 N 
HETATM    4  H   UNL     1       9.119  30.887  59.578  1.00  0.00     0.174 HD
HETATM    5  H   UNL     1       9.418  29.234  59.180  1.00  0.00     0.174 HD
HETATM    6  N   UNL     1       6.596  30.841  58.590  1.00  0.00    -0.180 N 
HETATM    7  C   UNL     1       5.578  30.332  57.713  1.00  0.00     0.079 A 
HETATM    8  C   UNL     1       6.012  29.111  57.175  1.00  0.00     0.079 A 
HETATM    9  C   UNL     1       4.367  30.882  57.349  1.00  0.00     0.032 A 
HETATM   10  C   UNL     1       3.563  30.150  56.469  1.00  0.00     0.002 A 
HETATM   11  C   UNL     1       3.988  28.912  55.954  1.00  0.00     0.002 A 
HETATM   12  C   UNL     1       5.234  28.384  56.297  1.00  0.00     0.032 A 
ENDROOT
BRANCH   1  13
HETATM   13  C   UNL     1       8.217  27.803  57.096  1.00  0.00     0.231 C 
BRANCH  13  14
HETATM   14  C   UNL     1       7.874  26.388  57.495  1.00  0.00     0.178 C 
HETATM   15  O   UNL     1       7.742  26.080  58.681  1.00  0.00    -0.290 OA
BRANCH  14  16
HETATM   16  C   UNL     1       7.749  25.365  56.411  1.00  0.00     0.013 A 
HETATM   17  C   UNL     1       8.061  24.021  56.640  1.00  0.00     0.026 A 
HETATM   18  C   UNL     1       7.936  23.040  55.635  1.00  0.00    -0.016 A 
HETATM   19  C   UNL     1       7.432  23.481  54.391  1.00  0.00     0.079 A 
HETATM   20  C   UNL     1       7.132  24.836  54.099  1.00  0.00    -0.016 A 
HETATM   21  C   UNL     1       7.290  25.761  55.152  1.00  0.00     0.026 A 
BRANCH  18  22
HETATM   22  C   UNL     1       8.279  21.567  55.992  1.00  0.00    -0.021 C 
HETATM   23  C   UNL     1       7.233  20.508  55.577  1.00  0.00     0.019 C 
HETATM   24  C   UNL     1       9.598  21.122  55.301  1.00  0.00     0.019 C 
HETATM   25  C   UNL     1       8.467  21.471  57.520  1.00  0.00     0.019 C 
ENDBRANCH  18  22
BRANCH  19  26
HETATM   26  O   UNL     1       7.124  22.546  53.447  1.00  0.00    -0.360 OA
HETATM   27  H   UNL     1       6.160  22.581  53.320  1.00  0.00     0.217 HD
ENDBRANCH  19  26
BRANCH  20  28
HETATM   28  C   UNL     1       6.580  25.311  52.727  1.00  0.00    -0.021 C 
HETATM   29  C   UNL     1       7.559  24.855  51.627  1.00  0.00     0.019 C 
HETATM   30  C   UNL     1       6.389  26.845  52.629  1.00  0.00     0.019 C 
HETATM   31  C   UNL     1       5.187  24.709  52.403  1.00  0.00     0.019 C 
ENDBRANCH  20  28
ENDBRANCH  14  16
ENDBRANCH  13  14
ENDBRANCH   1  13
BRANCH   6  32
HETATM   32  C   UNL     1       6.643  32.178  59.199  1.00  0.00     0.175 C 
BRANCH  32  33
HETATM   33  C   UNL     1       6.814  32.245  60.735  1.00  0.00     0.256 C 
BRANCH  33  34
HETATM   34  N   UNL     1       5.742  33.035  61.461  1.00  0.00    -0.066 N 
HETATM   35  H   UNL     1       5.751  34.013  61.138  1.00  0.00     0.280 HD
HETATM   36  C   UNL     1       4.346  32.483  61.078  1.00  0.00     0.261 C 
HETATM   37  C   UNL     1       3.251  33.256  61.815  1.00  0.00     0.195 C 
HETATM   38  O   UNL     1       3.456  33.186  63.229  1.00  0.00    -0.388 OA
HETATM   39  C   UNL     1       4.696  33.778  63.616  1.00  0.00     0.195 C 
HETATM   40  C   UNL     1       5.878  33.033  62.983  1.00  0.00     0.261 C 
ENDBRANCH  33  34
ENDBRANCH  32  33
ENDBRANCH   6  32
TORSDOF 9
ENDMDL
MODEL 5
REMARK VINA RESULT:      -9.6      1.930      4.181
REMARK  9 active torsions:
REMARK  status: ('A' for Active; 'I' for Inactive)
REMARK    1  A    between atoms: C_2  and  C_3 
REMARK    2  A    between atoms: C_4  and  O_5 
REMARK    3  A    between atoms: C_6  and  C_7 
REMARK    4  A    between atoms: C_12  and  C_13 
REMARK    5  A    between atoms: C_13  and  C_14 
REMARK    6  A    between atoms: C_14  and  N_15 
REMARK    7  A    between atoms: N_20  and  C_21 
REMARK    8  A    between atoms: C_21  and  C_22 
REMARK    9  A    between atoms: C_22  and  N_23 
ROOT
HETATM    1  N   UNL     1       6.871  29.824  57.522  1.00  0.00    -0.174 N 
HETATM    2  C   UNL     1       6.618  30.814  58.454  1.00  0.00     0.681 A 
HETATM    3  N   UNL     1       5.406  31.096  58.937  1.00  0.00    -0.234 N 
HETATM    4  H   UNL     1       5.214  31.704  59.717  1.00  0.00     0.174 HD
HETATM    5  H   UNL     1       4.591  30.768  58.407  1.00  0.00     0.174 HD
HETATM    6  N   UNL     1       7.779  31.487  58.871  1.00  0.00    -0.180 N 
HETATM    7  C   UNL     1       8.839  30.818  58.170  1.00  0.00     0.079 A 
HETATM    8  C   UNL     1       8.282  29.843  57.327  1.00  0.00     0.079 A 
HETATM    9  C   UNL     1      10.205  30.984  58.262  1.00  0.00     0.032 A 
HETATM   10  C   UNL     1      11.010  30.185  57.443  1.00  0.00     0.002 A 
HETATM   11  C   UNL     1      10.446  29.231  56.577  1.00  0.00     0.002 A 
HETATM   12  C   UNL     1       9.064  29.042  56.522  1.00  0.00     0.032 A 
ENDROOT
BRANCH   1  13
HETATM   13  C   UNL     1       5.972  28.773  57.012  1.00  0.00     0.231 C 
BRANCH  13  14
HETATM   14  C   UNL     1       5.100  29.169  55.846  1.00  0.00     0.178 C 
HETATM   15  O   UNL     1       4.177  29.972  55.991  1.00  0.00    -0.290 OA
BRANCH  14  16
HETATM   16  C   UNL     1       5.361  28.520  54.523  1.00  0.00     0.013 A 
HETATM   17  C   UNL     1       6.010  27.284  54.436  1.00  0.00     0.026 A 
HETATM   18  C   UNL     1       6.252  26.650  53.200  1.00  0.00    -0.016 A 
HETATM   19  C   UNL     1       5.760  27.310  52.051  1.00  0.00     0.079 A 
HETATM   20  C   UNL     1       5.126  28.579  52.086  1.00  0.00    -0.016 A 
HETATM   21  C   UNL     1       4.926  29.154  53.357  1.00  0.00     0.026 A 
BRANCH  18  22
HETATM   22  C   UNL     1       6.955  25.264  53.204  1.00  0.00    -0.021 C 
HETATM   23  C   UNL     1       8.088  25.076  52.169  1.00  0.00     0.019 C 
HETATM   24  C   UNL     1       7.618  24.983  54.581  1.00  0.00     0.019 C 
HETATM   25  C   UNL     1       5.889  24.181  52.939  1.00  0.00     0.019 C 
ENDBRANCH  18  22
BRANCH  19  26
HETATM   26  O   UNL     1       5.809  26.657  50.856  1.00  0.00    -0.360 OA
HETATM   27  H   UNL     1       6.595  26.987  50.386  1.00  0.00     0.217 HD
ENDBRANCH  19  26
BRANCH  20  28
HETATM   28  C   UNL     1       4.589  29.298  50.817  1.00  0.00    -0.021 C 
HETATM   29  C   UNL     1       4.005  30.659  51.243  1.00  0.00     0.019 C 
HETATM   30  C   UNL     1       3.502  28.496  50.059  1.00  0.00     0.019 C 
HETATM   31  C   UNL     1       5.700  29.565  49.767  1.00  0.00     0.019 C 
ENDBRANCH  20  28
ENDBRANCH  14  16
ENDBRANCH  13  14
ENDBRANCH   1  13
BRANCH   6  32
HETATM   32  C   UNL     1       7.924  32.427  59.992  1.00  0.00     0.175 C 
BRANCH  32  33
HETATM   33  C   UNL     1       7.846  31.835  61.419  1.00  0.00     0.256 C 
BRANCH  33  34
HETATM   34  N   UNL     1       7.189  32.736  62.448  1.00  0.00    -0.066 N 
HETATM   35  H   UNL     1       7.135  33.697  62.085  1.00  0.00     0.280 HD
HETATM   36  C   UNL     1       5.720  32.290  62.660  1.00  0.00     0.261 C 
HETATM   37  C   UNL     1       5.045  33.176  63.708  1.00  0.00     0.195 C 
HETATM   38  O   UNL     1       5.772  33.136  64.939  1.00  0.00    -0.388 OA
HETATM   39  C   UNL     1       7.101  33.635  64.787  1.00  0.00     0.195 C 
HETATM   40  C   UNL     1       7.898  32.773  63.800  1.00  0.00     0.261 C 
ENDBRANCH  33  34
ENDBRANCH  32  33
ENDBRANCH   6  32
TORSDOF 9
ENDMDL
MODEL 6
REMARK VINA RESULT:      -9.5      3.214      9.502
REMARK  9 active torsions:
REMARK  status: ('A' for Active; 'I' for Inactive)
REMARK    1  A    between atoms: C_2  and  C_3 
REMARK    2  A    between atoms: C_4  and  O_5 
REMARK    3  A    between atoms: C_6  and  C_7 
REMARK    4  A    between atoms: C_12  and  C_13 
REMARK    5  A    between atoms: C_13  and  C_14 
REMARK    6  A    between atoms: C_14  and  N_15 
REMARK    7  A    between atoms: N_20  and  C_21 
REMARK    8  A    between atoms: C_21  and  C_22 
REMARK    9  A    between atoms: C_22  and  N_23 
ROOT
HETATM    1  N   UNL     1       6.233  25.773  55.627  1.00  0.00    -0.174 N 
HETATM    2  C   UNL     1       5.876  26.357  54.425  1.00  0.00     0.681 A 
HETATM    3  N   UNL     1       5.217  27.513  54.320  1.00  0.00    -0.234 N 
HETATM    4  H   UNL     1       5.075  28.030  53.468  1.00  0.00     0.174 HD
HETATM    5  H   UNL     1       4.709  27.851  55.146  1.00  0.00     0.174 HD
HETATM    6  N   UNL     1       6.302  25.620  53.307  1.00  0.00    -0.180 N 
HETATM    7  C   UNL     1       7.025  24.516  53.874  1.00  0.00     0.079 A 
HETATM    8  C   UNL     1       6.945  24.591  55.273  1.00  0.00     0.079 A 
HETATM    9  C   UNL     1       7.751  23.521  53.253  1.00  0.00     0.032 A 
HETATM   10  C   UNL     1       8.356  22.557  54.069  1.00  0.00     0.002 A 
HETATM   11  C   UNL     1       8.248  22.620  55.470  1.00  0.00     0.002 A 
HETATM   12  C   UNL     1       7.545  23.655  56.089  1.00  0.00     0.032 A 
ENDROOT
BRANCH   1  13
HETATM   13  C   UNL     1       6.165  26.330  56.990  1.00  0.00     0.231 C 
BRANCH  13  14
HETATM   14  C   UNL     1       7.343  27.175  57.410  1.00  0.00     0.178 C 
HETATM   15  O   UNL     1       8.459  26.674  57.558  1.00  0.00    -0.290 OA
BRANCH  14  16
HETATM   16  C   UNL     1       7.102  28.625  57.686  1.00  0.00     0.013 A 
HETATM   17  C   UNL     1       5.996  29.293  57.151  1.00  0.00     0.026 A 
HETATM   18  C   UNL     1       5.745  30.656  57.412  1.00  0.00    -0.016 A 
HETATM   19  C   UNL     1       6.649  31.303  58.284  1.00  0.00     0.079 A 
HETATM   20  C   UNL     1       7.802  30.678  58.824  1.00  0.00    -0.016 A 
HETATM   21  C   UNL     1       7.991  29.316  58.512  1.00  0.00     0.026 A 
BRANCH  18  22
HETATM   22  C   UNL     1       4.474  31.305  56.796  1.00  0.00    -0.021 C 
HETATM   23  C   UNL     1       3.571  32.088  57.777  1.00  0.00     0.019 C 
HETATM   24  C   UNL     1       4.855  32.331  55.693  1.00  0.00     0.019 C 
HETATM   25  C   UNL     1       3.621  30.189  56.159  1.00  0.00     0.019 C 
ENDBRANCH  18  22
BRANCH  19  26
HETATM   26  O   UNL     1       6.352  32.564  58.708  1.00  0.00    -0.360 OA
HETATM   27  H   UNL     1       7.183  33.070  58.689  1.00  0.00     0.217 HD
ENDBRANCH  19  26
BRANCH  20  28
HETATM   28  C   UNL     1       8.792  31.399  59.781  1.00  0.00    -0.021 C 
HETATM   29  C   UNL     1      10.006  31.869  58.957  1.00  0.00     0.019 C 
HETATM   30  C   UNL     1       9.287  30.510  60.949  1.00  0.00     0.019 C 
HETATM   31  C   UNL     1       8.166  32.646  60.460  1.00  0.00     0.019 C 
ENDBRANCH  20  28
ENDBRANCH  14  16
ENDBRANCH  13  14
ENDBRANCH   1  13
BRANCH   6  32
HETATM   32  C   UNL     1       6.299  26.037  51.897  1.00  0.00     0.175 C 
BRANCH  32  33
HETATM   33  C   UNL     1       5.032  25.710  51.071  1.00  0.00     0.256 C 
BRANCH  33  34
HETATM   34  N   UNL     1       4.459  26.881  50.294  1.00  0.00    -0.066 N 
HETATM   35  H   UNL     1       3.527  27.119  50.660  1.00  0.00     0.280 HD
HETATM   36  C   UNL     1       5.333  28.137  50.536  1.00  0.00     0.261 C 
HETATM   37  C   UNL     1       4.782  29.325  49.745  1.00  0.00     0.195 C 
HETATM   38  O   UNL     1       4.717  29.010  48.352  1.00  0.00    -0.388 OA
HETATM   39  C   UNL     1       3.838  27.915  48.095  1.00  0.00     0.195 C 
HETATM   40  C   UNL     1       4.336  26.641  48.790  1.00  0.00     0.261 C 
ENDBRANCH  33  34
ENDBRANCH  32  33
ENDBRANCH   6  32
TORSDOF 9
ENDMDL
MODEL 7
REMARK VINA RESULT:      -9.5      1.896      3.018
REMARK  9 active torsions:
REMARK  status: ('A' for Active; 'I' for Inactive)
REMARK    1  A    between atoms: C_2  and  C_3 
REMARK    2  A    between atoms: C_4  and  O_5 
REMARK    3  A    between atoms: C_6  and  C_7 
REMARK    4  A    between atoms: C_12  and  C_13 
REMARK    5  A    between atoms: C_13  and  C_14 
REMARK    6  A    between atoms: C_14  and  N_15 
REMARK    7  A    between atoms: N_20  and  C_21 
REMARK    8  A    between atoms: C_21  and  C_22 
REMARK    9  A    between atoms: C_22  and  N_23 
ROOT
HETATM    1  N   UNL     1       6.934  29.862  57.577  1.00  0.00    -0.174 N 
HETATM    2  C   UNL     1       6.675  30.846  58.515  1.00  0.00     0.681 A 
HETATM    3  N   UNL     1       5.462  31.113  59.004  1.00  0.00    -0.234 N 
HETATM    4  H   UNL     1       5.267  31.715  59.787  1.00  0.00     0.174 HD
HETATM    5  H   UNL     1       4.648  30.779  58.475  1.00  0.00     0.174 HD
HETATM    6  N   UNL     1       7.831  31.528  58.930  1.00  0.00    -0.180 N 
HETATM    7  C   UNL     1       8.894  30.872  58.222  1.00  0.00     0.079 A 
HETATM    8  C   UNL     1       8.344  29.896  57.377  1.00  0.00     0.079 A 
HETATM    9  C   UNL     1      10.259  31.052  58.310  1.00  0.00     0.032 A 
HETATM   10  C   UNL     1      11.069  30.265  57.483  1.00  0.00     0.002 A 
HETATM   11  C   UNL     1      10.511  29.308  56.615  1.00  0.00     0.002 A 
HETATM   12  C   UNL     1       9.131  29.106  56.565  1.00  0.00     0.032 A 
ENDROOT
BRANCH   1  13
HETATM   13  C   UNL     1       6.044  28.804  57.066  1.00  0.00     0.231 C 
BRANCH  13  14
HETATM   14  C   UNL     1       5.132  29.209  55.933  1.00  0.00     0.178 C 
HETATM   15  O   UNL     1       4.243  30.045  56.106  1.00  0.00    -0.290 OA
BRANCH  14  16
HETATM   16  C   UNL     1       5.309  28.529  54.613  1.00  0.00     0.013 A 
HETATM   17  C   UNL     1       4.877  29.127  53.424  1.00  0.00     0.026 A 
HETATM   18  C   UNL     1       5.049  28.507  52.169  1.00  0.00    -0.016 A 
HETATM   19  C   UNL     1       5.724  27.266  52.171  1.00  0.00     0.079 A 
HETATM   20  C   UNL     1       6.151  26.605  53.351  1.00  0.00    -0.016 A 
HETATM   21  C   UNL     1       5.938  27.283  54.569  1.00  0.00     0.026 A 
BRANCH  18  22
HETATM   22  C   UNL     1       4.563  29.261  50.900  1.00  0.00    -0.021 C 
HETATM   23  C   UNL     1       5.666  29.707  49.913  1.00  0.00     0.019 C 
HETATM   24  C   UNL     1       3.607  28.370  50.058  1.00  0.00     0.019 C 
HETATM   25  C   UNL     1       3.795  30.521  51.350  1.00  0.00     0.019 C 
ENDBRANCH  18  22
BRANCH  19  26
HETATM   26  O   UNL     1       6.072  26.715  50.974  1.00  0.00    -0.360 OA
HETATM   27  H   UNL     1       5.247  26.420  50.549  1.00  0.00     0.217 HD
ENDBRANCH  19  26
BRANCH  20  28
HETATM   28  C   UNL     1       6.891  25.239  53.343  1.00  0.00    -0.021 C 
HETATM   29  C   UNL     1       5.878  24.142  52.960  1.00  0.00     0.019 C 
HETATM   30  C   UNL     1       7.541  24.875  54.701  1.00  0.00     0.019 C 
HETATM   31  C   UNL     1       8.052  25.195  52.314  1.00  0.00     0.019 C 
ENDBRANCH  20  28
ENDBRANCH  14  16
ENDBRANCH  13  14
ENDBRANCH   1  13
BRANCH   6  32
HETATM   32  C   UNL     1       7.971  32.464  60.055  1.00  0.00     0.175 C 
BRANCH  32  33
HETATM   33  C   UNL     1       7.872  31.869  61.480  1.00  0.00     0.256 C 
BRANCH  33  34
HETATM   34  N   UNL     1       7.210  32.772  62.503  1.00  0.00    -0.066 N 
HETATM   35  H   UNL     1       7.164  33.735  62.140  1.00  0.00     0.280 HD
HETATM   36  C   UNL     1       5.737  32.333  62.702  1.00  0.00     0.261 C 
HETATM   37  C   UNL     1       5.057  33.222  63.744  1.00  0.00     0.195 C 
HETATM   38  O   UNL     1       5.773  33.178  64.981  1.00  0.00    -0.388 OA
HETATM   39  C   UNL     1       7.105  33.672  64.842  1.00  0.00     0.195 C 
HETATM   40  C   UNL     1       7.907  32.807  63.861  1.00  0.00     0.261 C 
ENDBRANCH  33  34
ENDBRANCH  32  33
ENDBRANCH   6  32
TORSDOF 9
ENDMDL
MODEL 8
REMARK VINA RESULT:      -9.3      1.928      2.663
REMARK  9 active torsions:
REMARK  status: ('A' for Active; 'I' for Inactive)
REMARK    1  A    between atoms: C_2  and  C_3 
REMARK    2  A    between atoms: C_4  and  O_5 
REMARK    3  A    between atoms: C_6  and  C_7 
REMARK    4  A    between atoms: C_12  and  C_13 
REMARK    5  A    between atoms: C_13  and  C_14 
REMARK    6  A    between atoms: C_14  and  N_15 
REMARK    7  A    between atoms: N_20  and  C_21 
REMARK    8  A    between atoms: C_21  and  C_22 
REMARK    9  A    between atoms: C_22  and  N_23 
ROOT
HETATM    1  N   UNL     1       7.488  29.260  57.225  1.00  0.00    -0.174 N 
HETATM    2  C   UNL     1       6.135  29.533  57.123  1.00  0.00     0.681 A 
HETATM    3  N   UNL     1       5.282  28.826  56.378  1.00  0.00    -0.234 N 
HETATM    4  H   UNL     1       4.279  28.909  56.400  1.00  0.00     0.174 HD
HETATM    5  H   UNL     1       5.672  28.232  55.637  1.00  0.00     0.174 HD
HETATM    6  N   UNL     1       5.734  30.626  57.910  1.00  0.00    -0.180 N 
HETATM    7  C   UNL     1       6.934  31.024  58.590  1.00  0.00     0.079 A 
HETATM    8  C   UNL     1       7.996  30.224  58.143  1.00  0.00     0.079 A 
HETATM    9  C   UNL     1       7.123  31.979  59.567  1.00  0.00     0.032 A 
HETATM   10  C   UNL     1       8.423  32.159  60.052  1.00  0.00     0.002 A 
HETATM   11  C   UNL     1       9.491  31.376  59.579  1.00  0.00     0.002 A 
HETATM   12  C   UNL     1       9.281  30.383  58.620  1.00  0.00     0.032 A 
ENDROOT
BRANCH   1  13
HETATM   13  C   UNL     1       8.241  28.090  56.740  1.00  0.00     0.231 C 
BRANCH  13  14
HETATM   14  C   UNL     1       7.748  26.749  57.224  1.00  0.00     0.178 C 
HETATM   15  O   UNL     1       7.622  26.519  58.429  1.00  0.00    -0.290 OA
BRANCH  14  16
HETATM   16  C   UNL     1       7.465  25.695  56.201  1.00  0.00     0.013 A 
HETATM   17  C   UNL     1       6.759  25.989  55.030  1.00  0.00     0.026 A 
HETATM   18  C   UNL     1       6.496  25.013  54.048  1.00  0.00    -0.016 A 
HETATM   19  C   UNL     1       7.024  23.724  54.289  1.00  0.00     0.079 A 
HETATM   20  C   UNL     1       7.716  23.368  55.475  1.00  0.00    -0.016 A 
HETATM   21  C   UNL     1       7.935  24.397  56.415  1.00  0.00     0.026 A 
BRANCH  18  22
HETATM   22  C   UNL     1       5.729  25.441  52.766  1.00  0.00    -0.021 C 
HETATM   23  C   UNL     1       4.610  24.484  52.294  1.00  0.00     0.019 C 
HETATM   24  C   UNL     1       5.026  26.811  52.972  1.00  0.00     0.019 C 
HETATM   25  C   UNL     1       6.749  25.578  51.616  1.00  0.00     0.019 C 
ENDBRANCH  18  22
BRANCH  19  26
HETATM   26  O   UNL     1       6.951  22.796  53.294  1.00  0.00    -0.360 OA
HETATM   27  H   UNL     1       6.082  22.365  53.374  1.00  0.00     0.217 HD
ENDBRANCH  19  26
BRANCH  20  28
HETATM   28  C   UNL     1       8.292  21.948  55.732  1.00  0.00    -0.021 C 
HETATM   29  C   UNL     1       9.725  21.898  55.167  1.00  0.00     0.019 C 
HETATM   30  C   UNL     1       7.456  20.812  55.092  1.00  0.00     0.019 C 
HETATM   31  C   UNL     1       8.363  21.596  57.242  1.00  0.00     0.019 C 
ENDBRANCH  20  28
ENDBRANCH  14  16
ENDBRANCH  13  14
ENDBRANCH   1  13
BRANCH   6  32
HETATM   32  C   UNL     1       4.363  31.058  58.221  1.00  0.00     0.175 C 
BRANCH  32  33
HETATM   33  C   UNL     1       3.970  32.498  57.813  1.00  0.00     0.256 C 
BRANCH  33  34
HETATM   34  N   UNL     1       3.470  33.368  58.950  1.00  0.00    -0.066 N 
HETATM   35  H   UNL     1       2.468  33.569  58.820  1.00  0.00     0.280 HD
HETATM   36  C   UNL     1       3.567  32.582  60.282  1.00  0.00     0.261 C 
HETATM   37  C   UNL     1       3.083  33.450  61.444  1.00  0.00     0.195 C 
HETATM   38  O   UNL     1       3.840  34.661  61.512  1.00  0.00    -0.388 OA
HETATM   39  C   UNL     1       3.687  35.450  60.331  1.00  0.00     0.195 C 
HETATM   40  C   UNL     1       4.208  34.696  59.101  1.00  0.00     0.261 C 
ENDBRANCH  33  34
ENDBRANCH  32  33
ENDBRANCH   6  32
TORSDOF 9
ENDMDL
MODEL 9
REMARK VINA RESULT:      -9.1      2.593     10.103
REMARK  9 active torsions:
REMARK  status: ('A' for Active; 'I' for Inactive)
REMARK    1  A    between atoms: C_2  and  C_3 
REMARK    2  A    between atoms: C_4  and  O_5 
REMARK    3  A    between atoms: C_6  and  C_7 
REMARK    4  A    between atoms: C_12  and  C_13 
REMARK    5  A    between atoms: C_13  and  C_14 
REMARK    6  A    between atoms: C_14  and  N_15 
REMARK    7  A    between atoms: N_20  and  C_21 
REMARK    8  A    between atoms: C_21  and  C_22 
REMARK    9  A    between atoms: C_22  and  N_23 
ROOT
HETATM    1  N   UNL     1       5.607  30.491  57.596  1.00  0.00    -0.174 N 
HETATM    2  C   UNL     1       4.981  29.362  57.099  1.00  0.00     0.681 A 
HETATM    3  N   UNL     1       3.678  29.291  56.816  1.00  0.00    -0.234 N 
HETATM    4  H   UNL     1       3.228  28.539  56.321  1.00  0.00     0.174 HD
HETATM    5  H   UNL     1       3.059  29.994  57.234  1.00  0.00     0.174 HD
HETATM    6  N   UNL     1       5.865  28.289  56.893  1.00  0.00    -0.180 N 
HETATM    7  C   UNL     1       7.149  28.823  57.247  1.00  0.00     0.079 A 
HETATM    8  C   UNL     1       6.983  30.138  57.709  1.00  0.00     0.079 A 
HETATM    9  C   UNL     1       8.403  28.256  57.149  1.00  0.00     0.032 A 
HETATM   10  C   UNL     1       9.494  29.019  57.580  1.00  0.00     0.002 A 
HETATM   11  C   UNL     1       9.319  30.325  58.070  1.00  0.00     0.002 A 
HETATM   12  C   UNL     1       8.050  30.905  58.126  1.00  0.00     0.032 A 
ENDROOT
BRANCH   1  13
HETATM   13  C   UNL     1       5.082  31.861  57.737  1.00  0.00     0.231 C 
BRANCH  13  14
HETATM   14  C   UNL     1       4.238  32.113  58.963  1.00  0.00     0.178 C 
HETATM   15  O   UNL     1       3.073  31.715  59.020  1.00  0.00    -0.290 OA
BRANCH  14  16
HETATM   16  C   UNL     1       4.843  32.901  60.081  1.00  0.00     0.013 A 
HETATM   17  C   UNL     1       4.321  34.142  60.461  1.00  0.00     0.026 A 
HETATM   18  C   UNL     1       4.869  34.893  61.521  1.00  0.00    -0.016 A 
HETATM   19  C   UNL     1       5.950  34.301  62.214  1.00  0.00     0.079 A 
HETATM   20  C   UNL     1       6.535  33.063  61.846  1.00  0.00    -0.016 A 
HETATM   21  C   UNL     1       5.937  32.374  60.770  1.00  0.00     0.026 A 
BRANCH  18  22
HETATM   22  C   UNL     1       4.203  36.248  61.889  1.00  0.00    -0.021 C 
HETATM   23  C   UNL     1       3.651  36.362  63.329  1.00  0.00     0.019 C 
HETATM   24  C   UNL     1       5.216  37.418  61.753  1.00  0.00     0.019 C 
HETATM   25  C   UNL     1       3.033  36.492  60.915  1.00  0.00     0.019 C 
ENDBRANCH  18  22
BRANCH  19  26
HETATM   26  O   UNL     1       6.397  34.901  63.353  1.00  0.00    -0.360 OA
HETATM   27  H   UNL     1       7.169  34.391  63.656  1.00  0.00     0.217 HD
ENDBRANCH  19  26
BRANCH  20  28
HETATM   28  C   UNL     1       7.724  32.422  62.613  1.00  0.00    -0.021 C 
HETATM   29  C   UNL     1       7.494  30.899  62.676  1.00  0.00     0.019 C 
HETATM   30  C   UNL     1       7.904  32.965  64.052  1.00  0.00     0.019 C 
HETATM   31  C   UNL     1       9.088  32.668  61.915  1.00  0.00     0.019 C 
ENDBRANCH  20  28
ENDBRANCH  14  16
ENDBRANCH  13  14
ENDBRANCH   1  13
BRANCH   6  32
HETATM   32  C   UNL     1       5.603  27.029  56.182  1.00  0.00     0.175 C 
BRANCH  32  33
HETATM   33  C   UNL     1       5.706  25.723  57.004  1.00  0.00     0.256 C 
BRANCH  33  34
HETATM   34  N   UNL     1       6.463  24.598  56.322  1.00  0.00    -0.066 N 
HETATM   35  H   UNL     1       6.052  23.692  56.586  1.00  0.00     0.280 HD
HETATM   36  C   UNL     1       6.274  24.708  54.787  1.00  0.00     0.261 C 
HETATM   37  C   UNL     1       7.045  23.592  54.080  1.00  0.00     0.195 C 
HETATM   38  O   UNL     1       8.431  23.645  54.427  1.00  0.00    -0.388 OA
HETATM   39  C   UNL     1       8.635  23.448  55.827  1.00  0.00     0.195 C 
HETATM   40  C   UNL     1       7.956  24.558  56.639  1.00  0.00     0.261 C 
ENDBRANCH  33  34
ENDBRANCH  32  33
ENDBRANCH   6  32
TORSDOF 9
ENDMDL
MODEL 10
REMARK VINA RESULT:      -9.1      2.107      3.420
REMARK  9 active torsions:
REMARK  status: ('A' for Active; 'I' for Inactive)
REMARK    1  A    between atoms: C_2  and  C_3 
REMARK    2  A    between atoms: C_4  and  O_5 
REMARK    3  A    between atoms: C_6  and  C_7 
REMARK    4  A    between atoms: C_12  and  C_13 
REMARK    5  A    between atoms: C_13  and  C_14 
REMARK    6  A    between atoms: C_14  and  N_15 
REMARK    7  A    between atoms: N_20  and  C_21 
REMARK    8  A    between atoms: C_21  and  C_22 
REMARK    9  A    between atoms: C_22  and  N_23 
ROOT
HETATM    1  N   UNL     1       7.134  30.236  58.380  1.00  0.00    -0.174 N 
HETATM    2  C   UNL     1       5.998  31.022  58.304  1.00  0.00     0.681 A 
HETATM    3  N   UNL     1       4.964  30.767  57.498  1.00  0.00    -0.234 N 
HETATM    4  H   UNL     1       4.072  31.232  57.528  1.00  0.00     0.174 HD
HETATM    5  H   UNL     1       5.119  30.132  56.707  1.00  0.00     0.174 HD
HETATM    6  N   UNL     1       6.025  32.115  59.186  1.00  0.00    -0.180 N 
HETATM    7  C   UNL     1       7.261  31.956  59.899  1.00  0.00     0.079 A 
HETATM    8  C   UNL     1       7.945  30.846  59.381  1.00  0.00     0.079 A 
HETATM    9  C   UNL     1       7.771  32.678  60.958  1.00  0.00     0.032 A 
HETATM   10  C   UNL     1       9.022  32.296  61.457  1.00  0.00     0.002 A 
HETATM   11  C   UNL     1       9.718  31.201  60.915  1.00  0.00     0.002 A 
HETATM   12  C   UNL     1       9.173  30.452  59.870  1.00  0.00     0.032 A 
ENDROOT
BRANCH   1  13
HETATM   13  C   UNL     1       7.392  28.910  57.791  1.00  0.00     0.231 C 
BRANCH  13  14
HETATM   14  C   UNL     1       8.003  28.917  56.411  1.00  0.00     0.178 C 
HETATM   15  O   UNL     1       9.102  29.436  56.209  1.00  0.00    -0.290 OA
BRANCH  14  16
HETATM   16  C   UNL     1       7.211  28.318  55.291  1.00  0.00     0.013 A 
HETATM   17  C   UNL     1       6.209  29.046  54.640  1.00  0.00     0.026 A 
HETATM   18  C   UNL     1       5.463  28.504  53.573  1.00  0.00    -0.016 A 
HETATM   19  C   UNL     1       5.814  27.197  53.165  1.00  0.00     0.079 A 
HETATM   20  C   UNL     1       6.797  26.408  53.814  1.00  0.00    -0.016 A 
HETATM   21  C   UNL     1       7.497  27.015  54.878  1.00  0.00     0.026 A 
BRANCH  18  22
HETATM   22  C   UNL     1       4.390  29.397  52.892  1.00  0.00    -0.021 C 
HETATM   23  C   UNL     1       4.775  29.989  51.517  1.00  0.00     0.019 C 
HETATM   24  C   UNL     1       3.084  28.596  52.633  1.00  0.00     0.019 C 
HETATM   25  C   UNL     1       4.068  30.573  53.838  1.00  0.00     0.019 C 
ENDBRANCH  18  22
BRANCH  19  26
HETATM   26  O   UNL     1       5.248  26.698  52.030  1.00  0.00    -0.360 OA
HETATM   27  H   UNL     1       4.467  27.248  51.838  1.00  0.00     0.217 HD
ENDBRANCH  19  26
BRANCH  20  28
HETATM   28  C   UNL     1       7.175  24.971  53.359  1.00  0.00    -0.021 C 
HETATM   29  C   UNL     1       7.966  24.295  54.496  1.00  0.00     0.019 C 
HETATM   30  C   UNL     1       8.020  24.931  52.062  1.00  0.00     0.019 C 
HETATM   31  C   UNL     1       5.931  24.094  53.057  1.00  0.00     0.019 C 
ENDBRANCH  20  28
ENDBRANCH  14  16
ENDBRANCH  13  14
ENDBRANCH   1  13
BRANCH   6  32
HETATM   32  C   UNL     1       4.919  33.019  59.535  1.00  0.00     0.175 C 
BRANCH  32  33
HETATM   33  C   UNL     1       4.012  32.597  60.716  1.00  0.00     0.256 C 
BRANCH  33  34
HETATM   34  N   UNL     1       4.337  33.265  62.039  1.00  0.00    -0.066 N 
HETATM   35  H   UNL     1       4.936  34.086  61.876  1.00  0.00     0.280 HD
HETATM   36  C   UNL     1       3.035  33.820  62.670  1.00  0.00     0.261 C 
HETATM   37  C   UNL     1       3.339  34.482  64.014  1.00  0.00     0.195 C 
HETATM   38  O   UNL     1       3.976  33.553  64.895  1.00  0.00    -0.388 OA
HETATM   39  C   UNL     1       5.228  33.103  64.377  1.00  0.00     0.195 C 
HETATM   40  C   UNL     1       5.033  32.357  63.051  1.00  0.00     0.261 C 
ENDBRANCH  33  34
ENDBRANCH  32  33
ENDBRANCH   6  32
TORSDOF 9
ENDMDL
