MODEL 1
REMARK VINA RESULT:      -9.6      0.000      0.000
REMARK  10 active torsions:
REMARK  status: ('A' for Active; 'I' for Inactive)
REMARK    1  A    between atoms: O_2  and  C_3 
REMARK    2  A    between atoms: C_3  and  C_4 
REMARK    3  A    between atoms: C_11  and  N_12 
REMARK    4  A    between atoms: N_12  and  C_13 
REMARK    5  A    between atoms: C_13  and  N_14 
REMARK    6  A    between atoms: N_14  and  N_15 
REMARK       I    between atoms: N_15  and  C_16 
REMARK    7  A    between atoms: C_16  and  C_17 
REMARK    8  A    between atoms: C_17  and  S_18 
REMARK    9  A    between atoms: S_18  and  C_19 
REMARK   10  A    between atoms: C_19  and  C_20 
ROOT
HETATM    1  C   UNL     1       9.311  30.168  58.081  1.00  0.00     0.191 C 
HETATM    2  S   UNL     1      10.580  29.903  57.016  1.00  0.00    -0.039 SA
ENDROOT
BRANCH   1   3
HETATM    3  N   UNL     1       9.279  31.362  58.747  1.00  0.00    -0.332 N 
HETATM    4  H   UNL     1       9.885  32.056  58.321  1.00  0.00     0.168 HD
BRANCH   3   5
HETATM    5  C   UNL     1       8.721  31.724  59.994  1.00  0.00     0.035 A 
HETATM    6  C   UNL     1       7.403  32.204  59.971  1.00  0.00     0.049 A 
HETATM    7  C   UNL     1       6.802  32.667  61.163  1.00  0.00     0.020 A 
HETATM    8  S   UNL     1       5.221  33.311  61.332  1.00  0.00    -0.082 SA
HETATM    9  C   UNL     1       7.478  32.651  62.381  1.00  0.00     0.004 A 
HETATM   10  C   UNL     1       5.416  33.618  63.008  1.00  0.00     0.103 A 
HETATM   11  C   UNL     1       6.659  33.192  63.437  1.00  0.00     0.068 A 
HETATM   12 CL   UNL     1       7.249  33.296  65.052  1.00  0.00    -0.082 Cl
HETATM   13  C   UNL     1       8.804  32.153  62.382  1.00  0.00     0.017 A 
HETATM   14  C   UNL     1       9.414  31.715  61.197  1.00  0.00     0.030 A 
BRANCH  10  15
HETATM   15  C   UNL     1       4.367  34.253  63.791  1.00  0.00     0.301 C 
HETATM   16  O   UNL     1       3.330  33.716  64.162  1.00  0.00    -0.259 OA
BRANCH  15  17
HETATM   17  O   UNL     1       4.682  35.550  64.092  1.00  0.00    -0.322 OA
HETATM   18  C   UNL     1       4.205  35.991  65.364  1.00  0.00     0.213 C 
ENDBRANCH  15  17
ENDBRANCH  10  15
ENDBRANCH   3   5
ENDBRANCH   1   3
BRANCH   1  19
HETATM   19  N   UNL     1       8.306  29.276  58.325  1.00  0.00    -0.274 N 
HETATM   20  H   UNL     1       7.849  29.271  59.238  1.00  0.00     0.189 HD
BRANCH  19  21
HETATM   21  N   UNL     1       7.562  28.693  57.286  1.00  0.00    -0.267 N 
HETATM   22  C   UNL     1       7.536  27.310  57.242  1.00  0.00     0.245 C 
HETATM   23  O   UNL     1       7.883  26.606  58.190  1.00  0.00    -0.271 OA
HETATM   24  H   UNL     1       7.532  29.226  56.418  1.00  0.00     0.190 HD
BRANCH  22  25
HETATM   25  C   UNL     1       7.055  26.742  55.921  1.00  0.00     0.178 C 
BRANCH  25  26
HETATM   26  S   UNL     1       6.600  24.997  56.159  1.00  0.00    -0.155 SA
BRANCH  26  27
HETATM   27  C   UNL     1       8.215  24.239  55.811  1.00  0.00     0.114 C 
BRANCH  27  28
HETATM   28  C   UNL     1       8.065  22.970  55.006  1.00  0.00    -0.032 A 
HETATM   29  C   UNL     1       7.931  22.951  53.608  1.00  0.00     0.018 A 
HETATM   30 BR   UNL     1       7.902  24.541  52.564  1.00  0.00    -0.051 Br
HETATM   31  C   UNL     1       7.816  21.738  52.918  1.00  0.00     0.019 A 
HETATM   32  C   UNL     1       7.839  20.530  53.613  1.00  0.00     0.001 A 
HETATM   33  C   UNL     1       7.980  20.529  54.997  1.00  0.00     0.001 A 
HETATM   34  C   UNL     1       8.095  21.737  55.687  1.00  0.00     0.009 A 
ENDBRANCH  27  28
ENDBRANCH  26  27
ENDBRANCH  25  26
ENDBRANCH  22  25
ENDBRANCH  19  21
ENDBRANCH   1  19
TORSDOF 10
ENDMDL
MODEL 2
REMARK VINA RESULT:      -9.1      1.861      2.276
REMARK  10 active torsions:
REMARK  status: ('A' for Active; 'I' for Inactive)
REMARK    1  A    between atoms: O_2  and  C_3 
REMARK    2  A    between atoms: C_3  and  C_4 
REMARK    3  A    between atoms: C_11  and  N_12 
REMARK    4  A    between atoms: N_12  and  C_13 
REMARK    5  A    between atoms: C_13  and  N_14 
REMARK    6  A    between atoms: N_14  and  N_15 
REMARK       I    between atoms: N_15  and  C_16 
REMARK    7  A    between atoms: C_16  and  C_17 
REMARK    8  A    between atoms: C_17  and  S_18 
REMARK    9  A    between atoms: S_18  and  C_19 
REMARK   10  A    between atoms: C_19  and  C_20 
ROOT
HETATM    1  C   UNL     1       7.797  29.256  56.919  1.00  0.00     0.191 C 
HETATM    2  S   UNL     1       7.931  27.668  57.442  1.00  0.00    -0.039 SA
ENDROOT
BRANCH   1   3
HETATM    3  N   UNL     1       8.452  30.219  57.635  1.00  0.00    -0.332 N 
HETATM    4  H   UNL     1       9.342  30.471  57.217  1.00  0.00     0.168 HD
BRANCH   3   5
HETATM    5  C   UNL     1       8.208  30.762  58.916  1.00  0.00     0.035 A 
HETATM    6  C   UNL     1       6.993  31.442  59.084  1.00  0.00     0.049 A 
HETATM    7  C   UNL     1       6.709  32.087  60.308  1.00  0.00     0.020 A 
HETATM    8  S   UNL     1       5.300  32.986  60.693  1.00  0.00    -0.082 SA
HETATM    9  C   UNL     1       7.603  32.060  61.377  1.00  0.00     0.004 A 
HETATM   10  C   UNL     1       5.862  33.389  62.262  1.00  0.00     0.103 A 
HETATM   11  C   UNL     1       7.093  32.806  62.500  1.00  0.00     0.068 A 
HETATM   12 CL   UNL     1       7.998  32.942  63.959  1.00  0.00    -0.082 Cl
HETATM   13  C   UNL     1       8.820  31.360  61.189  1.00  0.00     0.017 A 
HETATM   14  C   UNL     1       9.116  30.738  59.967  1.00  0.00     0.030 A 
BRANCH  10  15
HETATM   15  C   UNL     1       5.088  34.242  63.150  1.00  0.00     0.301 C 
HETATM   16  O   UNL     1       5.059  35.467  63.118  1.00  0.00    -0.259 OA
BRANCH  15  17
HETATM   17  O   UNL     1       4.358  33.505  64.043  1.00  0.00    -0.322 OA
HETATM   18  C   UNL     1       4.757  33.667  65.405  1.00  0.00     0.213 C 
ENDBRANCH  15  17
ENDBRANCH  10  15
ENDBRANCH   3   5
ENDBRANCH   1   3
BRANCH   1  19
HETATM   19  N   UNL     1       7.083  29.653  55.824  1.00  0.00    -0.274 N 
HETATM   20  H   UNL     1       6.944  30.649  55.649  1.00  0.00     0.189 HD
BRANCH  19  21
HETATM   21  N   UNL     1       6.927  28.826  54.700  1.00  0.00    -0.267 N 
HETATM   22  C   UNL     1       5.729  28.141  54.595  1.00  0.00     0.245 C 
HETATM   23  O   UNL     1       4.735  28.430  55.261  1.00  0.00    -0.271 OA
HETATM   24  H   UNL     1       7.783  28.400  54.348  1.00  0.00     0.190 HD
BRANCH  22  25
HETATM   25  C   UNL     1       5.755  26.999  53.598  1.00  0.00     0.178 C 
BRANCH  25  26
HETATM   26  S   UNL     1       5.905  25.428  54.504  1.00  0.00    -0.155 SA
BRANCH  26  27
HETATM   27  C   UNL     1       7.633  25.036  54.096  1.00  0.00     0.114 C 
BRANCH  27  28
HETATM   28  C   UNL     1       7.895  23.552  54.184  1.00  0.00    -0.032 A 
HETATM   29  C   UNL     1       8.288  22.903  55.367  1.00  0.00     0.018 A 
HETATM   30 BR   UNL     1       8.556  23.838  57.001  1.00  0.00    -0.051 Br
HETATM   31  C   UNL     1       8.495  21.519  55.387  1.00  0.00     0.019 A 
HETATM   32  C   UNL     1       8.308  20.763  54.230  1.00  0.00     0.001 A 
HETATM   33  C   UNL     1       7.911  21.387  53.052  1.00  0.00     0.001 A 
HETATM   34  C   UNL     1       7.703  22.767  53.030  1.00  0.00     0.009 A 
ENDBRANCH  27  28
ENDBRANCH  26  27
ENDBRANCH  25  26
ENDBRANCH  22  25
ENDBRANCH  19  21
ENDBRANCH   1  19
TORSDOF 10
ENDMDL
MODEL 3
REMARK VINA RESULT:      -8.8      2.316      2.726
REMARK  10 active torsions:
REMARK  status: ('A' for Active; 'I' for Inactive)
REMARK    1  A    between atoms: O_2  and  C_3 
REMARK    2  A    between atoms: C_3  and  C_4 
REMARK    3  A    between atoms: C_11  and  N_12 
REMARK    4  A    between atoms: N_12  and  C_13 
REMARK    5  A    between atoms: C_13  and  N_14 
REMARK    6  A    between atoms: N_14  and  N_15 
REMARK       I    between atoms: N_15  and  C_16 
REMARK    7  A    between atoms: C_16  and  C_17 
REMARK    8  A    between atoms: C_17  and  S_18 
REMARK    9  A    between atoms: S_18  and  C_19 
REMARK   10  A    between atoms: C_19  and  C_20 
ROOT
HETATM    1  C   UNL     1       4.300  30.574  56.282  1.00  0.00     0.191 C 
HETATM    2  S   UNL     1       3.518  31.179  54.927  1.00  0.00    -0.039 SA
ENDROOT
BRANCH   1   3
HETATM    3  N   UNL     1       5.321  31.314  56.811  1.00  0.00    -0.332 N 
HETATM    4  H   UNL     1       5.931  31.695  56.094  1.00  0.00     0.168 HD
BRANCH   3   5
HETATM    5  C   UNL     1       5.772  31.471  58.140  1.00  0.00     0.035 A 
HETATM    6  C   UNL     1       4.831  31.941  59.067  1.00  0.00     0.049 A 
HETATM    7  C   UNL     1       5.223  32.206  60.398  1.00  0.00     0.020 A 
HETATM    8  S   UNL     1       4.231  32.806  61.662  1.00  0.00    -0.082 SA
HETATM    9  C   UNL     1       6.532  32.001  60.833  1.00  0.00     0.004 A 
HETATM   10  C   UNL     1       5.520  32.845  62.792  1.00  0.00     0.103 A 
HETATM   11  C   UNL     1       6.682  32.363  62.220  1.00  0.00     0.068 A 
HETATM   12 CL   UNL     1       8.201  32.213  63.016  1.00  0.00    -0.082 Cl
HETATM   13  C   UNL     1       7.464  31.517  59.882  1.00  0.00     0.017 A 
HETATM   14  C   UNL     1       7.084  31.275  58.554  1.00  0.00     0.030 A 
BRANCH  10  15
HETATM   15  C   UNL     1       5.327  33.342  64.146  1.00  0.00     0.301 C 
HETATM   16  O   UNL     1       4.431  33.003  64.910  1.00  0.00    -0.259 OA
BRANCH  15  17
HETATM   17  O   UNL     1       6.297  34.243  64.491  1.00  0.00    -0.322 OA
HETATM   18  C   UNL     1       6.934  33.973  65.741  1.00  0.00     0.213 C 
ENDBRANCH  15  17
ENDBRANCH  10  15
ENDBRANCH   3   5
ENDBRANCH   1   3
BRANCH   1  19
HETATM   19  N   UNL     1       3.984  29.395  56.896  1.00  0.00    -0.274 N 
HETATM   20  H   UNL     1       3.288  29.388  57.642  1.00  0.00     0.189 HD
BRANCH  19  21
HETATM   21  N   UNL     1       4.203  28.153  56.277  1.00  0.00    -0.267 N 
HETATM   22  C   UNL     1       5.500  27.669  56.298  1.00  0.00     0.245 C 
HETATM   23  O   UNL     1       6.368  28.121  57.043  1.00  0.00    -0.271 OA
HETATM   24  H   UNL     1       3.602  27.951  55.480  1.00  0.00     0.190 HD
BRANCH  22  25
HETATM   25  C   UNL     1       5.756  26.545  55.313  1.00  0.00     0.178 C 
BRANCH  25  26
HETATM   26  S   UNL     1       6.032  25.002  56.237  1.00  0.00    -0.155 SA
BRANCH  26  27
HETATM   27  C   UNL     1       7.708  24.620  55.646  1.00  0.00     0.114 C 
BRANCH  27  28
HETATM   28  C   UNL     1       7.747  23.295  54.923  1.00  0.00    -0.032 A 
HETATM   29  C   UNL     1       7.795  23.178  53.523  1.00  0.00     0.018 A 
HETATM   30 BR   UNL     1       7.795  24.691  52.372  1.00  0.00    -0.051 Br
HETATM   31  C   UNL     1       7.851  21.918  52.915  1.00  0.00     0.019 A 
HETATM   32  C   UNL     1       7.864  20.761  53.693  1.00  0.00     0.001 A 
HETATM   33  C   UNL     1       7.826  20.859  55.080  1.00  0.00     0.001 A 
HETATM   34  C   UNL     1       7.771  22.114  55.689  1.00  0.00     0.009 A 
ENDBRANCH  27  28
ENDBRANCH  26  27
ENDBRANCH  25  26
ENDBRANCH  22  25
ENDBRANCH  19  21
ENDBRANCH   1  19
TORSDOF 10
ENDMDL
MODEL 4
REMARK VINA RESULT:      -8.8      4.616     11.687
REMARK  10 active torsions:
REMARK  status: ('A' for Active; 'I' for Inactive)
REMARK    1  A    between atoms: O_2  and  C_3 
REMARK    2  A    between atoms: C_3  and  C_4 
REMARK    3  A    between atoms: C_11  and  N_12 
REMARK    4  A    between atoms: N_12  and  C_13 
REMARK    5  A    between atoms: C_13  and  N_14 
REMARK    6  A    between atoms: N_14  and  N_15 
REMARK       I    between atoms: N_15  and  C_16 
REMARK    7  A    between atoms: C_16  and  C_17 
REMARK    8  A    between atoms: C_17  and  S_18 
REMARK    9  A    between atoms: S_18  and  C_19 
REMARK   10  A    between atoms: C_19  and  C_20 
ROOT
HETATM    1  C   UNL     1       5.609  29.977  56.904  1.00  0.00     0.191 C 
HETATM    2  S   UNL     1       4.021  30.018  56.364  1.00  0.00    -0.039 SA
ENDROOT
BRANCH   1   3
HETATM    3  N   UNL     1       6.575  29.603  56.012  1.00  0.00    -0.332 N 
HETATM    4  H   UNL     1       7.123  30.393  55.684  1.00  0.00     0.168 HD
BRANCH   3   5
HETATM    5  C   UNL     1       6.807  28.382  55.340  1.00  0.00     0.035 A 
HETATM    6  C   UNL     1       7.116  27.276  56.145  1.00  0.00     0.049 A 
HETATM    7  C   UNL     1       7.445  26.040  55.548  1.00  0.00     0.020 A 
HETATM    8  S   UNL     1       7.875  24.590  56.357  1.00  0.00    -0.082 SA
HETATM    9  C   UNL     1       7.460  25.873  54.164  1.00  0.00     0.004 A 
HETATM   10  C   UNL     1       8.129  23.729  54.896  1.00  0.00     0.103 A 
HETATM   11  C   UNL     1       7.846  24.530  53.806  1.00  0.00     0.068 A 
HETATM   12 CL   UNL     1       7.950  24.049  52.156  1.00  0.00    -0.082 Cl
HETATM   13  C   UNL     1       7.136  27.001  53.370  1.00  0.00     0.017 A 
HETATM   14  C   UNL     1       6.832  28.237  53.959  1.00  0.00     0.030 A 
BRANCH  10  15
HETATM   15  C   UNL     1       8.589  22.349  54.897  1.00  0.00     0.301 C 
HETATM   16  O   UNL     1       9.727  21.977  55.160  1.00  0.00    -0.259 OA
BRANCH  15  17
HETATM   17  O   UNL     1       7.578  21.483  54.582  1.00  0.00    -0.322 OA
HETATM   18  C   UNL     1       7.831  20.678  53.430  1.00  0.00     0.213 C 
ENDBRANCH  15  17
ENDBRANCH  10  15
ENDBRANCH   3   5
ENDBRANCH   1   3
BRANCH   1  19
HETATM   19  N   UNL     1       6.003  30.298  58.172  1.00  0.00    -0.274 N 
HETATM   20  H   UNL     1       5.844  29.634  58.930  1.00  0.00     0.189 HD
BRANCH  19  21
HETATM   21  N   UNL     1       7.003  31.252  58.420  1.00  0.00    -0.267 N 
HETATM   22  C   UNL     1       8.124  30.814  59.104  1.00  0.00     0.245 C 
HETATM   23  O   UNL     1       8.394  29.622  59.247  1.00  0.00    -0.271 OA
HETATM   24  H   UNL     1       6.672  32.207  58.553  1.00  0.00     0.190 HD
BRANCH  22  25
HETATM   25  C   UNL     1       8.978  31.931  59.670  1.00  0.00     0.178 C 
BRANCH  25  26
HETATM   26  S   UNL     1       9.073  31.743  61.478  1.00  0.00    -0.155 SA
BRANCH  26  27
HETATM   27  C   UNL     1       7.301  31.533  61.828  1.00  0.00     0.114 C 
BRANCH  27  28
HETATM   28  C   UNL     1       6.862  32.401  62.983  1.00  0.00    -0.032 A 
HETATM   29  C   UNL     1       5.523  32.748  63.227  1.00  0.00     0.018 A 
HETATM   30 BR   UNL     1       4.100  32.173  62.103  1.00  0.00    -0.051 Br
HETATM   31  C   UNL     1       5.180  33.540  64.329  1.00  0.00     0.019 A 
HETATM   32  C   UNL     1       6.167  33.992  65.204  1.00  0.00     0.001 A 
HETATM   33  C   UNL     1       7.497  33.651  64.983  1.00  0.00     0.001 A 
HETATM   34  C   UNL     1       7.841  32.861  63.885  1.00  0.00     0.009 A 
ENDBRANCH  27  28
ENDBRANCH  26  27
ENDBRANCH  25  26
ENDBRANCH  22  25
ENDBRANCH  19  21
ENDBRANCH   1  19
TORSDOF 10
ENDMDL
MODEL 5
REMARK VINA RESULT:      -8.7      1.650      2.012
REMARK  10 active torsions:
REMARK  status: ('A' for Active; 'I' for Inactive)
REMARK    1  A    between atoms: O_2  and  C_3 
REMARK    2  A    between atoms: C_3  and  C_4 
REMARK    3  A    between atoms: C_11  and  N_12 
REMARK    4  A    between atoms: N_12  and  C_13 
REMARK    5  A    between atoms: C_13  and  N_14 
REMARK    6  A    between atoms: N_14  and  N_15 
REMARK       I    between atoms: N_15  and  C_16 
REMARK    7  A    between atoms: C_16  and  C_17 
REMARK    8  A    between atoms: C_17  and  S_18 
REMARK    9  A    between atoms: S_18  and  C_19 
REMARK   10  A    between atoms: C_19  and  C_20 
ROOT
HETATM    1  C   UNL     1       9.495  30.291  58.048  1.00  0.00     0.191 C 
HETATM    2  S   UNL     1      11.021  30.078  57.386  1.00  0.00    -0.039 SA
ENDROOT
BRANCH   1   3
HETATM    3  N   UNL     1       9.221  31.492  58.642  1.00  0.00    -0.332 N 
HETATM    4  H   UNL     1       9.613  32.274  58.127  1.00  0.00     0.168 HD
BRANCH   3   5
HETATM    5  C   UNL     1       8.676  31.809  59.906  1.00  0.00     0.035 A 
HETATM    6  C   UNL     1       7.324  32.183  59.926  1.00  0.00     0.049 A 
HETATM    7  C   UNL     1       6.726  32.597  61.137  1.00  0.00     0.020 A 
HETATM    8  S   UNL     1       5.106  33.114  61.358  1.00  0.00    -0.082 SA
HETATM    9  C   UNL     1       7.439  32.635  62.334  1.00  0.00     0.004 A 
HETATM   10  C   UNL     1       5.329  33.436  63.027  1.00  0.00     0.103 A 
HETATM   11  C   UNL     1       6.614  33.110  63.417  1.00  0.00     0.068 A 
HETATM   12 CL   UNL     1       7.245  33.260  65.012  1.00  0.00    -0.082 Cl
HETATM   13  C   UNL     1       8.800  32.244  62.292  1.00  0.00     0.017 A 
HETATM   14  C   UNL     1       9.404  31.855  61.088  1.00  0.00     0.030 A 
BRANCH  10  15
HETATM   15  C   UNL     1       4.258  33.986  63.845  1.00  0.00     0.301 C 
HETATM   16  O   UNL     1       3.097  33.594  63.857  1.00  0.00    -0.259 OA
BRANCH  15  17
HETATM   17  O   UNL     1       4.706  35.008  64.636  1.00  0.00    -0.322 OA
HETATM   18  C   UNL     1       4.292  36.307  64.210  1.00  0.00     0.213 C 
ENDBRANCH  15  17
ENDBRANCH  10  15
ENDBRANCH   3   5
ENDBRANCH   1   3
BRANCH   1  19
HETATM   19  N   UNL     1       8.505  29.349  58.031  1.00  0.00    -0.274 N 
HETATM   20  H   UNL     1       7.740  29.412  58.704  1.00  0.00     0.189 HD
BRANCH  19  21
HETATM   21  N   UNL     1       8.226  28.586  56.885  1.00  0.00    -0.267 N 
HETATM   22  C   UNL     1       7.144  28.986  56.120  1.00  0.00     0.245 C 
HETATM   23  O   UNL     1       6.617  30.092  56.239  1.00  0.00    -0.271 OA
HETATM   24  H   UNL     1       8.457  27.596  56.954  1.00  0.00     0.190 HD
BRANCH  22  25
HETATM   25  C   UNL     1       6.661  27.939  55.137  1.00  0.00     0.178 C 
BRANCH  25  26
HETATM   26  S   UNL     1       5.127  27.195  55.773  1.00  0.00    -0.155 SA
BRANCH  26  27
HETATM   27  C   UNL     1       5.802  25.600  56.329  1.00  0.00     0.114 C 
BRANCH  27  28
HETATM   28  C   UNL     1       6.482  24.868  55.197  1.00  0.00    -0.032 A 
HETATM   29  C   UNL     1       7.719  24.214  55.331  1.00  0.00     0.018 A 
HETATM   30 BR   UNL     1       8.694  24.200  56.963  1.00  0.00    -0.051 Br
HETATM   31  C   UNL     1       8.287  23.534  54.246  1.00  0.00     0.019 A 
HETATM   32  C   UNL     1       7.627  23.492  53.019  1.00  0.00     0.001 A 
HETATM   33  C   UNL     1       6.398  24.126  52.872  1.00  0.00     0.001 A 
HETATM   34  C   UNL     1       5.829  24.804  53.951  1.00  0.00     0.009 A 
ENDBRANCH  27  28
ENDBRANCH  26  27
ENDBRANCH  25  26
ENDBRANCH  22  25
ENDBRANCH  19  21
ENDBRANCH   1  19
TORSDOF 10
ENDMDL
MODEL 6
REMARK VINA RESULT:      -8.6      4.686     12.187
REMARK  10 active torsions:
REMARK  status: ('A' for Active; 'I' for Inactive)
REMARK    1  A    between atoms: O_2  and  C_3 
REMARK    2  A    between atoms: C_3  and  C_4 
REMARK    3  A    between atoms: C_11  and  N_12 
REMARK    4  A    between atoms: N_12  and  C_13 
REMARK    5  A    between atoms: C_13  and  N_14 
REMARK    6  A    between atoms: N_14  and  N_15 
REMARK       I    between atoms: N_15  and  C_16 
REMARK    7  A    between atoms: C_16  and  C_17 
REMARK    8  A    between atoms: C_17  and  S_18 
REMARK    9  A    between atoms: S_18  and  C_19 
REMARK   10  A    between atoms: C_19  and  C_20 
ROOT
HETATM    1  C   UNL     1       8.429  29.889  58.268  1.00  0.00     0.191 C 
HETATM    2  S   UNL     1       9.989  30.410  57.936  1.00  0.00    -0.039 SA
ENDROOT
BRANCH   1   3
HETATM    3  N   UNL     1       7.625  29.574  57.208  1.00  0.00    -0.332 N 
HETATM    4  H   UNL     1       6.952  30.307  57.005  1.00  0.00     0.168 HD
BRANCH   3   5
HETATM    5  C   UNL     1       7.442  28.366  56.498  1.00  0.00     0.035 A 
HETATM    6  C   UNL     1       7.910  27.200  57.120  1.00  0.00     0.049 A 
HETATM    7  C   UNL     1       7.841  25.963  56.440  1.00  0.00     0.020 A 
HETATM    8  S   UNL     1       8.383  24.442  57.019  1.00  0.00    -0.082 SA
HETATM    9  C   UNL     1       7.305  25.858  55.158  1.00  0.00     0.004 A 
HETATM   10  C   UNL     1       7.956  23.626  55.573  1.00  0.00     0.103 A 
HETATM   11  C   UNL     1       7.368  24.500  54.678  1.00  0.00     0.068 A 
HETATM   12 CL   UNL     1       6.775  24.084  53.116  1.00  0.00    -0.082 Cl
HETATM   13  C   UNL     1       6.829  27.047  54.553  1.00  0.00     0.017 A 
HETATM   14  C   UNL     1       6.917  28.281  55.215  1.00  0.00     0.030 A 
BRANCH  10  15
HETATM   15  C   UNL     1       8.223  22.207  55.394  1.00  0.00     0.301 C 
HETATM   16  O   UNL     1       7.682  21.296  56.011  1.00  0.00    -0.259 OA
BRANCH  15  17
HETATM   17  O   UNL     1       9.160  21.992  54.421  1.00  0.00    -0.322 OA
HETATM   18  C   UNL     1       8.833  20.941  53.511  1.00  0.00     0.213 C 
ENDBRANCH  15  17
ENDBRANCH  10  15
ENDBRANCH   3   5
ENDBRANCH   1   3
BRANCH   1  19
HETATM   19  N   UNL     1       7.910  29.752  59.524  1.00  0.00    -0.274 N 
HETATM   20  H   UNL     1       7.884  28.829  59.959  1.00  0.00     0.189 HD
BRANCH  19  21
HETATM   21  N   UNL     1       7.835  30.832  60.418  1.00  0.00    -0.267 N 
HETATM   22  C   UNL     1       8.645  30.767  61.539  1.00  0.00     0.245 C 
HETATM   23  O   UNL     1       9.586  29.980  61.637  1.00  0.00    -0.271 OA
HETATM   24  H   UNL     1       6.926  31.287  60.479  1.00  0.00     0.190 HD
BRANCH  22  25
HETATM   25  C   UNL     1       8.260  31.740  62.637  1.00  0.00     0.178 C 
BRANCH  25  26
HETATM   26  S   UNL     1       6.467  32.040  62.558  1.00  0.00    -0.155 SA
BRANCH  26  27
HETATM   27  C   UNL     1       6.471  33.830  62.874  1.00  0.00     0.114 C 
BRANCH  27  28
HETATM   28  C   UNL     1       6.124  34.135  64.312  1.00  0.00    -0.032 A 
HETATM   29  C   UNL     1       4.911  34.722  64.709  1.00  0.00     0.018 A 
HETATM   30 BR   UNL     1       3.565  35.224  63.464  1.00  0.00    -0.051 Br
HETATM   31  C   UNL     1       4.643  34.959  66.063  1.00  0.00     0.019 A 
HETATM   32  C   UNL     1       5.577  34.609  67.037  1.00  0.00     0.001 A 
HETATM   33  C   UNL     1       6.780  34.018  66.663  1.00  0.00     0.001 A 
HETATM   34  C   UNL     1       7.050  33.781  65.314  1.00  0.00     0.009 A 
ENDBRANCH  27  28
ENDBRANCH  26  27
ENDBRANCH  25  26
ENDBRANCH  22  25
ENDBRANCH  19  21
ENDBRANCH   1  19
TORSDOF 10
ENDMDL
MODEL 7
REMARK VINA RESULT:      -8.6      2.061      2.622
REMARK  10 active torsions:
REMARK  status: ('A' for Active; 'I' for Inactive)
REMARK    1  A    between atoms: O_2  and  C_3 
REMARK    2  A    between atoms: C_3  and  C_4 
REMARK    3  A    between atoms: C_11  and  N_12 
REMARK    4  A    between atoms: N_12  and  C_13 
REMARK    5  A    between atoms: C_13  and  N_14 
REMARK    6  A    between atoms: N_14  and  N_15 
REMARK       I    between atoms: N_15  and  C_16 
REMARK    7  A    between atoms: C_16  and  C_17 
REMARK    8  A    between atoms: C_17  and  S_18 
REMARK    9  A    between atoms: S_18  and  C_19 
REMARK   10  A    between atoms: C_19  and  C_20 
ROOT
HETATM    1  C   UNL     1       8.091  30.835  59.508  1.00  0.00     0.191 C 
HETATM    2  S   UNL     1       9.529  31.578  59.068  1.00  0.00    -0.039 SA
ENDROOT
BRANCH   1   3
HETATM    3  N   UNL     1       7.699  30.930  60.814  1.00  0.00    -0.332 N 
HETATM    4  H   UNL     1       7.857  30.068  61.326  1.00  0.00     0.168 HD
BRANCH   3   5
HETATM    5  C   UNL     1       6.956  31.917  61.500  1.00  0.00     0.035 A 
HETATM    6  C   UNL     1       7.342  32.181  62.822  1.00  0.00     0.049 A 
HETATM    7  C   UNL     1       6.599  33.092  63.605  1.00  0.00     0.020 A 
HETATM    8  S   UNL     1       6.895  33.522  65.239  1.00  0.00    -0.082 SA
HETATM    9  C   UNL     1       5.486  33.759  63.097  1.00  0.00     0.004 A 
HETATM   10  C   UNL     1       5.536  34.564  65.317  1.00  0.00     0.103 A 
HETATM   11  C   UNL     1       4.892  34.613  64.095  1.00  0.00     0.068 A 
HETATM   12 CL   UNL     1       3.495  35.555  63.737  1.00  0.00    -0.082 Cl
HETATM   13  C   UNL     1       5.120  33.485  61.757  1.00  0.00     0.017 A 
HETATM   14  C   UNL     1       5.841  32.563  60.983  1.00  0.00     0.030 A 
BRANCH  10  15
HETATM   15  C   UNL     1       5.178  35.255  66.547  1.00  0.00     0.301 C 
HETATM   16  O   UNL     1       4.745  36.399  66.622  1.00  0.00    -0.259 OA
BRANCH  15  17
HETATM   17  O   UNL     1       5.369  34.458  67.642  1.00  0.00    -0.322 OA
HETATM   18  C   UNL     1       6.021  35.106  68.735  1.00  0.00     0.213 C 
ENDBRANCH  15  17
ENDBRANCH  10  15
ENDBRANCH   3   5
ENDBRANCH   1   3
BRANCH   1  19
HETATM   19  N   UNL     1       7.281  30.147  58.649  1.00  0.00    -0.274 N 
HETATM   20  H   UNL     1       6.501  30.627  58.200  1.00  0.00     0.189 HD
BRANCH  19  21
HETATM   21  N   UNL     1       7.711  28.978  57.999  1.00  0.00    -0.267 N 
HETATM   22  C   UNL     1       6.724  28.107  57.571  1.00  0.00     0.245 C 
HETATM   23  O   UNL     1       5.540  28.432  57.485  1.00  0.00    -0.271 OA
HETATM   24  H   UNL     1       8.608  28.610  58.312  1.00  0.00     0.190 HD
BRANCH  22  25
HETATM   25  C   UNL     1       7.230  26.719  57.229  1.00  0.00     0.178 C 
BRANCH  25  26
HETATM   26  S   UNL     1       7.398  26.580  55.423  1.00  0.00    -0.155 SA
BRANCH  26  27
HETATM   27  C   UNL     1       6.262  25.188  55.145  1.00  0.00     0.114 C 
BRANCH  27  28
HETATM   28  C   UNL     1       7.005  23.955  54.689  1.00  0.00    -0.032 A 
HETATM   29  C   UNL     1       7.505  23.790  53.386  1.00  0.00     0.018 A 
HETATM   30 BR   UNL     1       7.280  25.106  52.033  1.00  0.00    -0.051 Br
HETATM   31  C   UNL     1       8.204  22.629  53.033  1.00  0.00     0.019 A 
HETATM   32  C   UNL     1       8.418  21.623  53.973  1.00  0.00     0.001 A 
HETATM   33  C   UNL     1       7.937  21.774  55.270  1.00  0.00     0.001 A 
HETATM   34  C   UNL     1       7.240  22.930  55.625  1.00  0.00     0.009 A 
ENDBRANCH  27  28
ENDBRANCH  26  27
ENDBRANCH  25  26
ENDBRANCH  22  25
ENDBRANCH  19  21
ENDBRANCH   1  19
TORSDOF 10
ENDMDL
MODEL 8
REMARK VINA RESULT:      -8.4      2.433      2.975
REMARK  10 active torsions:
REMARK  status: ('A' for Active; 'I' for Inactive)
REMARK    1  A    between atoms: O_2  and  C_3 
REMARK    2  A    between atoms: C_3  and  C_4 
REMARK    3  A    between atoms: C_11  and  N_12 
REMARK    4  A    between atoms: N_12  and  C_13 
REMARK    5  A    between atoms: C_13  and  N_14 
REMARK    6  A    between atoms: N_14  and  N_15 
REMARK       I    between atoms: N_15  and  C_16 
REMARK    7  A    between atoms: C_16  and  C_17 
REMARK    8  A    between atoms: C_17  and  S_18 
REMARK    9  A    between atoms: S_18  and  C_19 
REMARK   10  A    between atoms: C_19  and  C_20 
ROOT
HETATM    1  C   UNL     1       6.916  29.644  56.833  1.00  0.00     0.191 C 
HETATM    2  S   UNL     1       7.370  28.201  57.558  1.00  0.00    -0.039 SA
ENDROOT
BRANCH   1   3
HETATM    3  N   UNL     1       7.128  30.800  57.531  1.00  0.00    -0.332 N 
HETATM    4  H   UNL     1       8.064  31.168  57.390  1.00  0.00     0.168 HD
BRANCH   3   5
HETATM    5  C   UNL     1       6.367  31.443  58.533  1.00  0.00     0.035 A 
HETATM    6  C   UNL     1       7.030  31.723  59.736  1.00  0.00     0.049 A 
HETATM    7  C   UNL     1       6.319  32.287  60.818  1.00  0.00     0.020 A 
HETATM    8  S   UNL     1       6.943  32.674  62.368  1.00  0.00    -0.082 SA
HETATM    9  C   UNL     1       4.962  32.592  60.726  1.00  0.00     0.004 A 
HETATM   10  C   UNL     1       5.426  33.212  62.958  1.00  0.00     0.103 A 
HETATM   11  C   UNL     1       4.466  33.136  61.966  1.00  0.00     0.068 A 
HETATM   12 CL   UNL     1       2.816  33.598  62.134  1.00  0.00    -0.082 Cl
HETATM   13  C   UNL     1       4.314  32.309  59.499  1.00  0.00     0.017 A 
HETATM   14  C   UNL     1       5.011  31.727  58.430  1.00  0.00     0.030 A 
BRANCH  10  15
HETATM   15  C   UNL     1       5.261  33.661  64.332  1.00  0.00     0.301 C 
HETATM   16  O   UNL     1       4.563  33.119  65.181  1.00  0.00    -0.259 OA
BRANCH  15  17
HETATM   17  O   UNL     1       6.007  34.779  64.586  1.00  0.00    -0.322 OA
HETATM   18  C   UNL     1       5.522  35.966  63.956  1.00  0.00     0.213 C 
ENDBRANCH  15  17
ENDBRANCH  10  15
ENDBRANCH   3   5
ENDBRANCH   1   3
BRANCH   1  19
HETATM   19  N   UNL     1       6.354  29.744  55.592  1.00  0.00    -0.274 N 
HETATM   20  H   UNL     1       5.926  30.625  55.303  1.00  0.00     0.189 HD
BRANCH  19  21
HETATM   21  N   UNL     1       6.721  28.890  54.539  1.00  0.00    -0.267 N 
HETATM   22  C   UNL     1       5.738  28.047  54.051  1.00  0.00     0.245 C 
HETATM   23  O   UNL     1       4.542  28.206  54.295  1.00  0.00    -0.271 OA
HETATM   24  H   UNL     1       7.692  28.581  54.547  1.00  0.00     0.190 HD
BRANCH  22  25
HETATM   25  C   UNL     1       6.266  26.908  53.202  1.00  0.00     0.178 C 
BRANCH  25  26
HETATM   26  S   UNL     1       6.135  25.358  54.147  1.00  0.00    -0.155 SA
BRANCH  26  27
HETATM   27  C   UNL     1       7.860  24.801  54.007  1.00  0.00     0.114 C 
BRANCH  27  28
HETATM   28  C   UNL     1       7.969  23.304  54.170  1.00  0.00    -0.032 A 
HETATM   29  C   UNL     1       8.207  22.674  55.404  1.00  0.00     0.018 A 
HETATM   30 BR   UNL     1       8.444  23.651  57.018  1.00  0.00    -0.051 Br
HETATM   31  C   UNL     1       8.276  21.278  55.491  1.00  0.00     0.019 A 
HETATM   32  C   UNL     1       8.103  20.494  54.352  1.00  0.00     0.001 A 
HETATM   33  C   UNL     1       7.857  21.099  53.124  1.00  0.00     0.001 A 
HETATM   34  C   UNL     1       7.788  22.491  53.034  1.00  0.00     0.009 A 
ENDBRANCH  27  28
ENDBRANCH  26  27
ENDBRANCH  25  26
ENDBRANCH  22  25
ENDBRANCH  19  21
ENDBRANCH   1  19
TORSDOF 10
ENDMDL
MODEL 9
REMARK VINA RESULT:      -8.3      6.025      9.868
REMARK  10 active torsions:
REMARK  status: ('A' for Active; 'I' for Inactive)
REMARK    1  A    between atoms: O_2  and  C_3 
REMARK    2  A    between atoms: C_3  and  C_4 
REMARK    3  A    between atoms: C_11  and  N_12 
REMARK    4  A    between atoms: N_12  and  C_13 
REMARK    5  A    between atoms: C_13  and  N_14 
REMARK    6  A    between atoms: N_14  and  N_15 
REMARK       I    between atoms: N_15  and  C_16 
REMARK    7  A    between atoms: C_16  and  C_17 
REMARK    8  A    between atoms: C_17  and  S_18 
REMARK    9  A    between atoms: S_18  and  C_19 
REMARK   10  A    between atoms: C_19  and  C_20 
ROOT
HETATM    1  C   UNL     1       5.571  29.721  56.372  1.00  0.00     0.191 C 
HETATM    2  S   UNL     1       5.255  31.326  56.743  1.00  0.00    -0.039 SA
ENDROOT
BRANCH   1   3
HETATM    3  N   UNL     1       5.944  29.426  55.091  1.00  0.00    -0.332 N 
HETATM    4  H   UNL     1       6.939  29.556  54.939  1.00  0.00     0.168 HD
BRANCH   3   5
HETATM    5  C   UNL     1       5.181  29.171  53.929  1.00  0.00     0.035 A 
HETATM    6  C   UNL     1       5.699  28.217  53.040  1.00  0.00     0.049 A 
HETATM    7  C   UNL     1       5.042  27.966  51.816  1.00  0.00     0.020 A 
HETATM    8  S   UNL     1       5.531  26.865  50.594  1.00  0.00    -0.082 SA
HETATM    9  C   UNL     1       3.871  28.632  51.459  1.00  0.00     0.004 A 
HETATM   10  C   UNL     1       4.230  27.279  49.557  1.00  0.00     0.103 A 
HETATM   11  C   UNL     1       3.410  28.215  50.158  1.00  0.00     0.068 A 
HETATM   12 CL   UNL     1       1.981  28.884  49.468  1.00  0.00    -0.082 Cl
HETATM   13  C   UNL     1       3.361  29.584  52.376  1.00  0.00     0.017 A 
HETATM   14  C   UNL     1       4.023  29.855  53.582  1.00  0.00     0.030 A 
BRANCH  10  15
HETATM   15  C   UNL     1       4.092  26.683  48.237  1.00  0.00     0.301 C 
HETATM   16  O   UNL     1       4.854  26.856  47.293  1.00  0.00    -0.259 OA
BRANCH  15  17
HETATM   17  O   UNL     1       2.994  25.869  48.168  1.00  0.00    -0.322 OA
HETATM   18  C   UNL     1       2.267  25.965  46.942  1.00  0.00     0.213 C 
ENDBRANCH  15  17
ENDBRANCH  10  15
ENDBRANCH   3   5
ENDBRANCH   1   3
BRANCH   1  19
HETATM   19  N   UNL     1       5.488  28.690  57.264  1.00  0.00    -0.274 N 
HETATM   20  H   UNL     1       4.694  28.643  57.905  1.00  0.00     0.189 HD
BRANCH  19  21
HETATM   21  N   UNL     1       6.155  27.472  57.056  1.00  0.00    -0.267 N 
HETATM   22  C   UNL     1       7.462  27.396  57.506  1.00  0.00     0.245 C 
HETATM   23  O   UNL     1       7.945  28.210  58.292  1.00  0.00    -0.271 OA
HETATM   24  H   UNL     1       5.879  26.960  56.220  1.00  0.00     0.190 HD
BRANCH  22  25
HETATM   25  C   UNL     1       8.246  26.230  56.933  1.00  0.00     0.178 C 
BRANCH  25  26
HETATM   26  S   UNL     1       7.239  24.721  57.066  1.00  0.00    -0.155 SA
BRANCH  26  27
HETATM   27  C   UNL     1       6.844  24.495  55.306  1.00  0.00     0.114 C 
BRANCH  27  28
HETATM   28  C   UNL     1       7.369  23.177  54.789  1.00  0.00    -0.032 A 
HETATM   29  C   UNL     1       7.853  22.994  53.483  1.00  0.00     0.018 A 
HETATM   30 BR   UNL     1       7.880  24.397  52.200  1.00  0.00    -0.051 Br
HETATM   31  C   UNL     1       8.347  21.750  53.073  1.00  0.00     0.019 A 
HETATM   32  C   UNL     1       8.369  20.675  53.960  1.00  0.00     0.001 A 
HETATM   33  C   UNL     1       7.902  20.840  55.260  1.00  0.00     0.001 A 
HETATM   34  C   UNL     1       7.410  22.079  55.671  1.00  0.00     0.009 A 
ENDBRANCH  27  28
ENDBRANCH  26  27
ENDBRANCH  25  26
ENDBRANCH  22  25
ENDBRANCH  19  21
ENDBRANCH   1  19
TORSDOF 10
ENDMDL
MODEL 10
REMARK VINA RESULT:      -7.7      5.287     11.551
REMARK  10 active torsions:
REMARK  status: ('A' for Active; 'I' for Inactive)
REMARK    1  A    between atoms: O_2  and  C_3 
REMARK    2  A    between atoms: C_3  and  C_4 
REMARK    3  A    between atoms: C_11  and  N_12 
REMARK    4  A    between atoms: N_12  and  C_13 
REMARK    5  A    between atoms: C_13  and  N_14 
REMARK    6  A    between atoms: N_14  and  N_15 
REMARK       I    between atoms: N_15  and  C_16 
REMARK    7  A    between atoms: C_16  and  C_17 
REMARK    8  A    between atoms: C_17  and  S_18 
REMARK    9  A    between atoms: S_18  and  C_19 
REMARK   10  A    between atoms: C_19  and  C_20 
ROOT
HETATM    1  C   UNL     1       7.180  29.609  58.035  1.00  0.00     0.191 C 
HETATM    2  S   UNL     1       8.783  29.271  57.675  1.00  0.00    -0.039 SA
ENDROOT
BRANCH   1   3
HETATM    3  N   UNL     1       6.235  28.703  57.644  1.00  0.00    -0.332 N 
HETATM    4  H   UNL     1       5.717  28.323  58.430  1.00  0.00     0.168 HD
BRANCH   3   5
HETATM    5  C   UNL     1       5.996  28.077  56.400  1.00  0.00     0.035 A 
HETATM    6  C   UNL     1       5.684  28.923  55.326  1.00  0.00     0.049 A 
HETATM    7  C   UNL     1       5.348  28.371  54.070  1.00  0.00     0.020 A 
HETATM    8  S   UNL     1       4.914  29.234  52.652  1.00  0.00    -0.082 SA
HETATM    9  C   UNL     1       5.328  26.995  53.852  1.00  0.00     0.004 A 
HETATM   10  C   UNL     1       4.652  27.806  51.740  1.00  0.00     0.103 A 
HETATM   11  C   UNL     1       4.936  26.687  52.500  1.00  0.00     0.068 A 
HETATM   12 CL   UNL     1       4.825  25.056  51.959  1.00  0.00    -0.082 Cl
HETATM   13  C   UNL     1       5.656  26.159  54.949  1.00  0.00     0.017 A 
HETATM   14  C   UNL     1       5.967  26.702  56.204  1.00  0.00     0.030 A 
BRANCH  10  15
HETATM   15  C   UNL     1       4.185  27.859  50.363  1.00  0.00     0.301 C 
HETATM   16  O   UNL     1       3.060  28.183  50.003  1.00  0.00    -0.259 OA
BRANCH  15  17
HETATM   17  O   UNL     1       5.177  27.515  49.485  1.00  0.00    -0.322 OA
HETATM   18  C   UNL     1       5.519  28.542  48.552  1.00  0.00     0.213 C 
ENDBRANCH  15  17
ENDBRANCH  10  15
ENDBRANCH   3   5
ENDBRANCH   1   3
BRANCH   1  19
HETATM   19  N   UNL     1       6.755  30.727  58.697  1.00  0.00    -0.274 N 
HETATM   20  H   UNL     1       7.364  31.544  58.745  1.00  0.00     0.189 HD
BRANCH  19  21
HETATM   21  N   UNL     1       5.393  30.989  58.912  1.00  0.00    -0.267 N 
HETATM   22  C   UNL     1       5.040  32.310  59.126  1.00  0.00     0.245 C 
HETATM   23  O   UNL     1       5.791  33.250  58.867  1.00  0.00    -0.271 OA
HETATM   24  H   UNL     1       4.874  30.247  59.379  1.00  0.00     0.190 HD
BRANCH  22  25
HETATM   25  C   UNL     1       3.657  32.493  59.718  1.00  0.00     0.178 C 
BRANCH  25  26
HETATM   26  S   UNL     1       3.811  33.314  61.335  1.00  0.00    -0.155 SA
BRANCH  26  27
HETATM   27  C   UNL     1       4.758  32.031  62.209  1.00  0.00     0.114 C 
BRANCH  27  28
HETATM   28  C   UNL     1       5.597  32.626  63.315  1.00  0.00    -0.032 A 
HETATM   29  C   UNL     1       7.002  32.633  63.305  1.00  0.00     0.018 A 
HETATM   30 BR   UNL     1       8.015  31.867  61.889  1.00  0.00    -0.051 Br
HETATM   31  C   UNL     1       7.720  33.219  64.354  1.00  0.00     0.019 A 
HETATM   32  C   UNL     1       7.047  33.810  65.422  1.00  0.00     0.001 A 
HETATM   33  C   UNL     1       5.656  33.820  65.445  1.00  0.00     0.001 A 
HETATM   34  C   UNL     1       4.938  33.236  64.400  1.00  0.00     0.009 A 
ENDBRANCH  27  28
ENDBRANCH  26  27
ENDBRANCH  25  26
ENDBRANCH  22  25
ENDBRANCH  19  21
ENDBRANCH   1  19
TORSDOF 10
ENDMDL
