MODEL 1
REMARK VINA RESULT:      -9.7      0.000      0.000
REMARK  4 active torsions:
REMARK  status: ('A' for Active; 'I' for Inactive)
REMARK    1  A    between atoms: C_5  and  N_6 
REMARK       I    between atoms: N_6  and  C_7 
REMARK    2  A    between atoms: C_7  and  C_8 
REMARK    3  A    between atoms: N_10  and  C_11 
REMARK    4  A    between atoms: C_12  and  O_13 
ROOT
HETATM    1  C   UNL     1       6.332  25.151  52.527  1.00  0.00     0.086 A 
HETATM    2  C   UNL     1       6.766  25.872  53.751  1.00  0.00     0.186 A 
HETATM    3  N   UNL     1       6.358  27.078  54.017  1.00  0.00    -0.221 NA
HETATM    4  O   UNL     1       7.627  25.210  54.619  1.00  0.00    -0.290 OA
HETATM    5  C   UNL     1       8.038  23.889  54.385  1.00  0.00     0.088 A 
HETATM    6  C   UNL     1       7.599  23.201  53.261  1.00  0.00    -0.001 A 
HETATM    7  C   UNL     1       8.892  23.305  55.317  1.00  0.00     0.038 A 
HETATM    8  C   UNL     1       9.317  21.994  55.115  1.00  0.00     0.003 A 
HETATM    9  C   UNL     1       8.885  21.284  53.991  1.00  0.00     0.001 A 
HETATM   10  C   UNL     1       8.027  21.887  53.065  1.00  0.00     0.014 A 
HETATM   11  C   UNL     1       6.729  23.884  52.319  1.00  0.00     0.035 A 
ENDROOT
BRANCH   1  12
HETATM   12  C   UNL     1       5.476  25.769  51.450  1.00  0.00     0.260 C 
HETATM   13  N   UNL     1       5.906  27.000  51.007  1.00  0.00    -0.323 N 
HETATM   14  H   UNL     1       6.709  27.402  51.493  1.00  0.00     0.169 HD
HETATM   15  O   UNL     1       4.491  25.166  51.027  1.00  0.00    -0.267 OA
BRANCH  13  16
HETATM   16  C   UNL     1       5.409  27.768  49.935  1.00  0.00     0.035 A 
HETATM   17  C   UNL     1       4.971  27.235  48.724  1.00  0.00     0.030 A 
HETATM   18  C   UNL     1       4.532  28.078  47.695  1.00  0.00     0.009 A 
HETATM   19  C   UNL     1       4.515  29.466  47.866  1.00  0.00    -0.062 A 
HETATM   20  C   UNL     1       4.092  30.362  46.741  1.00  0.00     0.048 C 
HETATM   21  C   UNL     1       4.955  30.001  49.079  1.00  0.00     0.009 A 
HETATM   22  C   UNL     1       5.393  29.158  50.105  1.00  0.00     0.030 A 
ENDBRANCH  13  16
ENDBRANCH   1  12
BRANCH   3  23
HETATM   23  C   UNL     1       6.832  27.707  55.183  1.00  0.00     0.093 A 
HETATM   24  C   UNL     1       6.137  27.651  56.403  1.00  0.00     0.097 A 
HETATM   25  C   UNL     1       6.585  28.375  57.512  1.00  0.00     0.039 A 
HETATM   26  C   UNL     1       7.748  29.140  57.424  1.00  0.00     0.003 A 
HETATM   27  C   UNL     1       8.450  29.200  56.222  1.00  0.00     0.002 A 
HETATM   28  C   UNL     1       7.987  28.496  55.108  1.00  0.00     0.034 A 
BRANCH  24  29
HETATM   29  O   UNL     1       4.952  26.977  56.563  1.00  0.00    -0.354 OA
HETATM   30  C   UNL     1       5.151  25.667  57.093  1.00  0.00     0.210 C 
ENDBRANCH  24  29
ENDBRANCH   3  23
TORSDOF 4
ENDMDL
MODEL 2
REMARK VINA RESULT:      -9.7      2.424      6.589
REMARK  4 active torsions:
REMARK  status: ('A' for Active; 'I' for Inactive)
REMARK    1  A    between atoms: C_5  and  N_6 
REMARK       I    between atoms: N_6  and  C_7 
REMARK    2  A    between atoms: C_7  and  C_8 
REMARK    3  A    between atoms: N_10  and  C_11 
REMARK    4  A    between atoms: C_12  and  O_13 
ROOT
HETATM    1  C   UNL     1       8.069  25.124  56.145  1.00  0.00     0.086 A 
HETATM    2  C   UNL     1       7.370  25.354  54.854  1.00  0.00     0.186 A 
HETATM    3  N   UNL     1       6.939  26.530  54.507  1.00  0.00    -0.221 NA
HETATM    4  O   UNL     1       7.194  24.262  54.012  1.00  0.00    -0.290 OA
HETATM    5  C   UNL     1       7.698  22.992  54.336  1.00  0.00     0.088 A 
HETATM    6  C   UNL     1       8.386  22.787  55.525  1.00  0.00    -0.001 A 
HETATM    7  C   UNL     1       7.482  21.961  53.425  1.00  0.00     0.038 A 
HETATM    8  C   UNL     1       7.972  20.690  53.715  1.00  0.00     0.003 A 
HETATM    9  C   UNL     1       8.669  20.464  54.905  1.00  0.00     0.001 A 
HETATM   10  C   UNL     1       8.876  21.511  55.809  1.00  0.00     0.014 A 
HETATM   11  C   UNL     1       8.551  23.905  56.439  1.00  0.00     0.035 A 
ENDROOT
BRANCH   1  12
HETATM   12  C   UNL     1       8.253  26.188  57.198  1.00  0.00     0.260 C 
HETATM   13  N   UNL     1       8.653  27.415  56.716  1.00  0.00    -0.323 N 
HETATM   14  H   UNL     1       8.853  27.465  55.716  1.00  0.00     0.169 HD
HETATM   15  O   UNL     1       8.032  25.927  58.380  1.00  0.00    -0.267 OA
BRANCH  13  16
HETATM   16  C   UNL     1       8.785  28.631  57.416  1.00  0.00     0.035 A 
HETATM   17  C   UNL     1       9.945  29.403  57.437  1.00  0.00     0.030 A 
HETATM   18  C   UNL     1      10.001  30.578  58.197  1.00  0.00     0.009 A 
HETATM   19  C   UNL     1       8.894  31.005  58.937  1.00  0.00    -0.062 A 
HETATM   20  C   UNL     1       8.980  32.237  59.787  1.00  0.00     0.048 C 
HETATM   21  C   UNL     1       7.732  30.231  58.917  1.00  0.00     0.009 A 
HETATM   22  C   UNL     1       7.677  29.057  58.158  1.00  0.00     0.030 A 
ENDBRANCH  13  16
ENDBRANCH   1  12
BRANCH   3  23
HETATM   23  C   UNL     1       6.265  26.667  53.280  1.00  0.00     0.093 A 
HETATM   24  C   UNL     1       5.084  27.417  53.150  1.00  0.00     0.097 A 
HETATM   25  C   UNL     1       4.387  27.443  51.938  1.00  0.00     0.039 A 
HETATM   26  C   UNL     1       4.877  26.744  50.834  1.00  0.00     0.003 A 
HETATM   27  C   UNL     1       6.050  26.001  50.948  1.00  0.00     0.002 A 
HETATM   28  C   UNL     1       6.732  25.956  52.166  1.00  0.00     0.034 A 
BRANCH  24  29
HETATM   29  O   UNL     1       4.496  28.081  54.197  1.00  0.00    -0.354 OA
HETATM   30  C   UNL     1       3.921  29.320  53.786  1.00  0.00     0.210 C 
ENDBRANCH  24  29
ENDBRANCH   3  23
TORSDOF 4
ENDMDL
MODEL 3
REMARK VINA RESULT:      -9.3      1.227      1.583
REMARK  4 active torsions:
REMARK  status: ('A' for Active; 'I' for Inactive)
REMARK    1  A    between atoms: C_5  and  N_6 
REMARK       I    between atoms: N_6  and  C_7 
REMARK    2  A    between atoms: C_7  and  C_8 
REMARK    3  A    between atoms: N_10  and  C_11 
REMARK    4  A    between atoms: C_12  and  O_13 
ROOT
HETATM    1  C   UNL     1       6.161  26.184  53.121  1.00  0.00     0.086 A 
HETATM    2  C   UNL     1       6.927  26.728  54.272  1.00  0.00     0.186 A 
HETATM    3  N   UNL     1       6.802  27.964  54.656  1.00  0.00    -0.221 NA
HETATM    4  O   UNL     1       7.786  25.864  54.942  1.00  0.00    -0.290 OA
HETATM    5  C   UNL     1       7.898  24.511  54.585  1.00  0.00     0.088 A 
HETATM    6  C   UNL     1       7.152  23.995  53.533  1.00  0.00    -0.001 A 
HETATM    7  C   UNL     1       8.777  23.721  55.320  1.00  0.00     0.038 A 
HETATM    8  C   UNL     1       8.910  22.374  54.993  1.00  0.00     0.003 A 
HETATM    9  C   UNL     1       8.166  21.834  53.940  1.00  0.00     0.001 A 
HETATM   10  C   UNL     1       7.288  22.643  53.210  1.00  0.00     0.014 A 
HETATM   11  C   UNL     1       6.275  24.886  52.793  1.00  0.00     0.035 A 
ENDROOT
BRANCH   1  12
HETATM   12  C   UNL     1       5.263  27.020  52.243  1.00  0.00     0.260 C 
HETATM   13  N   UNL     1       5.745  27.246  50.973  1.00  0.00    -0.323 N 
HETATM   14  H   UNL     1       6.682  26.892  50.774  1.00  0.00     0.169 HD
HETATM   15  O   UNL     1       4.186  27.427  52.678  1.00  0.00    -0.267 OA
BRANCH  13  16
HETATM   16  C   UNL     1       5.096  27.868  49.888  1.00  0.00     0.035 A 
HETATM   17  C   UNL     1       5.295  29.196  49.511  1.00  0.00     0.030 A 
HETATM   18  C   UNL     1       4.573  29.745  48.444  1.00  0.00     0.009 A 
HETATM   19  C   UNL     1       3.651  28.973  47.731  1.00  0.00    -0.062 A 
HETATM   20  C   UNL     1       2.846  29.584  46.623  1.00  0.00     0.048 C 
HETATM   21  C   UNL     1       3.451  27.643  48.109  1.00  0.00     0.009 A 
HETATM   22  C   UNL     1       4.172  27.096  49.175  1.00  0.00     0.030 A 
ENDBRANCH  13  16
ENDBRANCH   1  12
BRANCH   3  23
HETATM   23  C   UNL     1       7.578  28.415  55.741  1.00  0.00     0.093 A 
HETATM   24  C   UNL     1       7.070  28.490  57.049  1.00  0.00     0.097 A 
HETATM   25  C   UNL     1       7.838  29.040  58.079  1.00  0.00     0.039 A 
HETATM   26  C   UNL     1       9.131  29.494  57.822  1.00  0.00     0.003 A 
HETATM   27  C   UNL     1       9.649  29.421  56.531  1.00  0.00     0.002 A 
HETATM   28  C   UNL     1       8.872  28.894  55.497  1.00  0.00     0.034 A 
BRANCH  24  29
HETATM   29  O   UNL     1       5.789  28.126  57.380  1.00  0.00    -0.354 OA
HETATM   30  C   UNL     1       4.900  29.241  57.376  1.00  0.00     0.210 C 
ENDBRANCH  24  29
ENDBRANCH   3  23
TORSDOF 4
ENDMDL
MODEL 4
REMARK VINA RESULT:      -9.3      1.936      6.753
REMARK  4 active torsions:
REMARK  status: ('A' for Active; 'I' for Inactive)
REMARK    1  A    between atoms: C_5  and  N_6 
REMARK       I    between atoms: N_6  and  C_7 
REMARK    2  A    between atoms: C_7  and  C_8 
REMARK    3  A    between atoms: N_10  and  C_11 
REMARK    4  A    between atoms: C_12  and  O_13 
ROOT
HETATM    1  C   UNL     1       5.539  26.712  52.216  1.00  0.00     0.086 A 
HETATM    2  C   UNL     1       5.404  27.817  53.199  1.00  0.00     0.186 A 
HETATM    3  N   UNL     1       5.482  27.609  54.480  1.00  0.00    -0.221 NA
HETATM    4  O   UNL     1       5.197  29.099  52.703  1.00  0.00    -0.290 OA
HETATM    5  C   UNL     1       5.164  29.362  51.325  1.00  0.00     0.088 A 
HETATM    6  C   UNL     1       5.330  28.333  50.406  1.00  0.00    -0.001 A 
HETATM    7  C   UNL     1       4.962  30.680  50.924  1.00  0.00     0.038 A 
HETATM    8  C   UNL     1       4.927  30.974  49.563  1.00  0.00     0.003 A 
HETATM    9  C   UNL     1       5.095  29.953  48.623  1.00  0.00     0.001 A 
HETATM   10  C   UNL     1       5.296  28.634  49.044  1.00  0.00     0.014 A 
HETATM   11  C   UNL     1       5.512  26.978  50.899  1.00  0.00     0.035 A 
ENDROOT
BRANCH   1  12
HETATM   12  C   UNL     1       5.676  25.260  52.602  1.00  0.00     0.260 C 
HETATM   13  N   UNL     1       6.919  24.904  53.077  1.00  0.00    -0.323 N 
HETATM   14  H   UNL     1       7.637  25.629  53.056  1.00  0.00     0.169 HD
HETATM   15  O   UNL     1       4.713  24.503  52.493  1.00  0.00    -0.267 OA
BRANCH  13  16
HETATM   16  C   UNL     1       7.324  23.674  53.634  1.00  0.00     0.035 A 
HETATM   17  C   UNL     1       7.773  22.585  52.889  1.00  0.00     0.030 A 
HETATM   18  C   UNL     1       8.115  21.384  53.523  1.00  0.00     0.009 A 
HETATM   19  C   UNL     1       8.023  21.259  54.913  1.00  0.00    -0.062 A 
HETATM   20  C   UNL     1       8.343  19.953  55.578  1.00  0.00     0.048 C 
HETATM   21  C   UNL     1       7.572  22.349  55.660  1.00  0.00     0.009 A 
HETATM   22  C   UNL     1       7.231  23.548  55.025  1.00  0.00     0.030 A 
ENDBRANCH  13  16
ENDBRANCH   1  12
BRANCH   3  23
HETATM   23  C   UNL     1       5.321  28.702  55.351  1.00  0.00     0.093 A 
HETATM   24  C   UNL     1       6.413  29.396  55.899  1.00  0.00     0.097 A 
HETATM   25  C   UNL     1       6.213  30.409  56.841  1.00  0.00     0.039 A 
HETATM   26  C   UNL     1       4.919  30.760  57.226  1.00  0.00     0.003 A 
HETATM   27  C   UNL     1       3.827  30.084  56.687  1.00  0.00     0.002 A 
HETATM   28  C   UNL     1       4.029  29.055  55.764  1.00  0.00     0.034 A 
BRANCH  24  29
HETATM   29  O   UNL     1       7.719  29.076  55.626  1.00  0.00    -0.354 OA
HETATM   30  C   UNL     1       8.345  28.411  56.722  1.00  0.00     0.210 C 
ENDBRANCH  24  29
ENDBRANCH   3  23
TORSDOF 4
ENDMDL
MODEL 5
REMARK VINA RESULT:      -8.9      1.899      6.895
REMARK  4 active torsions:
REMARK  status: ('A' for Active; 'I' for Inactive)
REMARK    1  A    between atoms: C_5  and  N_6 
REMARK       I    between atoms: N_6  and  C_7 
REMARK    2  A    between atoms: C_7  and  C_8 
REMARK    3  A    between atoms: N_10  and  C_11 
REMARK    4  A    between atoms: C_12  and  O_13 
ROOT
HETATM    1  C   UNL     1       7.408  26.143  55.172  1.00  0.00     0.086 A 
HETATM    2  C   UNL     1       6.840  26.105  53.800  1.00  0.00     0.186 A 
HETATM    3  N   UNL     1       6.285  27.149  53.258  1.00  0.00    -0.221 NA
HETATM    4  O   UNL     1       6.926  24.908  53.099  1.00  0.00    -0.290 OA
HETATM    5  C   UNL     1       7.569  23.782  53.637  1.00  0.00     0.088 A 
HETATM    6  C   UNL     1       8.134  23.831  54.905  1.00  0.00    -0.001 A 
HETATM    7  C   UNL     1       7.614  22.631  52.856  1.00  0.00     0.038 A 
HETATM    8  C   UNL     1       8.247  21.497  53.361  1.00  0.00     0.003 A 
HETATM    9  C   UNL     1       8.825  21.527  54.633  1.00  0.00     0.001 A 
HETATM   10  C   UNL     1       8.769  22.692  55.405  1.00  0.00     0.014 A 
HETATM   11  C   UNL     1       8.025  25.060  55.673  1.00  0.00     0.035 A 
ENDROOT
BRANCH   1  12
HETATM   12  C   UNL     1       7.309  27.339  56.086  1.00  0.00     0.260 C 
HETATM   13  N   UNL     1       8.507  27.754  56.626  1.00  0.00    -0.323 N 
HETATM   14  H   UNL     1       9.323  27.178  56.414  1.00  0.00     0.169 HD
HETATM   15  O   UNL     1       6.218  27.871  56.285  1.00  0.00    -0.267 OA
BRANCH  13  16
HETATM   16  C   UNL     1       8.768  28.901  57.401  1.00  0.00     0.035 A 
HETATM   17  C   UNL     1       9.882  29.722  57.238  1.00  0.00     0.030 A 
HETATM   18  C   UNL     1      10.085  30.820  58.084  1.00  0.00     0.009 A 
HETATM   19  C   UNL     1       9.171  31.119  59.099  1.00  0.00    -0.062 A 
HETATM   20  C   UNL     1       9.423  32.265  60.032  1.00  0.00     0.048 C 
HETATM   21  C   UNL     1       8.055  30.295  59.264  1.00  0.00     0.009 A 
HETATM   22  C   UNL     1       7.854  29.200  58.418  1.00  0.00     0.030 A 
ENDBRANCH  13  16
ENDBRANCH   1  12
BRANCH   3  23
HETATM   23  C   UNL     1       5.747  27.030  51.963  1.00  0.00     0.093 A 
HETATM   24  C   UNL     1       5.602  28.134  51.105  1.00  0.00     0.097 A 
HETATM   25  C   UNL     1       4.968  27.994  49.867  1.00  0.00     0.039 A 
HETATM   26  C   UNL     1       4.498  26.745  49.459  1.00  0.00     0.003 A 
HETATM   27  C   UNL     1       4.641  25.642  50.298  1.00  0.00     0.002 A 
HETATM   28  C   UNL     1       5.252  25.788  51.545  1.00  0.00     0.034 A 
BRANCH  24  29
HETATM   29  O   UNL     1       5.976  29.408  51.450  1.00  0.00    -0.354 OA
HETATM   30  C   UNL     1       4.879  30.318  51.402  1.00  0.00     0.210 C 
ENDBRANCH  24  29
ENDBRANCH   3  23
TORSDOF 4
ENDMDL
MODEL 6
REMARK VINA RESULT:      -8.9      2.429      7.907
REMARK  4 active torsions:
REMARK  status: ('A' for Active; 'I' for Inactive)
REMARK    1  A    between atoms: C_5  and  N_6 
REMARK       I    between atoms: N_6  and  C_7 
REMARK    2  A    between atoms: C_7  and  C_8 
REMARK    3  A    between atoms: N_10  and  C_11 
REMARK    4  A    between atoms: C_12  and  O_13 
ROOT
HETATM    1  C   UNL     1       5.768  27.838  53.805  1.00  0.00     0.086 A 
HETATM    2  C   UNL     1       5.302  28.475  52.547  1.00  0.00     0.186 A 
HETATM    3  N   UNL     1       5.665  28.034  51.379  1.00  0.00    -0.221 NA
HETATM    4  O   UNL     1       4.448  29.566  52.654  1.00  0.00    -0.290 OA
HETATM    5  C   UNL     1       3.994  30.030  53.899  1.00  0.00     0.088 A 
HETATM    6  C   UNL     1       4.399  29.408  55.073  1.00  0.00    -0.001 A 
HETATM    7  C   UNL     1       3.132  31.122  53.906  1.00  0.00     0.038 A 
HETATM    8  C   UNL     1       2.662  31.605  55.125  1.00  0.00     0.003 A 
HETATM    9  C   UNL     1       3.056  30.991  56.317  1.00  0.00     0.001 A 
HETATM   10  C   UNL     1       3.924  29.895  56.292  1.00  0.00     0.014 A 
HETATM   11  C   UNL     1       5.322  28.288  54.990  1.00  0.00     0.035 A 
ENDROOT
BRANCH   1  12
HETATM   12  C   UNL     1       6.766  26.707  53.852  1.00  0.00     0.260 C 
HETATM   13  N   UNL     1       6.221  25.468  54.106  1.00  0.00    -0.323 N 
HETATM   14  H   UNL     1       5.220  25.444  54.304  1.00  0.00     0.169 HD
HETATM   15  O   UNL     1       7.958  26.933  53.656  1.00  0.00    -0.267 OA
BRANCH  13  16
HETATM   16  C   UNL     1       6.857  24.211  54.084  1.00  0.00     0.035 A 
HETATM   17  C   UNL     1       7.251  23.550  52.921  1.00  0.00     0.030 A 
HETATM   18  C   UNL     1       7.838  22.280  52.991  1.00  0.00     0.009 A 
HETATM   19  C   UNL     1       8.051  21.658  54.226  1.00  0.00    -0.062 A 
HETATM   20  C   UNL     1       8.634  20.278  54.287  1.00  0.00     0.048 C 
HETATM   21  C   UNL     1       7.656  22.319  55.391  1.00  0.00     0.009 A 
HETATM   22  C   UNL     1       7.069  23.587  55.319  1.00  0.00     0.030 A 
ENDBRANCH  13  16
ENDBRANCH   1  12
BRANCH   3  23
HETATM   23  C   UNL     1       5.203  28.703  50.231  1.00  0.00     0.093 A 
HETATM   24  C   UNL     1       4.336  28.098  49.306  1.00  0.00     0.097 A 
HETATM   25  C   UNL     1       3.982  28.758  48.125  1.00  0.00     0.039 A 
HETATM   26  C   UNL     1       4.465  30.041  47.870  1.00  0.00     0.003 A 
HETATM   27  C   UNL     1       5.321  30.655  48.782  1.00  0.00     0.002 A 
HETATM   28  C   UNL     1       5.694  29.985  49.949  1.00  0.00     0.034 A 
BRANCH  24  29
HETATM   29  O   UNL     1       3.864  26.817  49.444  1.00  0.00    -0.354 OA
HETATM   30  C   UNL     1       3.476  26.253  48.193  1.00  0.00     0.210 C 
ENDBRANCH  24  29
ENDBRANCH   3  23
TORSDOF 4
ENDMDL
MODEL 7
REMARK VINA RESULT:      -8.8      2.872      7.604
REMARK  4 active torsions:
REMARK  status: ('A' for Active; 'I' for Inactive)
REMARK    1  A    between atoms: C_5  and  N_6 
REMARK       I    between atoms: N_6  and  C_7 
REMARK    2  A    between atoms: C_7  and  C_8 
REMARK    3  A    between atoms: N_10  and  C_11 
REMARK    4  A    between atoms: C_12  and  O_13 
ROOT
HETATM    1  C   UNL     1       5.208  26.821  50.992  1.00  0.00     0.086 A 
HETATM    2  C   UNL     1       4.678  28.209  50.991  1.00  0.00     0.186 A 
HETATM    3  N   UNL     1       5.053  29.086  51.874  1.00  0.00    -0.221 NA
HETATM    4  O   UNL     1       3.765  28.550  50.001  1.00  0.00    -0.290 OA
HETATM    5  C   UNL     1       3.385  27.640  49.001  1.00  0.00     0.088 A 
HETATM    6  C   UNL     1       3.912  26.354  48.980  1.00  0.00    -0.001 A 
HETATM    7  C   UNL     1       2.473  28.076  48.045  1.00  0.00     0.038 A 
HETATM    8  C   UNL     1       2.077  27.198  47.038  1.00  0.00     0.003 A 
HETATM    9  C   UNL     1       2.598  25.901  46.998  1.00  0.00     0.001 A 
HETATM   10  C   UNL     1       3.513  25.479  47.968  1.00  0.00     0.014 A 
HETATM   11  C   UNL     1       4.840  25.961  50.026  1.00  0.00     0.035 A 
ENDROOT
BRANCH   1  12
HETATM   12  C   UNL     1       6.133  26.278  52.054  1.00  0.00     0.260 C 
HETATM   13  N   UNL     1       5.887  24.973  52.421  1.00  0.00    -0.323 N 
HETATM   14  H   UNL     1       5.071  24.529  51.997  1.00  0.00     0.169 HD
HETATM   15  O   UNL     1       7.029  26.987  52.508  1.00  0.00    -0.267 OA
BRANCH  13  16
HETATM   16  C   UNL     1       6.642  24.147  53.277  1.00  0.00     0.035 A 
HETATM   17  C   UNL     1       7.518  23.155  52.839  1.00  0.00     0.030 A 
HETATM   18  C   UNL     1       8.196  22.349  53.763  1.00  0.00     0.009 A 
HETATM   19  C   UNL     1       8.017  22.532  55.138  1.00  0.00    -0.062 A 
HETATM   20  C   UNL     1       8.708  21.632  56.118  1.00  0.00     0.048 C 
HETATM   21  C   UNL     1       7.138  23.525  55.577  1.00  0.00     0.009 A 
HETATM   22  C   UNL     1       6.462  24.329  54.654  1.00  0.00     0.030 A 
ENDBRANCH  13  16
ENDBRANCH   1  12
BRANCH   3  23
HETATM   23  C   UNL     1       4.490  30.375  51.825  1.00  0.00     0.093 A 
HETATM   24  C   UNL     1       5.039  31.406  51.044  1.00  0.00     0.097 A 
HETATM   25  C   UNL     1       4.512  32.700  51.101  1.00  0.00     0.039 A 
HETATM   26  C   UNL     1       3.414  32.972  51.917  1.00  0.00     0.003 A 
HETATM   27  C   UNL     1       2.858  31.958  52.693  1.00  0.00     0.002 A 
HETATM   28  C   UNL     1       3.399  30.671  52.654  1.00  0.00     0.034 A 
BRANCH  24  29
HETATM   29  O   UNL     1       6.155  31.244  50.262  1.00  0.00    -0.354 OA
HETATM   30  C   UNL     1       6.185  32.170  49.178  1.00  0.00     0.210 C 
ENDBRANCH  24  29
ENDBRANCH   3  23
TORSDOF 4
ENDMDL
MODEL 8
REMARK VINA RESULT:      -8.7      3.620      7.136
REMARK  4 active torsions:
REMARK  status: ('A' for Active; 'I' for Inactive)
REMARK    1  A    between atoms: C_5  and  N_6 
REMARK       I    between atoms: N_6  and  C_7 
REMARK    2  A    between atoms: C_7  and  C_8 
REMARK    3  A    between atoms: N_10  and  C_11 
REMARK    4  A    between atoms: C_12  and  O_13 
ROOT
HETATM    1  C   UNL     1       5.732  27.892  55.614  1.00  0.00     0.086 A 
HETATM    2  C   UNL     1       6.777  28.788  56.174  1.00  0.00     0.186 A 
HETATM    3  N   UNL     1       7.912  28.328  56.609  1.00  0.00    -0.221 NA
HETATM    4  O   UNL     1       6.505  30.151  56.212  1.00  0.00    -0.290 OA
HETATM    5  C   UNL     1       5.311  30.681  55.697  1.00  0.00     0.088 A 
HETATM    6  C   UNL     1       4.352  29.846  55.138  1.00  0.00    -0.001 A 
HETATM    7  C   UNL     1       5.134  32.059  55.769  1.00  0.00     0.038 A 
HETATM    8  C   UNL     1       3.961  32.617  55.266  1.00  0.00     0.003 A 
HETATM    9  C   UNL     1       2.985  31.794  54.697  1.00  0.00     0.001 A 
HETATM   10  C   UNL     1       3.179  30.410  54.633  1.00  0.00     0.014 A 
HETATM   11  C   UNL     1       4.596  28.413  55.120  1.00  0.00     0.035 A 
ENDROOT
BRANCH   1  12
HETATM   12  C   UNL     1       5.843  26.388  55.591  1.00  0.00     0.260 C 
HETATM   13  N   UNL     1       6.766  25.891  54.697  1.00  0.00    -0.323 N 
HETATM   14  H   UNL     1       7.228  26.575  54.095  1.00  0.00     0.169 HD
HETATM   15  O   UNL     1       5.148  25.709  56.345  1.00  0.00    -0.267 OA
BRANCH  13  16
HETATM   16  C   UNL     1       7.194  24.560  54.529  1.00  0.00     0.035 A 
HETATM   17  C   UNL     1       7.708  23.765  55.554  1.00  0.00     0.030 A 
HETATM   18  C   UNL     1       8.152  22.464  55.287  1.00  0.00     0.009 A 
HETATM   19  C   UNL     1       8.078  21.933  53.995  1.00  0.00    -0.062 A 
HETATM   20  C   UNL     1       8.602  20.558  53.711  1.00  0.00     0.048 C 
HETATM   21  C   UNL     1       7.565  22.729  52.969  1.00  0.00     0.009 A 
HETATM   22  C   UNL     1       7.122  24.029  53.236  1.00  0.00     0.030 A 
ENDBRANCH  13  16
ENDBRANCH   1  12
BRANCH   3  23
HETATM   23  C   UNL     1       8.844  29.235  57.148  1.00  0.00     0.093 A 
HETATM   24  C   UNL     1       8.556  30.034  58.267  1.00  0.00     0.097 A 
HETATM   25  C   UNL     1       9.469  30.996  58.708  1.00  0.00     0.039 A 
HETATM   26  C   UNL     1      10.692  31.151  58.056  1.00  0.00     0.003 A 
HETATM   27  C   UNL     1      10.993  30.361  56.949  1.00  0.00     0.002 A 
HETATM   28  C   UNL     1      10.070  29.417  56.493  1.00  0.00     0.034 A 
BRANCH  24  29
HETATM   29  O   UNL     1       7.355  29.995  58.929  1.00  0.00    -0.354 OA
HETATM   30  C   UNL     1       7.006  31.265  59.476  1.00  0.00     0.210 C 
ENDBRANCH  24  29
ENDBRANCH   3  23
TORSDOF 4
ENDMDL
MODEL 9
REMARK VINA RESULT:      -8.7      2.332      7.347
REMARK  4 active torsions:
REMARK  status: ('A' for Active; 'I' for Inactive)
REMARK    1  A    between atoms: C_5  and  N_6 
REMARK       I    between atoms: N_6  and  C_7 
REMARK    2  A    between atoms: C_7  and  C_8 
REMARK    3  A    between atoms: N_10  and  C_11 
REMARK    4  A    between atoms: C_12  and  O_13 
ROOT
HETATM    1  C   UNL     1       7.300  27.398  56.761  1.00  0.00     0.086 A 
HETATM    2  C   UNL     1       6.302  28.120  55.931  1.00  0.00     0.186 A 
HETATM    3  N   UNL     1       5.700  27.548  54.930  1.00  0.00    -0.221 NA
HETATM    4  O   UNL     1       6.019  29.439  56.264  1.00  0.00    -0.290 OA
HETATM    5  C   UNL     1       6.612  30.064  57.373  1.00  0.00     0.088 A 
HETATM    6  C   UNL     1       7.515  29.374  58.172  1.00  0.00    -0.001 A 
HETATM    7  C   UNL     1       6.258  31.385  57.635  1.00  0.00     0.038 A 
HETATM    8  C   UNL     1       6.827  32.032  58.729  1.00  0.00     0.003 A 
HETATM    9  C   UNL     1       7.735  31.355  59.547  1.00  0.00     0.001 A 
HETATM   10  C   UNL     1       8.080  30.028  59.269  1.00  0.00     0.014 A 
HETATM   11  C   UNL     1       7.855  28.006  57.823  1.00  0.00     0.035 A 
ENDROOT
BRANCH   1  12
HETATM   12  C   UNL     1       7.776  25.996  56.468  1.00  0.00     0.260 C 
HETATM   13  N   UNL     1       7.079  25.346  55.475  1.00  0.00    -0.323 N 
HETATM   14  H   UNL     1       6.274  25.840  55.087  1.00  0.00     0.169 HD
HETATM   15  O   UNL     1       8.729  25.529  57.090  1.00  0.00    -0.267 OA
BRANCH  13  16
HETATM   16  C   UNL     1       7.354  24.096  54.885  1.00  0.00     0.035 A 
HETATM   17  C   UNL     1       7.413  22.893  55.587  1.00  0.00     0.030 A 
HETATM   18  C   UNL     1       7.738  21.701  54.926  1.00  0.00     0.009 A 
HETATM   19  C   UNL     1       7.998  21.694  53.552  1.00  0.00    -0.062 A 
HETATM   20  C   UNL     1       8.395  20.422  52.863  1.00  0.00     0.048 C 
HETATM   21  C   UNL     1       7.941  22.899  52.849  1.00  0.00     0.009 A 
HETATM   22  C   UNL     1       7.616  24.088  53.510  1.00  0.00     0.030 A 
ENDBRANCH  13  16
ENDBRANCH   1  12
BRANCH   3  23
HETATM   23  C   UNL     1       4.784  28.303  54.174  1.00  0.00     0.093 A 
HETATM   24  C   UNL     1       4.396  27.933  52.875  1.00  0.00     0.097 A 
HETATM   25  C   UNL     1       3.564  28.764  52.118  1.00  0.00     0.039 A 
HETATM   26  C   UNL     1       3.088  29.957  52.659  1.00  0.00     0.003 A 
HETATM   27  C   UNL     1       3.461  30.333  53.947  1.00  0.00     0.002 A 
HETATM   28  C   UNL     1       4.311  29.515  54.694  1.00  0.00     0.034 A 
BRANCH  24  29
HETATM   29  O   UNL     1       4.866  26.811  52.241  1.00  0.00    -0.354 OA
HETATM   30  C   UNL     1       5.435  27.116  50.969  1.00  0.00     0.210 C 
ENDBRANCH  24  29
ENDBRANCH   3  23
TORSDOF 4
ENDMDL
MODEL 10
REMARK VINA RESULT:      -8.7      1.935      7.212
REMARK  4 active torsions:
REMARK  status: ('A' for Active; 'I' for Inactive)
REMARK    1  A    between atoms: C_5  and  N_6 
REMARK       I    between atoms: N_6  and  C_7 
REMARK    2  A    between atoms: C_7  and  C_8 
REMARK    3  A    between atoms: N_10  and  C_11 
REMARK    4  A    between atoms: C_12  and  O_13 
ROOT
HETATM    1  C   UNL     1       5.646  28.085  53.929  1.00  0.00     0.086 A 
HETATM    2  C   UNL     1       6.155  26.702  53.738  1.00  0.00     0.186 A 
HETATM    3  N   UNL     1       6.787  26.068  54.681  1.00  0.00    -0.221 NA
HETATM    4  O   UNL     1       5.927  26.095  52.508  1.00  0.00    -0.290 OA
HETATM    5  C   UNL     1       5.200  26.735  51.492  1.00  0.00     0.088 A 
HETATM    6  C   UNL     1       4.690  28.012  51.686  1.00  0.00    -0.001 A 
HETATM    7  C   UNL     1       5.014  26.042  50.299  1.00  0.00     0.038 A 
HETATM    8  C   UNL     1       4.294  26.649  49.272  1.00  0.00     0.003 A 
HETATM    9  C   UNL     1       3.771  27.932  49.448  1.00  0.00     0.001 A 
HETATM   10  C   UNL     1       3.969  28.614  50.654  1.00  0.00     0.014 A 
HETATM   11  C   UNL     1       4.947  28.684  52.949  1.00  0.00     0.035 A 
ENDROOT
BRANCH   1  12
HETATM   12  C   UNL     1       5.895  28.905  55.170  1.00  0.00     0.260 C 
HETATM   13  N   UNL     1       7.148  28.754  55.720  1.00  0.00    -0.323 N 
HETATM   14  H   UNL     1       7.755  28.059  55.282  1.00  0.00     0.169 HD
HETATM   15  O   UNL     1       5.013  29.646  55.603  1.00  0.00    -0.267 OA
BRANCH  13  16
HETATM   16  C   UNL     1       7.728  29.467  56.788  1.00  0.00     0.035 A 
HETATM   17  C   UNL     1       7.003  30.062  57.820  1.00  0.00     0.030 A 
HETATM   18  C   UNL     1       7.660  30.790  58.820  1.00  0.00     0.009 A 
HETATM   19  C   UNL     1       9.052  30.926  58.809  1.00  0.00    -0.062 A 
HETATM   20  C   UNL     1       9.741  31.750  59.855  1.00  0.00     0.048 C 
HETATM   21  C   UNL     1       9.778  30.332  57.774  1.00  0.00     0.009 A 
HETATM   22  C   UNL     1       9.121  29.605  56.776  1.00  0.00     0.030 A 
ENDBRANCH  13  16
ENDBRANCH   1  12
BRANCH   3  23
HETATM   23  C   UNL     1       7.261  24.769  54.419  1.00  0.00     0.093 A 
HETATM   24  C   UNL     1       7.544  23.851  55.444  1.00  0.00     0.097 A 
HETATM   25  C   UNL     1       8.111  22.608  55.149  1.00  0.00     0.039 A 
HETATM   26  C   UNL     1       8.376  22.256  53.825  1.00  0.00     0.003 A 
HETATM   27  C   UNL     1       8.095  23.155  52.799  1.00  0.00     0.002 A 
HETATM   28  C   UNL     1       7.551  24.406  53.097  1.00  0.00     0.034 A 
BRANCH  24  29
HETATM   29  O   UNL     1       7.376  24.136  56.776  1.00  0.00    -0.354 OA
HETATM   30  C   UNL     1       8.602  24.511  57.400  1.00  0.00     0.210 C 
ENDBRANCH  24  29
ENDBRANCH   3  23
TORSDOF 4
ENDMDL
