MODEL 1
REMARK VINA RESULT:      -8.1      0.000      0.000
REMARK  5 active torsions:
REMARK  status: ('A' for Active; 'I' for Inactive)
REMARK    1  A    between atoms: C_3  and  C_4 
REMARK       I    between atoms: C_4  and  N_5 
REMARK    2  A    between atoms: C_7  and  N_8 
REMARK    3  A    between atoms: N_8  and  C_9 
REMARK    4  A    between atoms: C_9  and  C_10 
REMARK    5  A    between atoms: C_10  and  C_11 
ROOT
HETATM    1  C   UNL     1       8.238  20.380  52.865  1.00  0.00     0.049 C 
HETATM    2  C   UNL     1       8.217  21.757  53.472  1.00  0.00    -0.041 A 
HETATM    3  C   UNL     1       8.292  21.962  54.859  1.00  0.00     0.081 A 
HETATM    4  C   UNL     1       8.226  23.261  55.410  1.00  0.00     0.117 A 
HETATM    5  N   UNL     1       8.042  24.280  54.552  1.00  0.00    -0.346 N 
HETATM    6  H   UNL     1       7.929  25.208  54.944  1.00  0.00     0.167 HD
HETATM    7  C   UNL     1       7.961  24.144  53.216  1.00  0.00     0.007 A 
HETATM    8  C   UNL     1       7.749  25.365  52.378  1.00  0.00     0.068 C 
HETATM    9  C   UNL     1       8.050  22.873  52.651  1.00  0.00     0.032 A 
ENDROOT
BRANCH   4  10
HETATM   10  N   UNL     1       8.223  23.499  56.780  1.00  0.00    -0.375 N 
HETATM   11  H   UNL     1       8.449  22.661  57.326  1.00  0.00     0.161 HD
BRANCH  10  12
HETATM   12  C   UNL     1       8.734  24.731  57.371  1.00  0.00     0.126 C 
BRANCH  12  13
HETATM   13  C   UNL     1       7.589  25.613  57.885  1.00  0.00     0.058 C 
BRANCH  13  14
HETATM   14  C   UNL     1       7.079  26.509  56.784  1.00  0.00    -0.057 A 
HETATM   15  C   UNL     1       5.785  26.327  56.270  1.00  0.00     0.010 A 
HETATM   16  C   UNL     1       5.328  27.119  55.216  1.00  0.00     0.043 A 
HETATM   17  C   UNL     1       6.163  28.089  54.674  1.00  0.00     0.116 A 
HETATM   18  F   UNL     1       5.728  28.839  53.654  1.00  0.00    -0.206 F 
HETATM   19  C   UNL     1       7.445  28.287  55.172  1.00  0.00     0.043 A 
HETATM   20  C   UNL     1       7.905  27.499  56.228  1.00  0.00     0.010 A 
ENDBRANCH  13  14
ENDBRANCH  12  13
ENDBRANCH  10  12
ENDBRANCH   4  10
BRANCH   3  21
HETATM   21  C   UNL     1       8.364  20.807  55.765  1.00  0.00     0.253 C 
HETATM   22  N   UNL     1       9.603  20.268  55.966  1.00  0.00    -0.366 N 
HETATM   23  H   UNL     1      10.368  20.401  55.316  1.00  0.00     0.159 HD
HETATM   24  H   UNL     1       9.613  19.391  56.483  1.00  0.00     0.159 HD
HETATM   25  O   UNL     1       7.354  20.366  56.289  1.00  0.00    -0.268 OA
ENDBRANCH   3  21
TORSDOF 5
ENDMDL
MODEL 2
REMARK VINA RESULT:      -8.0      2.969      6.205
REMARK  5 active torsions:
REMARK  status: ('A' for Active; 'I' for Inactive)
REMARK    1  A    between atoms: C_3  and  C_4 
REMARK       I    between atoms: C_4  and  N_5 
REMARK    2  A    between atoms: C_7  and  N_8 
REMARK    3  A    between atoms: N_8  and  C_9 
REMARK    4  A    between atoms: C_9  and  C_10 
REMARK    5  A    between atoms: C_10  and  C_11 
ROOT
HETATM    1  C   UNL     1       5.469  28.941  55.040  1.00  0.00     0.049 C 
HETATM    2  C   UNL     1       6.674  28.424  55.778  1.00  0.00    -0.041 A 
HETATM    3  C   UNL     1       6.743  27.110  56.267  1.00  0.00     0.081 A 
HETATM    4  C   UNL     1       7.868  26.659  56.994  1.00  0.00     0.117 A 
HETATM    5  N   UNL     1       8.841  27.558  57.234  1.00  0.00    -0.346 N 
HETATM    6  H   UNL     1       9.620  27.261  57.811  1.00  0.00     0.167 HD
HETATM    7  C   UNL     1       8.828  28.828  56.793  1.00  0.00     0.007 A 
HETATM    8  C   UNL     1       9.975  29.724  57.138  1.00  0.00     0.068 C 
HETATM    9  C   UNL     1       7.739  29.284  56.051  1.00  0.00     0.032 A 
ENDROOT
BRANCH   4  10
HETATM   10  N   UNL     1       7.942  25.391  57.558  1.00  0.00    -0.375 N 
HETATM   11  H   UNL     1       7.052  25.089  57.968  1.00  0.00     0.161 HD
BRANCH  10  12
HETATM   12  C   UNL     1       8.702  24.300  56.957  1.00  0.00     0.126 C 
BRANCH  12  13
HETATM   13  C   UNL     1       7.899  22.993  56.972  1.00  0.00     0.058 C 
BRANCH  13  14
HETATM   14  C   UNL     1       8.082  22.248  55.673  1.00  0.00    -0.057 A 
HETATM   15  C   UNL     1       7.941  22.921  54.449  1.00  0.00     0.010 A 
HETATM   16  C   UNL     1       8.057  22.224  53.244  1.00  0.00     0.043 A 
HETATM   17  C   UNL     1       8.310  20.858  53.263  1.00  0.00     0.116 A 
HETATM   18  F   UNL     1       8.409  20.190  52.108  1.00  0.00    -0.206 F 
HETATM   19  C   UNL     1       8.458  20.176  54.465  1.00  0.00     0.043 A 
HETATM   20  C   UNL     1       8.344  20.869  55.671  1.00  0.00     0.010 A 
ENDBRANCH  13  14
ENDBRANCH  12  13
ENDBRANCH  10  12
ENDBRANCH   4  10
BRANCH   3  21
HETATM   21  C   UNL     1       5.600  26.204  56.091  1.00  0.00     0.253 C 
HETATM   22  N   UNL     1       4.582  26.327  56.994  1.00  0.00    -0.366 N 
HETATM   23  H   UNL     1       4.709  26.747  57.906  1.00  0.00     0.159 HD
HETATM   24  H   UNL     1       3.868  25.604  56.938  1.00  0.00     0.159 HD
HETATM   25  O   UNL     1       5.590  25.388  55.184  1.00  0.00    -0.268 OA
ENDBRANCH   3  21
TORSDOF 5
ENDMDL
MODEL 3
REMARK VINA RESULT:      -7.8      3.204      6.360
REMARK  5 active torsions:
REMARK  status: ('A' for Active; 'I' for Inactive)
REMARK    1  A    between atoms: C_3  and  C_4 
REMARK       I    between atoms: C_4  and  N_5 
REMARK    2  A    between atoms: C_7  and  N_8 
REMARK    3  A    between atoms: N_8  and  C_9 
REMARK    4  A    between atoms: C_9  and  C_10 
REMARK    5  A    between atoms: C_10  and  C_11 
ROOT
HETATM    1  C   UNL     1       5.343  28.680  56.934  1.00  0.00     0.049 C 
HETATM    2  C   UNL     1       4.960  27.987  55.655  1.00  0.00    -0.041 A 
HETATM    3  C   UNL     1       5.412  26.694  55.342  1.00  0.00     0.081 A 
HETATM    4  C   UNL     1       5.075  26.080  54.116  1.00  0.00     0.117 A 
HETATM    5  N   UNL     1       4.345  26.805  53.249  1.00  0.00    -0.346 N 
HETATM    6  H   UNL     1       4.154  26.396  52.341  1.00  0.00     0.167 HD
HETATM    7  C   UNL     1       3.887  28.046  53.492  1.00  0.00     0.007 A 
HETATM    8  C   UNL     1       3.090  28.742  52.435  1.00  0.00     0.068 C 
HETATM    9  C   UNL     1       4.187  28.660  54.708  1.00  0.00     0.032 A 
ENDROOT
BRANCH   4  10
HETATM   10  N   UNL     1       5.562  24.834  53.738  1.00  0.00    -0.375 N 
HETATM   11  H   UNL     1       4.868  24.088  53.853  1.00  0.00     0.161 HD
BRANCH  10  12
HETATM   12  C   UNL     1       6.436  24.640  52.585  1.00  0.00     0.126 C 
BRANCH  12  13
HETATM   13  C   UNL     1       7.883  24.386  53.025  1.00  0.00     0.058 C 
BRANCH  13  14
HETATM   14  C   UNL     1       7.991  23.060  53.738  1.00  0.00    -0.057 A 
HETATM   15  C   UNL     1       8.267  23.021  55.114  1.00  0.00     0.010 A 
HETATM   16  C   UNL     1       8.421  21.797  55.767  1.00  0.00     0.043 A 
HETATM   17  C   UNL     1       8.303  20.615  55.047  1.00  0.00     0.116 A 
HETATM   18  F   UNL     1       8.463  19.443  55.672  1.00  0.00    -0.206 F 
HETATM   19  C   UNL     1       8.025  20.634  53.685  1.00  0.00     0.043 A 
HETATM   20  C   UNL     1       7.869  21.855  53.028  1.00  0.00     0.010 A 
ENDBRANCH  13  14
ENDBRANCH  12  13
ENDBRANCH  10  12
ENDBRANCH   4  10
BRANCH   3  21
HETATM   21  C   UNL     1       6.313  25.992  56.267  1.00  0.00     0.253 C 
HETATM   22  N   UNL     1       7.631  26.346  56.217  1.00  0.00    -0.366 N 
HETATM   23  H   UNL     1       8.046  26.793  55.409  1.00  0.00     0.159 HD
HETATM   24  H   UNL     1       8.256  25.757  56.762  1.00  0.00     0.159 HD
HETATM   25  O   UNL     1       5.882  25.137  57.022  1.00  0.00    -0.268 OA
ENDBRANCH   3  21
TORSDOF 5
ENDMDL
MODEL 4
REMARK VINA RESULT:      -7.8      3.549      6.880
REMARK  5 active torsions:
REMARK  status: ('A' for Active; 'I' for Inactive)
REMARK    1  A    between atoms: C_3  and  C_4 
REMARK       I    between atoms: C_4  and  N_5 
REMARK    2  A    between atoms: C_7  and  N_8 
REMARK    3  A    between atoms: N_8  and  C_9 
REMARK    4  A    between atoms: C_9  and  C_10 
REMARK    5  A    between atoms: C_10  and  C_11 
ROOT
HETATM    1  C   UNL     1       4.057  29.015  56.211  1.00  0.00     0.049 C 
HETATM    2  C   UNL     1       5.155  28.037  55.890  1.00  0.00    -0.041 A 
HETATM    3  C   UNL     1       5.425  27.623  54.575  1.00  0.00     0.081 A 
HETATM    4  C   UNL     1       6.432  26.671  54.301  1.00  0.00     0.117 A 
HETATM    5  N   UNL     1       7.083  26.148  55.357  1.00  0.00    -0.346 N 
HETATM    6  H   UNL     1       7.761  25.417  55.175  1.00  0.00     0.167 HD
HETATM    7  C   UNL     1       6.866  26.504  56.636  1.00  0.00     0.007 A 
HETATM    8  C   UNL     1       7.658  25.837  57.716  1.00  0.00     0.068 C 
HETATM    9  C   UNL     1       5.894  27.462  56.925  1.00  0.00     0.032 A 
ENDROOT
BRANCH   4  10
HETATM   10  N   UNL     1       6.680  26.181  53.024  1.00  0.00    -0.375 N 
HETATM   11  H   UNL     1       7.528  26.580  52.607  1.00  0.00     0.161 HD
BRANCH  10  12
HETATM   12  C   UNL     1       6.448  24.790  52.649  1.00  0.00     0.126 C 
BRANCH  12  13
HETATM   13  C   UNL     1       7.772  24.027  52.515  1.00  0.00     0.058 C 
BRANCH  13  14
HETATM   14  C   UNL     1       7.802  22.854  53.464  1.00  0.00    -0.057 A 
HETATM   15  C   UNL     1       7.728  23.067  54.850  1.00  0.00     0.010 A 
HETATM   16  C   UNL     1       7.809  21.989  55.733  1.00  0.00     0.043 A 
HETATM   17  C   UNL     1       7.966  20.702  55.233  1.00  0.00     0.116 A 
HETATM   18  F   UNL     1       8.055  19.671  56.082  1.00  0.00    -0.206 F 
HETATM   19  C   UNL     1       8.035  20.472  53.865  1.00  0.00     0.043 A 
HETATM   20  C   UNL     1       7.953  21.546  52.978  1.00  0.00     0.010 A 
ENDBRANCH  13  14
ENDBRANCH  12  13
ENDBRANCH  10  12
ENDBRANCH   4  10
BRANCH   3  21
HETATM   21  C   UNL     1       4.601  28.126  53.467  1.00  0.00     0.253 C 
HETATM   22  N   UNL     1       3.436  27.457  53.224  1.00  0.00    -0.366 N 
HETATM   23  H   UNL     1       3.280  26.503  53.526  1.00  0.00     0.159 HD
HETATM   24  H   UNL     1       2.951  27.733  52.372  1.00  0.00     0.159 HD
HETATM   25  O   UNL     1       4.967  29.087  52.810  1.00  0.00    -0.268 OA
ENDBRANCH   3  21
TORSDOF 5
ENDMDL
MODEL 5
REMARK VINA RESULT:      -7.7      4.278      7.180
REMARK  5 active torsions:
REMARK  status: ('A' for Active; 'I' for Inactive)
REMARK    1  A    between atoms: C_3  and  C_4 
REMARK       I    between atoms: C_4  and  N_5 
REMARK    2  A    between atoms: C_7  and  N_8 
REMARK    3  A    between atoms: N_8  and  C_9 
REMARK    4  A    between atoms: C_9  and  C_10 
REMARK    5  A    between atoms: C_10  and  C_11 
ROOT
HETATM    1  C   UNL     1       3.143  29.544  51.822  1.00  0.00     0.049 C 
HETATM    2  C   UNL     1       3.962  28.406  51.276  1.00  0.00    -0.041 A 
HETATM    3  C   UNL     1       4.845  27.668  52.082  1.00  0.00     0.081 A 
HETATM    4  C   UNL     1       5.636  26.631  51.538  1.00  0.00     0.117 A 
HETATM    5  N   UNL     1       5.538  26.418  50.213  1.00  0.00    -0.346 N 
HETATM    6  H   UNL     1       6.150  25.720  49.805  1.00  0.00     0.167 HD
HETATM    7  C   UNL     1       4.713  27.094  49.393  1.00  0.00     0.007 A 
HETATM    8  C   UNL     1       4.710  26.758  47.936  1.00  0.00     0.068 C 
HETATM    9  C   UNL     1       3.905  28.103  49.915  1.00  0.00     0.032 A 
ENDROOT
BRANCH   4  10
HETATM   10  N   UNL     1       6.573  25.928  52.286  1.00  0.00    -0.375 N 
HETATM   11  H   UNL     1       6.936  26.473  53.075  1.00  0.00     0.161 HD
BRANCH  10  12
HETATM   12  C   UNL     1       6.451  24.503  52.573  1.00  0.00     0.126 C 
BRANCH  12  13
HETATM   13  C   UNL     1       7.816  23.806  52.502  1.00  0.00     0.058 C 
BRANCH  13  14
HETATM   14  C   UNL     1       7.871  22.655  53.476  1.00  0.00    -0.057 A 
HETATM   15  C   UNL     1       7.661  22.879  54.845  1.00  0.00     0.010 A 
HETATM   16  C   UNL     1       7.762  21.826  55.756  1.00  0.00     0.043 A 
HETATM   17  C   UNL     1       8.077  20.553  55.299  1.00  0.00     0.116 A 
HETATM   18  F   UNL     1       8.186  19.546  56.175  1.00  0.00    -0.206 F 
HETATM   19  C   UNL     1       8.283  20.310  53.947  1.00  0.00     0.043 A 
HETATM   20  C   UNL     1       8.180  21.359  53.033  1.00  0.00     0.010 A 
ENDBRANCH  13  14
ENDBRANCH  12  13
ENDBRANCH  10  12
ENDBRANCH   4  10
BRANCH   3  21
HETATM   21  C   UNL     1       5.011  28.023  53.498  1.00  0.00     0.253 C 
HETATM   22  N   UNL     1       4.114  27.475  54.371  1.00  0.00    -0.366 N 
HETATM   23  H   UNL     1       3.209  27.129  54.079  1.00  0.00     0.159 HD
HETATM   24  H   UNL     1       4.160  27.839  55.320  1.00  0.00     0.159 HD
HETATM   25  O   UNL     1       5.903  28.777  53.848  1.00  0.00    -0.268 OA
ENDBRANCH   3  21
TORSDOF 5
ENDMDL
MODEL 6
REMARK VINA RESULT:      -7.6      5.009      7.626
REMARK  5 active torsions:
REMARK  status: ('A' for Active; 'I' for Inactive)
REMARK    1  A    between atoms: C_3  and  C_4 
REMARK       I    between atoms: C_4  and  N_5 
REMARK    2  A    between atoms: C_7  and  N_8 
REMARK    3  A    between atoms: N_8  and  C_9 
REMARK    4  A    between atoms: C_9  and  C_10 
REMARK    5  A    between atoms: C_10  and  C_11 
ROOT
HETATM    1  C   UNL     1       2.306  28.648  48.351  1.00  0.00     0.049 C 
HETATM    2  C   UNL     1       3.299  28.465  49.466  1.00  0.00    -0.041 A 
HETATM    3  C   UNL     1       4.174  27.368  49.515  1.00  0.00     0.081 A 
HETATM    4  C   UNL     1       5.068  27.194  50.594  1.00  0.00     0.117 A 
HETATM    5  N   UNL     1       5.008  28.097  51.590  1.00  0.00    -0.346 N 
HETATM    6  H   UNL     1       5.601  27.943  52.398  1.00  0.00     0.167 HD
HETATM    7  C   UNL     1       4.190  29.165  51.599  1.00  0.00     0.007 A 
HETATM    8  C   UNL     1       4.222  30.088  52.775  1.00  0.00     0.068 C 
HETATM    9  C   UNL     1       3.319  29.369  50.530  1.00  0.00     0.032 A 
ENDROOT
BRANCH   4  10
HETATM   10  N   UNL     1       5.897  26.084  50.715  1.00  0.00    -0.375 N 
HETATM   11  H   UNL     1       6.770  26.185  50.186  1.00  0.00     0.161 HD
BRANCH  10  12
HETATM   12  C   UNL     1       6.059  25.347  51.964  1.00  0.00     0.126 C 
BRANCH  12  13
HETATM   13  C   UNL     1       7.522  24.946  52.183  1.00  0.00     0.058 C 
BRANCH  13  14
HETATM   14  C   UNL     1       7.619  23.845  53.210  1.00  0.00    -0.057 A 
HETATM   15  C   UNL     1       7.868  22.524  52.806  1.00  0.00     0.010 A 
HETATM   16  C   UNL     1       7.905  21.494  53.748  1.00  0.00     0.043 A 
HETATM   17  C   UNL     1       7.692  21.783  55.090  1.00  0.00     0.116 A 
HETATM   18  F   UNL     1       7.715  20.793  55.990  1.00  0.00    -0.206 F 
HETATM   19  C   UNL     1       7.449  23.085  55.509  1.00  0.00     0.043 A 
HETATM   20  C   UNL     1       7.412  24.118  54.572  1.00  0.00     0.010 A 
ENDBRANCH  13  14
ENDBRANCH  12  13
ENDBRANCH  10  12
ENDBRANCH   4  10
BRANCH   3  21
HETATM   21  C   UNL     1       4.114  26.339  48.467  1.00  0.00     0.253 C 
HETATM   22  N   UNL     1       3.164  25.369  48.623  1.00  0.00    -0.366 N 
HETATM   23  H   UNL     1       2.752  25.147  49.520  1.00  0.00     0.159 HD
HETATM   24  H   UNL     1       3.228  24.595  47.965  1.00  0.00     0.159 HD
HETATM   25  O   UNL     1       4.888  26.367  47.525  1.00  0.00    -0.268 OA
ENDBRANCH   3  21
TORSDOF 5
ENDMDL
MODEL 7
REMARK VINA RESULT:      -7.5      3.138      4.485
REMARK  5 active torsions:
REMARK  status: ('A' for Active; 'I' for Inactive)
REMARK    1  A    between atoms: C_3  and  C_4 
REMARK       I    between atoms: C_4  and  N_5 
REMARK    2  A    between atoms: C_7  and  N_8 
REMARK    3  A    between atoms: N_8  and  C_9 
REMARK    4  A    between atoms: C_9  and  C_10 
REMARK    5  A    between atoms: C_10  and  C_11 
ROOT
HETATM    1  C   UNL     1       7.605  24.741  51.811  1.00  0.00     0.049 C 
HETATM    2  C   UNL     1       7.394  24.256  53.220  1.00  0.00    -0.041 A 
HETATM    3  C   UNL     1       6.913  25.099  54.235  1.00  0.00     0.081 A 
HETATM    4  C   UNL     1       6.765  24.634  55.561  1.00  0.00     0.117 A 
HETATM    5  N   UNL     1       7.148  23.368  55.811  1.00  0.00    -0.346 N 
HETATM    6  H   UNL     1       7.106  23.047  56.772  1.00  0.00     0.167 HD
HETATM    7  C   UNL     1       7.617  22.517  54.881  1.00  0.00     0.007 A 
HETATM    8  C   UNL     1       8.013  21.137  55.299  1.00  0.00     0.068 C 
HETATM    9  C   UNL     1       7.746  22.949  53.562  1.00  0.00     0.032 A 
ENDROOT
BRANCH   4  10
HETATM   10  N   UNL     1       6.363  25.456  56.607  1.00  0.00    -0.375 N 
HETATM   11  H   UNL     1       5.594  25.051  57.152  1.00  0.00     0.161 HD
BRANCH  10  12
HETATM   12  C   UNL     1       7.301  26.229  57.413  1.00  0.00     0.126 C 
BRANCH  12  13
HETATM   13  C   UNL     1       6.859  27.694  57.522  1.00  0.00     0.058 C 
BRANCH  13  14
HETATM   14  C   UNL     1       8.059  28.598  57.659  1.00  0.00    -0.057 A 
HETATM   15  C   UNL     1       8.036  29.667  58.568  1.00  0.00     0.010 A 
HETATM   16  C   UNL     1       9.123  30.537  58.661  1.00  0.00     0.043 A 
HETATM   17  C   UNL     1      10.230  30.341  57.844  1.00  0.00     0.116 A 
HETATM   18  F   UNL     1      11.267  31.184  57.925  1.00  0.00    -0.206 F 
HETATM   19  C   UNL     1      10.274  29.286  56.942  1.00  0.00     0.043 A 
HETATM   20  C   UNL     1       9.190  28.412  56.847  1.00  0.00     0.010 A 
ENDBRANCH  13  14
ENDBRANCH  12  13
ENDBRANCH  10  12
ENDBRANCH   4  10
BRANCH   3  21
HETATM   21  C   UNL     1       6.629  26.510  53.940  1.00  0.00     0.253 C 
HETATM   22  N   UNL     1       5.356  26.803  53.542  1.00  0.00    -0.366 N 
HETATM   23  H   UNL     1       4.733  26.108  53.148  1.00  0.00     0.159 HD
HETATM   24  H   UNL     1       5.217  27.755  53.211  1.00  0.00     0.159 HD
HETATM   25  O   UNL     1       7.505  27.353  54.042  1.00  0.00    -0.268 OA
ENDBRANCH   3  21
TORSDOF 5
ENDMDL
MODEL 8
REMARK VINA RESULT:      -7.4      4.211      7.489
REMARK  5 active torsions:
REMARK  status: ('A' for Active; 'I' for Inactive)
REMARK    1  A    between atoms: C_3  and  C_4 
REMARK       I    between atoms: C_4  and  N_5 
REMARK    2  A    between atoms: C_7  and  N_8 
REMARK    3  A    between atoms: N_8  and  C_9 
REMARK    4  A    between atoms: C_9  and  C_10 
REMARK    5  A    between atoms: C_10  and  C_11 
ROOT
HETATM    1  C   UNL     1       3.534  31.051  53.435  1.00  0.00     0.049 C 
HETATM    2  C   UNL     1       4.002  29.700  53.901  1.00  0.00    -0.041 A 
HETATM    3  C   UNL     1       3.921  28.559  53.085  1.00  0.00     0.081 A 
HETATM    4  C   UNL     1       4.327  27.292  53.559  1.00  0.00     0.117 A 
HETATM    5  N   UNL     1       4.748  27.222  54.836  1.00  0.00    -0.346 N 
HETATM    6  H   UNL     1       4.979  26.306  55.203  1.00  0.00     0.167 HD
HETATM    7  C   UNL     1       4.845  28.279  55.663  1.00  0.00     0.007 A 
HETATM    8  C   UNL     1       5.324  28.058  57.062  1.00  0.00     0.068 C 
HETATM    9  C   UNL     1       4.474  29.542  55.205  1.00  0.00     0.032 A 
ENDROOT
BRANCH   4  10
HETATM   10  N   UNL     1       4.193  26.128  52.810  1.00  0.00    -0.375 N 
HETATM   11  H   UNL     1       4.214  26.306  51.800  1.00  0.00     0.161 HD
BRANCH  10  12
HETATM   12  C   UNL     1       4.816  24.865  53.189  1.00  0.00     0.126 C 
BRANCH  12  13
HETATM   13  C   UNL     1       6.259  24.784  52.674  1.00  0.00     0.058 C 
BRANCH  13  14
HETATM   14  C   UNL     1       7.059  23.807  53.499  1.00  0.00    -0.057 A 
HETATM   15  C   UNL     1       7.068  23.909  54.899  1.00  0.00     0.010 A 
HETATM   16  C   UNL     1       7.848  23.040  55.664  1.00  0.00     0.043 A 
HETATM   17  C   UNL     1       8.621  22.075  55.031  1.00  0.00     0.116 A 
HETATM   18  F   UNL     1       9.379  21.251  55.765  1.00  0.00    -0.206 F 
HETATM   19  C   UNL     1       8.622  21.956  53.647  1.00  0.00     0.043 A 
HETATM   20  C   UNL     1       7.842  22.820  52.878  1.00  0.00     0.010 A 
ENDBRANCH  13  14
ENDBRANCH  12  13
ENDBRANCH  10  12
ENDBRANCH   4  10
BRANCH   3  21
HETATM   21  C   UNL     1       3.334  28.663  51.742  1.00  0.00     0.253 C 
HETATM   22  N   UNL     1       1.970  28.673  51.674  1.00  0.00    -0.366 N 
HETATM   23  H   UNL     1       1.383  28.307  52.413  1.00  0.00     0.159 HD
HETATM   24  H   UNL     1       1.585  28.607  50.734  1.00  0.00     0.159 HD
HETATM   25  O   UNL     1       4.050  28.724  50.756  1.00  0.00    -0.268 OA
ENDBRANCH   3  21
TORSDOF 5
ENDMDL
MODEL 9
REMARK VINA RESULT:      -7.4      3.986      7.103
REMARK  5 active torsions:
REMARK  status: ('A' for Active; 'I' for Inactive)
REMARK    1  A    between atoms: C_3  and  C_4 
REMARK       I    between atoms: C_4  and  N_5 
REMARK    2  A    between atoms: C_7  and  N_8 
REMARK    3  A    between atoms: N_8  and  C_9 
REMARK    4  A    between atoms: C_9  and  C_10 
REMARK    5  A    between atoms: C_10  and  C_11 
ROOT
HETATM    1  C   UNL     1       3.111  29.510  52.346  1.00  0.00     0.049 C 
HETATM    2  C   UNL     1       4.105  28.586  52.996  1.00  0.00    -0.041 A 
HETATM    3  C   UNL     1       4.976  27.779  52.247  1.00  0.00     0.081 A 
HETATM    4  C   UNL     1       5.871  26.888  52.878  1.00  0.00     0.117 A 
HETATM    5  N   UNL     1       5.816  26.815  54.221  1.00  0.00    -0.346 N 
HETATM    6  H   UNL     1       6.409  26.131  54.678  1.00  0.00     0.167 HD
HETATM    7  C   UNL     1       5.002  27.560  54.990  1.00  0.00     0.007 A 
HETATM    8  C   UNL     1       5.038  27.372  56.473  1.00  0.00     0.068 C 
HETATM    9  C   UNL     1       4.129  28.465  54.387  1.00  0.00     0.032 A 
ENDROOT
BRANCH   4  10
HETATM   10  N   UNL     1       6.696  26.020  52.171  1.00  0.00    -0.375 N 
HETATM   11  H   UNL     1       6.848  26.323  51.203  1.00  0.00     0.161 HD
BRANCH  10  12
HETATM   12  C   UNL     1       7.861  25.373  52.765  1.00  0.00     0.126 C 
BRANCH  12  13
HETATM   13  C   UNL     1       8.039  23.950  52.222  1.00  0.00     0.058 C 
BRANCH  13  14
HETATM   14  C   UNL     1       7.946  22.943  53.341  1.00  0.00    -0.057 A 
HETATM   15  C   UNL     1       8.082  21.573  53.069  1.00  0.00     0.010 A 
HETATM   16  C   UNL     1       7.945  20.634  54.093  1.00  0.00     0.043 A 
HETATM   17  C   UNL     1       7.669  21.063  55.385  1.00  0.00     0.116 A 
HETATM   18  F   UNL     1       7.524  20.162  56.364  1.00  0.00    -0.206 F 
HETATM   19  C   UNL     1       7.535  22.416  55.675  1.00  0.00     0.043 A 
HETATM   20  C   UNL     1       7.674  23.358  54.655  1.00  0.00     0.010 A 
ENDBRANCH  13  14
ENDBRANCH  12  13
ENDBRANCH  10  12
ENDBRANCH   4  10
BRANCH   3  21
HETATM   21  C   UNL     1       4.910  27.801  50.779  1.00  0.00     0.253 C 
HETATM   22  N   UNL     1       3.964  27.002  50.201  1.00  0.00    -0.366 N 
HETATM   23  H   UNL     1       3.559  26.205  50.676  1.00  0.00     0.159 HD
HETATM   24  H   UNL     1       4.025  26.926  49.188  1.00  0.00     0.159 HD
HETATM   25  O   UNL     1       5.677  28.496  50.134  1.00  0.00    -0.268 OA
ENDBRANCH   3  21
TORSDOF 5
ENDMDL
MODEL 10
REMARK VINA RESULT:      -7.2      3.553      6.959
REMARK  5 active torsions:
REMARK  status: ('A' for Active; 'I' for Inactive)
REMARK    1  A    between atoms: C_3  and  C_4 
REMARK       I    between atoms: C_4  and  N_5 
REMARK    2  A    between atoms: C_7  and  N_8 
REMARK    3  A    between atoms: N_8  and  C_9 
REMARK    4  A    between atoms: C_9  and  C_10 
REMARK    5  A    between atoms: C_10  and  C_11 
ROOT
HETATM    1  C   UNL     1       6.619  30.770  57.844  1.00  0.00     0.049 C 
HETATM    2  C   UNL     1       6.228  29.875  56.699  1.00  0.00    -0.041 A 
HETATM    3  C   UNL     1       6.875  28.653  56.451  1.00  0.00     0.081 A 
HETATM    4  C   UNL     1       6.521  27.850  55.345  1.00  0.00     0.117 A 
HETATM    5  N   UNL     1       5.573  28.331  54.519  1.00  0.00    -0.346 N 
HETATM    6  H   UNL     1       5.359  27.791  53.687  1.00  0.00     0.167 HD
HETATM    7  C   UNL     1       4.922  29.493  54.704  1.00  0.00     0.007 A 
HETATM    8  C   UNL     1       3.893  29.911  53.702  1.00  0.00     0.068 C 
HETATM    9  C   UNL     1       5.239  30.288  55.805  1.00  0.00     0.032 A 
ENDROOT
BRANCH   4  10
HETATM   10  N   UNL     1       7.186  26.672  55.024  1.00  0.00    -0.375 N 
HETATM   11  H   UNL     1       8.146  26.653  55.382  1.00  0.00     0.161 HD
BRANCH  10  12
HETATM   12  C   UNL     1       6.536  25.366  55.037  1.00  0.00     0.126 C 
BRANCH  12  13
HETATM   13  C   UNL     1       6.809  24.600  53.736  1.00  0.00     0.058 C 
BRANCH  13  14
HETATM   14  C   UNL     1       7.363  23.230  54.038  1.00  0.00    -0.057 A 
HETATM   15  C   UNL     1       7.769  22.388  52.991  1.00  0.00     0.010 A 
HETATM   16  C   UNL     1       8.233  21.099  53.262  1.00  0.00     0.043 A 
HETATM   17  C   UNL     1       8.288  20.652  54.576  1.00  0.00     0.116 A 
HETATM   18  F   UNL     1       8.721  19.412  54.834  1.00  0.00    -0.206 F 
HETATM   19  C   UNL     1       7.895  21.473  55.626  1.00  0.00     0.043 A 
HETATM   20  C   UNL     1       7.433  22.763  55.360  1.00  0.00     0.010 A 
ENDBRANCH  13  14
ENDBRANCH  12  13
ENDBRANCH  10  12
ENDBRANCH   4  10
BRANCH   3  21
HETATM   21  C   UNL     1       7.992  28.232  57.308  1.00  0.00     0.253 C 
HETATM   22  N   UNL     1       9.201  28.817  57.062  1.00  0.00    -0.366 N 
HETATM   23  H   UNL     1       9.430  29.247  56.175  1.00  0.00     0.159 HD
HETATM   24  H   UNL     1       9.986  28.415  57.571  1.00  0.00     0.159 HD
HETATM   25  O   UNL     1       7.823  27.395  58.179  1.00  0.00    -0.268 OA
ENDBRANCH   3  21
TORSDOF 5
ENDMDL
