MODEL 1
REMARK VINA RESULT:      -8.5      0.000      0.000
REMARK  3 active torsions:
REMARK  status: ('A' for Active; 'I' for Inactive)
REMARK    1  A    between atoms: C_4  and  C_5 
REMARK    2  A    between atoms: C_11  and  C_12 
REMARK    3  A    between atoms: C_21  and  N_22 
ROOT
HETATM    1  C   UNL     1       6.155  28.681  55.619  1.00  0.00     0.098 C 
HETATM    2  N   UNL     1       5.098  29.515  55.538  1.00  0.00    -0.172 NA
HETATM    3  N   UNL     1       4.277  28.948  54.640  1.00  0.00    -0.256 N 
HETATM    4  H   UNL     1       3.433  29.438  54.369  1.00  0.00     0.191 HD
HETATM    5  C   UNL     1       4.769  27.788  54.147  1.00  0.00     0.175 C 
HETATM    6  C   UNL     1       5.925  27.510  54.834  1.00  0.00     0.036 C 
HETATM    7  C   UNL     1       6.673  26.252  54.516  1.00  0.00     0.077 C 
HETATM    8  C   UNL     1       6.239  25.775  53.104  1.00  0.00     0.076 C 
HETATM    9  C   UNL     1       7.114  24.874  52.426  1.00  0.00     0.100 C 
HETATM   10  N   UNL     1       7.821  24.122  51.897  1.00  0.00    -0.192 NA
HETATM   11  C   UNL     1       5.089  26.192  52.507  1.00  0.00     0.140 C 
HETATM   12  O   UNL     1       4.241  27.128  53.124  1.00  0.00    -0.279 OA
ENDROOT
BRANCH   7  13
HETATM   13  C   UNL     1       6.500  25.068  55.531  1.00  0.00     0.003 C 
HETATM   14  C   UNL     1       6.197  25.479  56.990  1.00  0.00     0.032 C 
HETATM   15  C   UNL     1       7.401  25.614  57.865  1.00  0.00    -0.030 C 
HETATM   16  C   UNL     1       8.581  25.055  57.575  1.00  0.00    -0.031 C 
HETATM   17  C   UNL     1       8.826  24.223  56.358  1.00  0.00     0.027 C 
HETATM   18  C   UNL     1       7.601  23.990  55.473  1.00  0.00     0.009 C 
ENDBRANCH   7  13
BRANCH  11  19
HETATM   19  N   UNL     1       4.625  25.781  51.278  1.00  0.00    -0.282 NA
HETATM   20  H   UNL     1       3.639  25.531  51.240  1.00  0.00     0.126 HD
HETATM   21  H   UNL     1       4.908  26.409  50.531  1.00  0.00     0.126 HD
ENDBRANCH  11  19
BRANCH   1  22
HETATM   22  C   UNL     1       7.322  29.072  56.414  1.00  0.00    -0.005 A 
HETATM   23  C   UNL     1       8.588  29.136  55.811  1.00  0.00     0.014 A 
HETATM   24  C   UNL     1       9.712  29.520  56.545  1.00  0.00     0.001 A 
HETATM   25  C   UNL     1       9.585  29.831  57.897  1.00  0.00     0.000 A 
HETATM   26  C   UNL     1       8.340  29.747  58.515  1.00  0.00     0.001 A 
HETATM   27  C   UNL     1       7.215  29.362  57.780  1.00  0.00     0.014 A 
ENDBRANCH   1  22
TORSDOF 3
ENDMDL
MODEL 2
REMARK VINA RESULT:      -8.4      8.096     11.443
REMARK  3 active torsions:
REMARK  status: ('A' for Active; 'I' for Inactive)
REMARK    1  A    between atoms: C_4  and  C_5 
REMARK    2  A    between atoms: C_11  and  C_12 
REMARK    3  A    between atoms: C_21  and  N_22 
ROOT
HETATM    1  C   UNL     1       6.795  33.381  64.121  1.00  0.00     0.098 C 
HETATM    2  N   UNL     1       8.038  32.857  64.150  1.00  0.00    -0.172 NA
HETATM    3  N   UNL     1       8.288  32.489  62.884  1.00  0.00    -0.256 N 
HETATM    4  H   UNL     1       9.153  32.006  62.675  1.00  0.00     0.191 HD
HETATM    5  C   UNL     1       7.256  32.758  62.051  1.00  0.00     0.175 C 
HETATM    6  C   UNL     1       6.313  33.443  62.779  1.00  0.00     0.036 C 
HETATM    7  C   UNL     1       5.064  33.903  62.094  1.00  0.00     0.077 C 
HETATM    8  C   UNL     1       4.876  33.056  60.807  1.00  0.00     0.076 C 
HETATM    9  C   UNL     1       3.565  33.013  60.243  1.00  0.00     0.100 C 
HETATM   10  N   UNL     1       2.502  33.007  59.782  1.00  0.00    -0.192 NA
HETATM   11  C   UNL     1       5.894  32.362  60.227  1.00  0.00     0.140 C 
HETATM   12  O   UNL     1       7.178  32.335  60.796  1.00  0.00    -0.279 OA
ENDROOT
BRANCH   7  13
HETATM   13  C   UNL     1       5.001  35.425  61.717  1.00  0.00     0.003 C 
HETATM   14  C   UNL     1       6.156  36.296  62.264  1.00  0.00     0.032 C 
HETATM   15  C   UNL     1       5.877  36.951  63.578  1.00  0.00    -0.030 C 
HETATM   16  C   UNL     1       4.641  37.128  64.058  1.00  0.00    -0.031 C 
HETATM   17  C   UNL     1       3.404  36.705  63.335  1.00  0.00     0.027 C 
HETATM   18  C   UNL     1       3.635  36.102  61.949  1.00  0.00     0.009 C 
ENDBRANCH   7  13
BRANCH  11  19
HETATM   19  N   UNL     1       5.808  31.625  59.068  1.00  0.00    -0.282 NA
HETATM   20  H   UNL     1       5.014  30.992  59.005  1.00  0.00     0.126 HD
HETATM   21  H   UNL     1       5.929  32.200  58.238  1.00  0.00     0.126 HD
ENDBRANCH  11  19
BRANCH   1  22
HETATM   22  C   UNL     1       6.144  33.759  65.378  1.00  0.00    -0.005 A 
HETATM   23  C   UNL     1       6.925  34.066  66.503  1.00  0.00     0.014 A 
HETATM   24  C   UNL     1       6.329  34.444  67.708  1.00  0.00     0.001 A 
HETATM   25  C   UNL     1       4.940  34.505  67.806  1.00  0.00     0.000 A 
HETATM   26  C   UNL     1       4.152  34.177  66.706  1.00  0.00     0.001 A 
HETATM   27  C   UNL     1       4.749  33.799  65.499  1.00  0.00     0.014 A 
ENDBRANCH   1  22
TORSDOF 3
ENDMDL
MODEL 3
REMARK VINA RESULT:      -8.4      6.490      9.366
REMARK  3 active torsions:
REMARK  status: ('A' for Active; 'I' for Inactive)
REMARK    1  A    between atoms: C_4  and  C_5 
REMARK    2  A    between atoms: C_11  and  C_12 
REMARK    3  A    between atoms: C_21  and  N_22 
ROOT
HETATM    1  C   UNL     1       4.350  34.173  60.853  1.00  0.00     0.098 C 
HETATM    2  N   UNL     1       3.210  33.968  60.161  1.00  0.00    -0.172 NA
HETATM    3  N   UNL     1       3.474  32.921  59.363  1.00  0.00    -0.256 N 
HETATM    4  H   UNL     1       2.772  32.622  58.697  1.00  0.00     0.191 HD
HETATM    5  C   UNL     1       4.734  32.452  59.520  1.00  0.00     0.175 C 
HETATM    6  C   UNL     1       5.303  33.152  60.556  1.00  0.00     0.036 C 
HETATM    7  C   UNL     1       6.700  32.816  60.976  1.00  0.00     0.077 C 
HETATM    8  C   UNL     1       7.395  32.076  59.801  1.00  0.00     0.076 C 
HETATM    9  C   UNL     1       8.822  32.050  59.803  1.00  0.00     0.100 C 
HETATM   10  N   UNL     1       9.980  32.015  59.831  1.00  0.00    -0.192 NA
HETATM   11  C   UNL     1       6.700  31.482  58.792  1.00  0.00     0.140 C 
HETATM   12  O   UNL     1       5.298  31.547  58.731  1.00  0.00    -0.279 OA
ENDROOT
BRANCH   7  13
HETATM   13  C   UNL     1       6.843  31.953  62.278  1.00  0.00     0.003 C 
HETATM   14  C   UNL     1       5.543  31.749  63.089  1.00  0.00     0.032 C 
HETATM   15  C   UNL     1       5.320  32.751  64.176  1.00  0.00    -0.030 C 
HETATM   16  C   UNL     1       6.301  33.500  64.692  1.00  0.00    -0.031 C 
HETATM   17  C   UNL     1       7.727  33.412  64.253  1.00  0.00     0.027 C 
HETATM   18  C   UNL     1       8.017  32.344  63.198  1.00  0.00     0.009 C 
ENDBRANCH   7  13
BRANCH  11  19
HETATM   19  N   UNL     1       7.248  30.778  57.744  1.00  0.00    -0.282 NA
HETATM   20  H   UNL     1       6.660  30.047  57.348  1.00  0.00     0.126 HD
HETATM   21  H   UNL     1       7.655  31.390  57.041  1.00  0.00     0.126 HD
ENDBRANCH  11  19
BRANCH   1  22
HETATM   22  C   UNL     1       4.460  35.344  61.726  1.00  0.00    -0.005 A 
HETATM   23  C   UNL     1       5.726  35.857  62.049  1.00  0.00     0.014 A 
HETATM   24  C   UNL     1       5.857  36.981  62.867  1.00  0.00     0.001 A 
HETATM   25  C   UNL     1       4.720  37.598  63.386  1.00  0.00     0.000 A 
HETATM   26  C   UNL     1       3.458  37.084  63.096  1.00  0.00     0.001 A 
HETATM   27  C   UNL     1       3.328  35.959  62.277  1.00  0.00     0.014 A 
ENDBRANCH   1  22
TORSDOF 3
ENDMDL
MODEL 4
REMARK VINA RESULT:      -7.9      1.589      2.280
REMARK  3 active torsions:
REMARK  status: ('A' for Active; 'I' for Inactive)
REMARK    1  A    between atoms: C_4  and  C_5 
REMARK    2  A    between atoms: C_11  and  C_12 
REMARK    3  A    between atoms: C_21  and  N_22 
ROOT
HETATM    1  C   UNL     1       6.491  29.201  56.563  1.00  0.00     0.098 C 
HETATM    2  N   UNL     1       5.598  29.732  57.425  1.00  0.00    -0.172 NA
HETATM    3  N   UNL     1       4.398  29.470  56.884  1.00  0.00    -0.256 N 
HETATM    4  H   UNL     1       3.567  29.835  57.334  1.00  0.00     0.191 HD
HETATM    5  C   UNL     1       4.490  28.795  55.715  1.00  0.00     0.175 C 
HETATM    6  C   UNL     1       5.816  28.492  55.522  1.00  0.00     0.036 C 
HETATM    7  C   UNL     1       6.212  27.709  54.309  1.00  0.00     0.077 C 
HETATM    8  C   UNL     1       5.079  27.840  53.257  1.00  0.00     0.076 C 
HETATM    9  C   UNL     1       5.417  27.555  51.900  1.00  0.00     0.100 C 
HETATM   10  N   UNL     1       5.699  27.295  50.806  1.00  0.00    -0.192 NA
HETATM   11  C   UNL     1       3.814  28.224  53.581  1.00  0.00     0.140 C 
HETATM   12  O   UNL     1       3.469  28.572  54.898  1.00  0.00    -0.279 OA
ENDROOT
BRANCH   7  13
HETATM   13  C   UNL     1       6.522  26.188  54.539  1.00  0.00     0.003 C 
HETATM   14  C   UNL     1       5.395  25.371  55.212  1.00  0.00     0.032 C 
HETATM   15  C   UNL     1       5.496  25.275  56.700  1.00  0.00    -0.030 C 
HETATM   16  C   UNL     1       6.630  25.499  57.372  1.00  0.00    -0.031 C 
HETATM   17  C   UNL     1       7.924  25.856  56.714  1.00  0.00     0.027 C 
HETATM   18  C   UNL     1       7.889  25.888  55.186  1.00  0.00     0.009 C 
ENDBRANCH   7  13
BRANCH  11  19
HETATM   19  N   UNL     1       2.754  28.323  52.708  1.00  0.00    -0.282 NA
HETATM   20  H   UNL     1       1.874  27.930  53.035  1.00  0.00     0.126 HD
HETATM   21  H   UNL     1       2.657  29.261  52.327  1.00  0.00     0.126 HD
ENDBRANCH  11  19
BRANCH   1  22
HETATM   22  C   UNL     1       7.922  29.431  56.776  1.00  0.00    -0.005 A 
HETATM   23  C   UNL     1       8.387  29.799  58.049  1.00  0.00     0.014 A 
HETATM   24  C   UNL     1       9.748  30.009  58.281  1.00  0.00     0.001 A 
HETATM   25  C   UNL     1      10.660  29.869  57.237  1.00  0.00     0.000 A 
HETATM   26  C   UNL     1      10.210  29.530  55.963  1.00  0.00     0.001 A 
HETATM   27  C   UNL     1       8.847  29.320  55.731  1.00  0.00     0.014 A 
ENDBRANCH   1  22
TORSDOF 3
ENDMDL
MODEL 5
REMARK VINA RESULT:      -7.8      2.145      2.982
REMARK  3 active torsions:
REMARK  status: ('A' for Active; 'I' for Inactive)
REMARK    1  A    between atoms: C_4  and  C_5 
REMARK    2  A    between atoms: C_11  and  C_12 
REMARK    3  A    between atoms: C_21  and  N_22 
ROOT
HETATM    1  C   UNL     1       6.148  28.491  55.756  1.00  0.00     0.098 C 
HETATM    2  N   UNL     1       5.194  28.377  56.704  1.00  0.00    -0.172 NA
HETATM    3  N   UNL     1       4.053  28.188  56.024  1.00  0.00    -0.256 N 
HETATM    4  H   UNL     1       3.180  28.138  56.536  1.00  0.00     0.191 HD
HETATM    5  C   UNL     1       4.240  28.178  54.684  1.00  0.00     0.175 C 
HETATM    6  C   UNL     1       5.594  28.250  54.462  1.00  0.00     0.036 C 
HETATM    7  C   UNL     1       6.099  28.222  53.052  1.00  0.00     0.077 C 
HETATM    8  C   UNL     1       4.932  28.628  52.112  1.00  0.00     0.076 C 
HETATM    9  C   UNL     1       5.281  29.087  50.806  1.00  0.00     0.100 C 
HETATM   10  N   UNL     1       5.578  29.433  49.740  1.00  0.00    -0.192 NA
HETATM   11  C   UNL     1       3.627  28.574  52.492  1.00  0.00     0.140 C 
HETATM   12  O   UNL     1       3.258  28.187  53.792  1.00  0.00    -0.279 OA
ENDROOT
BRANCH   7  13
HETATM   13  C   UNL     1       6.701  26.860  52.560  1.00  0.00     0.003 C 
HETATM   14  C   UNL     1       5.673  25.809  52.084  1.00  0.00     0.032 C 
HETATM   15  C   UNL     1       5.226  24.848  53.138  1.00  0.00    -0.030 C 
HETATM   16  C   UNL     1       5.914  24.626  54.263  1.00  0.00    -0.031 C 
HETATM   17  C   UNL     1       7.210  25.297  54.587  1.00  0.00     0.027 C 
HETATM   18  C   UNL     1       7.748  26.228  53.500  1.00  0.00     0.009 C 
ENDBRANCH   7  13
BRANCH  11  19
HETATM   19  N   UNL     1       2.544  28.880  51.700  1.00  0.00    -0.282 NA
HETATM   20  H   UNL     1       2.744  29.008  50.710  1.00  0.00     0.126 HD
HETATM   21  H   UNL     1       1.755  28.262  51.872  1.00  0.00     0.126 HD
ENDBRANCH  11  19
BRANCH   1  22
HETATM   22  C   UNL     1       7.514  28.848  56.148  1.00  0.00    -0.005 A 
HETATM   23  C   UNL     1       8.502  29.009  55.164  1.00  0.00     0.014 A 
HETATM   24  C   UNL     1       9.807  29.364  55.512  1.00  0.00     0.001 A 
HETATM   25  C   UNL     1      10.143  29.548  56.851  1.00  0.00     0.000 A 
HETATM   26  C   UNL     1       9.179  29.366  57.841  1.00  0.00     0.001 A 
HETATM   27  C   UNL     1       7.873  29.011  57.492  1.00  0.00     0.014 A 
ENDBRANCH   1  22
TORSDOF 3
ENDMDL
MODEL 6
REMARK VINA RESULT:      -7.6     15.715     18.479
REMARK  3 active torsions:
REMARK  status: ('A' for Active; 'I' for Inactive)
REMARK    1  A    between atoms: C_4  and  C_5 
REMARK    2  A    between atoms: C_11  and  C_12 
REMARK    3  A    between atoms: C_21  and  N_22 
ROOT
HETATM    1  C   UNL     1      14.132  11.014  51.979  1.00  0.00     0.098 C 
HETATM    2  N   UNL     1      14.003  11.971  51.037  1.00  0.00    -0.172 NA
HETATM    3  N   UNL     1      13.022  12.769  51.487  1.00  0.00    -0.256 N 
HETATM    4  H   UNL     1      12.706  13.534  50.903  1.00  0.00     0.191 HD
HETATM    5  C   UNL     1      12.522  12.360  52.675  1.00  0.00     0.175 C 
HETATM    6  C   UNL     1      13.286  11.297  53.094  1.00  0.00     0.036 C 
HETATM    7  C   UNL     1      12.976  10.658  54.412  1.00  0.00     0.077 C 
HETATM    8  C   UNL     1      11.517  11.022  54.796  1.00  0.00     0.076 C 
HETATM    9  C   UNL     1      10.873  10.191  55.762  1.00  0.00     0.100 C 
HETATM   10  N   UNL     1      10.372   9.524  56.567  1.00  0.00    -0.192 NA
HETATM   11  C   UNL     1      10.850  12.071  54.243  1.00  0.00     0.140 C 
HETATM   12  O   UNL     1      11.436  12.866  53.244  1.00  0.00    -0.279 OA
ENDROOT
BRANCH   7  13
HETATM   13  C   UNL     1      13.926  11.032  55.603  1.00  0.00     0.003 C 
HETATM   14  C   UNL     1      15.038  12.054  55.274  1.00  0.00     0.032 C 
HETATM   15  C   UNL     1      16.341  11.450  54.860  1.00  0.00    -0.030 C 
HETATM   16  C   UNL     1      16.677  10.184  55.128  1.00  0.00    -0.031 C 
HETATM   17  C   UNL     1      15.799   9.236  55.880  1.00  0.00     0.027 C 
HETATM   18  C   UNL     1      14.489   9.833  56.394  1.00  0.00     0.009 C 
ENDBRANCH   7  13
BRANCH  11  19
HETATM   19  N   UNL     1       9.574  12.474  54.564  1.00  0.00    -0.282 NA
HETATM   20  H   UNL     1       8.821  11.960  54.111  1.00  0.00     0.126 HD
HETATM   21  H   UNL     1       9.444  12.572  55.568  1.00  0.00     0.126 HD
ENDBRANCH  11  19
BRANCH   1  22
HETATM   22  C   UNL     1      15.030   9.882  51.737  1.00  0.00    -0.005 A 
HETATM   23  C   UNL     1      16.362  10.117  51.363  1.00  0.00     0.014 A 
HETATM   24  C   UNL     1      17.242   9.055  51.141  1.00  0.00     0.001 A 
HETATM   25  C   UNL     1      16.794   7.743  51.277  1.00  0.00     0.000 A 
HETATM   26  C   UNL     1      15.468   7.494  51.623  1.00  0.00     0.001 A 
HETATM   27  C   UNL     1      14.587   8.557  51.844  1.00  0.00     0.014 A 
ENDBRANCH   1  22
TORSDOF 3
ENDMDL
MODEL 7
REMARK VINA RESULT:      -7.6      8.602     11.246
REMARK  3 active torsions:
REMARK  status: ('A' for Active; 'I' for Inactive)
REMARK    1  A    between atoms: C_4  and  C_5 
REMARK    2  A    between atoms: C_11  and  C_12 
REMARK    3  A    between atoms: C_21  and  N_22 
ROOT
HETATM    1  C   UNL     1       7.238  33.118  63.271  1.00  0.00     0.098 C 
HETATM    2  N   UNL     1       7.448  32.762  64.556  1.00  0.00    -0.172 NA
HETATM    3  N   UNL     1       6.831  33.708  65.281  1.00  0.00    -0.256 N 
HETATM    4  H   UNL     1       6.910  33.680  66.291  1.00  0.00     0.191 HD
HETATM    5  C   UNL     1       6.239  34.650  64.512  1.00  0.00     0.175 C 
HETATM    6  C   UNL     1       6.371  34.250  63.204  1.00  0.00     0.036 C 
HETATM    7  C   UNL     1       5.771  35.096  62.124  1.00  0.00     0.077 C 
HETATM    8  C   UNL     1       5.558  36.526  62.691  1.00  0.00     0.076 C 
HETATM    9  C   UNL     1       5.415  37.584  61.744  1.00  0.00     0.100 C 
HETATM   10  N   UNL     1       5.275  38.431  60.964  1.00  0.00    -0.192 NA
HETATM   11  C   UNL     1       5.519  36.791  64.025  1.00  0.00     0.140 C 
HETATM   12  O   UNL     1       5.721  35.778  64.979  1.00  0.00    -0.279 OA
ENDROOT
BRANCH   7  13
HETATM   13  C   UNL     1       4.421  34.583  61.512  1.00  0.00     0.003 C 
HETATM   14  C   UNL     1       3.957  33.189  61.995  1.00  0.00     0.032 C 
HETATM   15  C   UNL     1       4.396  32.050  61.132  1.00  0.00    -0.030 C 
HETATM   16  C   UNL     1       4.791  32.205  59.863  1.00  0.00    -0.031 C 
HETATM   17  C   UNL     1       4.824  33.524  59.162  1.00  0.00     0.027 C 
HETATM   18  C   UNL     1       4.307  34.707  59.980  1.00  0.00     0.009 C 
ENDBRANCH   7  13
BRANCH  11  19
HETATM   19  N   UNL     1       5.295  38.023  64.595  1.00  0.00    -0.282 NA
HETATM   20  H   UNL     1       4.332  38.219  64.858  1.00  0.00     0.126 HD
HETATM   21  H   UNL     1       5.963  38.232  65.333  1.00  0.00     0.126 HD
ENDBRANCH  11  19
BRANCH   1  22
HETATM   22  C   UNL     1       7.902  32.371  62.200  1.00  0.00    -0.005 A 
HETATM   23  C   UNL     1       8.435  31.099  62.463  1.00  0.00     0.014 A 
HETATM   24  C   UNL     1       9.059  30.361  61.455  1.00  0.00     0.001 A 
HETATM   25  C   UNL     1       9.172  30.894  60.173  1.00  0.00     0.000 A 
HETATM   26  C   UNL     1       8.671  32.166  59.903  1.00  0.00     0.001 A 
HETATM   27  C   UNL     1       8.046  32.904  60.913  1.00  0.00     0.014 A 
ENDBRANCH   1  22
TORSDOF 3
ENDMDL
MODEL 8
REMARK VINA RESULT:      -7.4      1.813      4.989
REMARK  3 active torsions:
REMARK  status: ('A' for Active; 'I' for Inactive)
REMARK    1  A    between atoms: C_4  and  C_5 
REMARK    2  A    between atoms: C_11  and  C_12 
REMARK    3  A    between atoms: C_21  and  N_22 
ROOT
HETATM    1  C   UNL     1       6.151  26.842  53.493  1.00  0.00     0.098 C 
HETATM    2  N   UNL     1       6.178  26.804  52.144  1.00  0.00    -0.172 NA
HETATM    3  N   UNL     1       5.601  27.952  51.755  1.00  0.00    -0.256 N 
HETATM    4  H   UNL     1       5.452  28.115  50.766  1.00  0.00     0.191 HD
HETATM    5  C   UNL     1       5.210  28.718  52.799  1.00  0.00     0.175 C 
HETATM    6  C   UNL     1       5.649  28.100  53.945  1.00  0.00     0.036 C 
HETATM    7  C   UNL     1       5.383  28.752  55.266  1.00  0.00     0.077 C 
HETATM    8  C   UNL     1       4.209  29.752  55.086  1.00  0.00     0.076 C 
HETATM    9  C   UNL     1       3.510  30.151  56.264  1.00  0.00     0.100 C 
HETATM   10  N   UNL     1       2.967  30.486  57.232  1.00  0.00    -0.192 NA
HETATM   11  C   UNL     1       3.832  30.232  53.870  1.00  0.00     0.140 C 
HETATM   12  O   UNL     1       4.461  29.807  52.687  1.00  0.00    -0.279 OA
ENDROOT
BRANCH   7  13
HETATM   13  C   UNL     1       6.594  29.500  55.926  1.00  0.00     0.003 C 
HETATM   14  C   UNL     1       7.980  29.196  55.311  1.00  0.00     0.032 C 
HETATM   15  C   UNL     1       8.731  28.088  55.977  1.00  0.00    -0.030 C 
HETATM   16  C   UNL     1       8.457  27.661  57.214  1.00  0.00    -0.031 C 
HETATM   17  C   UNL     1       7.384  28.247  58.074  1.00  0.00     0.027 C 
HETATM   18  C   UNL     1       6.643  29.437  57.466  1.00  0.00     0.009 C 
ENDBRANCH   7  13
BRANCH  11  19
HETATM   19  N   UNL     1       2.830  31.148  53.642  1.00  0.00    -0.282 NA
HETATM   20  H   UNL     1       1.882  30.815  53.804  1.00  0.00     0.126 HD
HETATM   21  H   UNL     1       3.021  32.044  54.083  1.00  0.00     0.126 HD
ENDBRANCH  11  19
BRANCH   1  22
HETATM   22  C   UNL     1       6.580  25.667  54.255  1.00  0.00    -0.005 A 
HETATM   23  C   UNL     1       7.449  24.734  53.667  1.00  0.00     0.014 A 
HETATM   24  C   UNL     1       7.884  23.613  54.378  1.00  0.00     0.001 A 
HETATM   25  C   UNL     1       7.441  23.404  55.682  1.00  0.00     0.000 A 
HETATM   26  C   UNL     1       6.557  24.307  56.269  1.00  0.00     0.001 A 
HETATM   27  C   UNL     1       6.123  25.429  55.557  1.00  0.00     0.014 A 
ENDBRANCH   1  22
TORSDOF 3
ENDMDL
MODEL 9
REMARK VINA RESULT:      -7.2      4.231      7.729
REMARK  3 active torsions:
REMARK  status: ('A' for Active; 'I' for Inactive)
REMARK    1  A    between atoms: C_4  and  C_5 
REMARK    2  A    between atoms: C_11  and  C_12 
REMARK    3  A    between atoms: C_21  and  N_22 
ROOT
HETATM    1  C   UNL     1       6.115  31.051  57.443  1.00  0.00     0.098 C 
HETATM    2  N   UNL     1       5.577  31.579  56.323  1.00  0.00    -0.172 NA
HETATM    3  N   UNL     1       4.873  32.641  56.746  1.00  0.00    -0.256 N 
HETATM    4  H   UNL     1       4.323  33.163  56.075  1.00  0.00     0.191 HD
HETATM    5  C   UNL     1       4.942  32.810  58.087  1.00  0.00     0.175 C 
HETATM    6  C   UNL     1       5.829  31.879  58.570  1.00  0.00     0.036 C 
HETATM    7  C   UNL     1       6.129  31.857  60.037  1.00  0.00     0.077 C 
HETATM    8  C   UNL     1       4.972  32.580  60.779  1.00  0.00     0.076 C 
HETATM    9  C   UNL     1       4.822  32.305  62.171  1.00  0.00     0.100 C 
HETATM   10  N   UNL     1       4.728  32.093  63.307  1.00  0.00    -0.192 NA
HETATM   11  C   UNL     1       4.114  33.431  60.153  1.00  0.00     0.140 C 
HETATM   12  O   UNL     1       4.199  33.670  58.771  1.00  0.00    -0.279 OA
ENDROOT
BRANCH   7  13
HETATM   13  C   UNL     1       7.493  32.497  60.474  1.00  0.00     0.003 C 
HETATM   14  C   UNL     1       8.740  31.995  59.709  1.00  0.00     0.032 C 
HETATM   15  C   UNL     1       9.451  30.849  60.355  1.00  0.00    -0.030 C 
HETATM   16  C   UNL     1       9.306  30.534  61.646  1.00  0.00    -0.031 C 
HETATM   17  C   UNL     1       8.432  31.294  62.591  1.00  0.00     0.027 C 
HETATM   18  C   UNL     1       7.747  32.524  61.995  1.00  0.00     0.009 C 
ENDBRANCH   7  13
BRANCH  11  19
HETATM   19  N   UNL     1       3.095  34.134  60.754  1.00  0.00    -0.282 NA
HETATM   20  H   UNL     1       2.559  34.745  60.143  1.00  0.00     0.126 HD
HETATM   21  H   UNL     1       2.511  33.539  61.337  1.00  0.00     0.126 HD
ENDBRANCH  11  19
BRANCH   1  22
HETATM   22  C   UNL     1       6.840  29.781  57.362  1.00  0.00    -0.005 A 
HETATM   23  C   UNL     1       8.227  29.781  57.144  1.00  0.00     0.014 A 
HETATM   24  C   UNL     1       8.943  28.584  57.079  1.00  0.00     0.001 A 
HETATM   25  C   UNL     1       8.276  27.369  57.216  1.00  0.00     0.000 A 
HETATM   26  C   UNL     1       6.896  27.351  57.406  1.00  0.00     0.001 A 
HETATM   27  C   UNL     1       6.180  28.550  57.471  1.00  0.00     0.014 A 
ENDBRANCH   1  22
TORSDOF 3
ENDMDL
MODEL 10
REMARK VINA RESULT:      -7.0      2.875      5.584
REMARK  3 active torsions:
REMARK  status: ('A' for Active; 'I' for Inactive)
REMARK    1  A    between atoms: C_4  and  C_5 
REMARK    2  A    between atoms: C_11  and  C_12 
REMARK    3  A    between atoms: C_21  and  N_22 
ROOT
HETATM    1  C   UNL     1       4.995  28.691  52.330  1.00  0.00     0.098 C 
HETATM    2  N   UNL     1       4.807  30.022  52.214  1.00  0.00    -0.172 NA
HETATM    3  N   UNL     1       4.909  30.496  53.465  1.00  0.00    -0.256 N 
HETATM    4  H   UNL     1       4.739  31.481  53.632  1.00  0.00     0.191 HD
HETATM    5  C   UNL     1       5.154  29.522  54.372  1.00  0.00     0.175 C 
HETATM    6  C   UNL     1       5.337  28.353  53.675  1.00  0.00     0.036 C 
HETATM    7  C   UNL     1       5.661  27.102  54.431  1.00  0.00     0.077 C 
HETATM    8  C   UNL     1       5.219  27.299  55.906  1.00  0.00     0.076 C 
HETATM    9  C   UNL     1       5.027  26.121  56.689  1.00  0.00     0.100 C 
HETATM   10  N   UNL     1       4.900  25.157  57.321  1.00  0.00    -0.192 NA
HETATM   11  C   UNL     1       5.002  28.527  56.452  1.00  0.00     0.140 C 
HETATM   12  O   UNL     1       5.121  29.699  55.687  1.00  0.00    -0.279 OA
ENDROOT
BRANCH   7  13
HETATM   13  C   UNL     1       7.162  26.645  54.404  1.00  0.00     0.003 C 
HETATM   14  C   UNL     1       7.841  26.667  53.016  1.00  0.00     0.032 C 
HETATM   15  C   UNL     1       7.780  25.373  52.269  1.00  0.00    -0.030 C 
HETATM   16  C   UNL     1       7.543  24.198  52.862  1.00  0.00    -0.031 C 
HETATM   17  C   UNL     1       7.327  24.042  54.333  1.00  0.00     0.027 C 
HETATM   18  C   UNL     1       7.459  25.328  55.149  1.00  0.00     0.009 C 
ENDBRANCH   7  13
BRANCH  11  19
HETATM   19  N   UNL     1       4.649  28.776  57.758  1.00  0.00    -0.282 NA
HETATM   20  H   UNL     1       5.337  29.280  58.313  1.00  0.00     0.126 HD
HETATM   21  H   UNL     1       3.711  29.163  57.835  1.00  0.00     0.126 HD
ENDBRANCH  11  19
BRANCH   1  22
HETATM   22  C   UNL     1       4.808  27.832  51.158  1.00  0.00    -0.005 A 
HETATM   23  C   UNL     1       4.669  26.446  51.324  1.00  0.00     0.014 A 
HETATM   24  C   UNL     1       4.475  25.608  50.223  1.00  0.00     0.001 A 
HETATM   25  C   UNL     1       4.433  26.148  48.940  1.00  0.00     0.000 A 
HETATM   26  C   UNL     1       4.596  27.519  48.757  1.00  0.00     0.001 A 
HETATM   27  C   UNL     1       4.791  28.357  49.859  1.00  0.00     0.014 A 
ENDBRANCH   1  22
TORSDOF 3
ENDMDL
