MODEL 1
REMARK VINA RESULT:     -10.6      0.000      0.000
REMARK  4 active torsions:
REMARK  status: ('A' for Active; 'I' for Inactive)
REMARK    1  A    between atoms: C_7  and  C_8 
REMARK    2  A    between atoms: C_8  and  N_9 
REMARK    3  A    between atoms: N_15  and  C_17 
REMARK    4  A    between atoms: C_21  and  C_22 
ROOT
HETATM    1  N   UNL     1       7.093  29.107  57.016  1.00  0.00    -0.067 N 
HETATM    2  H   UNL     1       6.843  30.106  57.055  1.00  0.00     0.280 HD
HETATM    3  C   UNL     1       7.666  28.888  55.644  1.00  0.00     0.236 C 
HETATM    4  C   UNL     1       7.856  27.396  55.356  1.00  0.00     0.039 C 
HETATM    5  C   UNL     1       6.573  26.542  55.557  1.00  0.00    -0.013 C 
HETATM    6  C   UNL     1       5.498  26.816  54.469  1.00  0.00     0.245 C 
HETATM    7  N   UNL     1       5.944  26.330  53.111  1.00  0.00    -0.065 N 
HETATM    8  H   UNL     1       6.821  26.787  52.827  1.00  0.00     0.280 HD
HETATM    9  C   UNL     1       6.212  24.831  53.095  1.00  0.00     0.244 C 
HETATM   10  C   UNL     1       7.300  24.500  54.126  1.00  0.00     0.045 C 
HETATM   11  C   UNL     1       6.921  25.025  55.525  1.00  0.00     0.022 C 
HETATM   12  C   UNL     1       6.004  26.866  56.970  1.00  0.00     0.039 C 
HETATM   13  C   UNL     1       5.821  28.353  57.262  1.00  0.00     0.236 C 
ENDROOT
BRANCH   7  14
HETATM   14  C   UNL     1       4.936  26.679  52.051  1.00  0.00     0.188 A 
HETATM   15  C   UNL     1       5.442  27.456  50.867  1.00  0.00     0.035 A 
HETATM   16  C   UNL     1       5.093  26.003  50.719  1.00  0.00     0.035 A 
ENDBRANCH   7  14
BRANCH  10  17
HETATM   17  C   UNL     1       7.587  23.012  54.140  1.00  0.00    -0.052 A 
HETATM   18  C   UNL     1       7.574  22.314  55.358  1.00  0.00     0.007 A 
HETATM   19  C   UNL     1       7.861  20.947  55.399  1.00  0.00     0.001 A 
HETATM   20  C   UNL     1       8.164  20.261  54.227  1.00  0.00     0.000 A 
HETATM   21  C   UNL     1       8.176  20.938  53.011  1.00  0.00     0.001 A 
HETATM   22  C   UNL     1       7.890  22.303  52.965  1.00  0.00     0.007 A 
ENDBRANCH  10  17
BRANCH   1  23
HETATM   23  C   UNL     1       8.104  28.998  58.158  1.00  0.00     0.277 C 
BRANCH  23  24
HETATM   24  C   UNL     1       8.312  30.303  58.833  1.00  0.00     0.011 A 
HETATM   25  C   UNL     1       9.372  31.228  58.622  1.00  0.00     0.060 A 
HETATM   26  C   UNL     1      10.559  31.105  57.735  1.00  0.00     0.073 C 
HETATM   27  N   UNL     1       9.190  32.345  59.327  1.00  0.00    -0.178 NA
HETATM   28  N   UNL     1       8.106  32.109  60.077  1.00  0.00    -0.284 N 
HETATM   29  C   UNL     1       7.646  33.102  61.020  1.00  0.00     0.179 C 
HETATM   30  C   UNL     1       7.521  30.905  59.797  1.00  0.00     0.122 A 
ENDBRANCH  23  24
ENDBRANCH   1  23
TORSDOF 4
ENDMDL
MODEL 2
REMARK VINA RESULT:      -9.5      1.063      1.196
REMARK  4 active torsions:
REMARK  status: ('A' for Active; 'I' for Inactive)
REMARK    1  A    between atoms: C_7  and  C_8 
REMARK    2  A    between atoms: C_8  and  N_9 
REMARK    3  A    between atoms: N_15  and  C_17 
REMARK    4  A    between atoms: C_21  and  C_22 
ROOT
HETATM    1  N   UNL     1       6.352  29.439  56.725  1.00  0.00    -0.067 N 
HETATM    2  H   UNL     1       6.050  30.423  56.691  1.00  0.00     0.280 HD
HETATM    3  C   UNL     1       7.055  29.187  55.421  1.00  0.00     0.236 C 
HETATM    4  C   UNL     1       7.345  27.696  55.227  1.00  0.00     0.039 C 
HETATM    5  C   UNL     1       6.094  26.784  55.360  1.00  0.00    -0.013 C 
HETATM    6  C   UNL     1       5.106  26.947  54.172  1.00  0.00     0.245 C 
HETATM    7  N   UNL     1       5.695  26.424  52.884  1.00  0.00    -0.065 N 
HETATM    8  H   UNL     1       6.570  26.913  52.653  1.00  0.00     0.280 HD
HETATM    9  C   UNL     1       6.039  24.942  52.968  1.00  0.00     0.244 C 
HETATM   10  C   UNL     1       7.046  24.719  54.105  1.00  0.00     0.045 C 
HETATM   11  C   UNL     1       6.519  25.288  55.436  1.00  0.00     0.022 C 
HETATM   12  C   UNL     1       5.386  27.142  56.701  1.00  0.00     0.039 C 
HETATM   13  C   UNL     1       5.103  28.630  56.899  1.00  0.00     0.236 C 
ENDROOT
BRANCH   7  14
HETATM   14  C   UNL     1       4.769  26.667  51.724  1.00  0.00     0.188 A 
HETATM   15  C   UNL     1       5.312  27.483  50.585  1.00  0.00     0.035 A 
HETATM   16  C   UNL     1       5.123  26.002  50.424  1.00  0.00     0.035 A 
ENDBRANCH   7  14
BRANCH  10  17
HETATM   17  C   UNL     1       7.406  23.252  54.219  1.00  0.00    -0.052 A 
HETATM   18  C   UNL     1       7.491  22.655  55.488  1.00  0.00     0.007 A 
HETATM   19  C   UNL     1       7.845  21.311  55.620  1.00  0.00     0.001 A 
HETATM   20  C   UNL     1       8.119  20.546  54.491  1.00  0.00     0.000 A 
HETATM   21  C   UNL     1       8.034  21.121  53.227  1.00  0.00     0.001 A 
HETATM   22  C   UNL     1       7.679  22.464  53.089  1.00  0.00     0.007 A 
ENDBRANCH  10  17
BRANCH   1  23
HETATM   23  C   UNL     1       7.262  29.439  57.954  1.00  0.00     0.277 C 
BRANCH  23  24
HETATM   24  C   UNL     1       7.002  30.609  58.829  1.00  0.00     0.011 A 
HETATM   25  C   UNL     1       7.829  31.112  59.872  1.00  0.00     0.060 A 
HETATM   26  C   UNL     1       9.113  30.572  60.391  1.00  0.00     0.073 C 
HETATM   27  N   UNL     1       7.335  32.239  60.384  1.00  0.00    -0.178 NA
HETATM   28  N   UNL     1       6.151  32.404  59.780  1.00  0.00    -0.284 N 
HETATM   29  C   UNL     1       5.301  33.515  60.141  1.00  0.00     0.179 C 
HETATM   30  C   UNL     1       5.915  31.466  58.812  1.00  0.00     0.122 A 
ENDBRANCH  23  24
ENDBRANCH   1  23
TORSDOF 4
ENDMDL
MODEL 3
REMARK VINA RESULT:      -8.8      2.775      7.436
REMARK  4 active torsions:
REMARK  status: ('A' for Active; 'I' for Inactive)
REMARK    1  A    between atoms: C_7  and  C_8 
REMARK    2  A    between atoms: C_8  and  N_9 
REMARK    3  A    between atoms: N_15  and  C_17 
REMARK    4  A    between atoms: C_21  and  C_22 
ROOT
HETATM    1  N   UNL     1       4.012  28.929  51.850  1.00  0.00    -0.067 N 
HETATM    2  H   UNL     1       3.684  29.906  51.852  1.00  0.00     0.280 HD
HETATM    3  C   UNL     1       3.814  28.433  53.254  1.00  0.00     0.236 C 
HETATM    4  C   UNL     1       4.485  27.073  53.460  1.00  0.00     0.039 C 
HETATM    5  C   UNL     1       5.990  27.042  53.075  1.00  0.00    -0.013 C 
HETATM    6  C   UNL     1       6.876  27.848  54.064  1.00  0.00     0.245 C 
HETATM    7  N   UNL     1       6.925  27.196  55.425  1.00  0.00    -0.065 N 
HETATM    8  H   UNL     1       5.981  27.109  55.827  1.00  0.00     0.280 HD
HETATM    9  C   UNL     1       7.502  25.787  55.369  1.00  0.00     0.244 C 
HETATM   10  C   UNL     1       6.643  24.926  54.433  1.00  0.00     0.045 C 
HETATM   11  C   UNL     1       6.511  25.575  53.041  1.00  0.00     0.022 C 
HETATM   12  C   UNL     1       6.123  27.623  51.636  1.00  0.00     0.039 C 
HETATM   13  C   UNL     1       5.448  28.977  51.427  1.00  0.00     0.236 C 
ENDROOT
BRANCH   7  14
HETATM   14  C   UNL     1       7.711  28.030  56.399  1.00  0.00     0.188 A 
HETATM   15  C   UNL     1       6.934  28.691  57.504  1.00  0.00     0.035 A 
HETATM   16  C   UNL     1       7.813  27.511  57.805  1.00  0.00     0.035 A 
ENDBRANCH   7  14
BRANCH  10  17
HETATM   17  C   UNL     1       7.193  23.516  54.349  1.00  0.00    -0.052 A 
HETATM   18  C   UNL     1       7.526  22.974  53.097  1.00  0.00     0.007 A 
HETATM   19  C   UNL     1       8.011  21.669  52.993  1.00  0.00     0.001 A 
HETATM   20  C   UNL     1       8.170  20.889  54.134  1.00  0.00     0.000 A 
HETATM   21  C   UNL     1       7.850  21.413  55.382  1.00  0.00     0.001 A 
HETATM   22  C   UNL     1       7.366  22.718  55.492  1.00  0.00     0.007 A 
ENDBRANCH  10  17
BRANCH   1  23
HETATM   23  C   UNL     1       3.085  28.296  50.810  1.00  0.00     0.277 C 
BRANCH  23  24
HETATM   24  C   UNL     1       3.451  28.702  49.430  1.00  0.00     0.011 A 
HETATM   25  C   UNL     1       4.010  27.887  48.406  1.00  0.00     0.060 A 
HETATM   26  C   UNL     1       4.425  26.460  48.468  1.00  0.00     0.073 C 
HETATM   27  N   UNL     1       4.117  28.554  47.258  1.00  0.00    -0.178 NA
HETATM   28  N   UNL     1       3.756  29.810  47.551  1.00  0.00    -0.284 N 
HETATM   29  C   UNL     1       3.808  30.836  46.536  1.00  0.00     0.179 C 
HETATM   30  C   UNL     1       3.317  29.947  48.840  1.00  0.00     0.122 A 
ENDBRANCH  23  24
ENDBRANCH   1  23
TORSDOF 4
ENDMDL
MODEL 4
REMARK VINA RESULT:      -8.7      2.844      8.679
REMARK  4 active torsions:
REMARK  status: ('A' for Active; 'I' for Inactive)
REMARK    1  A    between atoms: C_7  and  C_8 
REMARK    2  A    between atoms: C_8  and  N_9 
REMARK    3  A    between atoms: N_15  and  C_17 
REMARK    4  A    between atoms: C_21  and  C_22 
ROOT
HETATM    1  N   UNL     1       5.385  26.611  51.855  1.00  0.00    -0.067 N 
HETATM    2  H   UNL     1       4.948  25.867  51.292  1.00  0.00     0.280 HD
HETATM    3  C   UNL     1       6.728  26.074  52.263  1.00  0.00     0.236 C 
HETATM    4  C   UNL     1       7.390  26.976  53.308  1.00  0.00     0.039 C 
HETATM    5  C   UNL     1       6.508  27.253  54.558  1.00  0.00    -0.013 C 
HETATM    6  C   UNL     1       6.340  25.998  55.459  1.00  0.00     0.245 C 
HETATM    7  N   UNL     1       7.641  25.609  56.119  1.00  0.00    -0.065 N 
HETATM    8  H   UNL     1       8.366  25.413  55.416  1.00  0.00     0.280 HD
HETATM    9  C   UNL     1       8.190  26.718  57.008  1.00  0.00     0.244 C 
HETATM   10  C   UNL     1       8.416  27.979  56.163  1.00  0.00     0.045 C 
HETATM   11  C   UNL     1       7.131  28.390  55.419  1.00  0.00     0.022 C 
HETATM   12  C   UNL     1       5.118  27.747  54.057  1.00  0.00     0.039 C 
HETATM   13  C   UNL     1       4.460  26.852  53.009  1.00  0.00     0.236 C 
ENDROOT
BRANCH   7  14
HETATM   14  C   UNL     1       7.488  24.344  56.918  1.00  0.00     0.188 A 
HETATM   15  C   UNL     1       8.195  23.125  56.395  1.00  0.00     0.035 A 
HETATM   16  C   UNL     1       8.716  23.831  57.614  1.00  0.00     0.035 A 
ENDBRANCH   7  14
BRANCH  10  17
HETATM   17  C   UNL     1       8.958  29.105  57.020  1.00  0.00    -0.052 A 
HETATM   18  C   UNL     1       8.219  29.553  58.126  1.00  0.00     0.007 A 
HETATM   19  C   UNL     1       8.686  30.606  58.916  1.00  0.00     0.001 A 
HETATM   20  C   UNL     1       9.895  31.225  58.612  1.00  0.00     0.000 A 
HETATM   21  C   UNL     1      10.641  30.790  57.522  1.00  0.00     0.001 A 
HETATM   22  C   UNL     1      10.179  29.737  56.730  1.00  0.00     0.007 A 
ENDBRANCH  10  17
BRANCH   1  23
HETATM   23  C   UNL     1       5.433  27.766  50.853  1.00  0.00     0.277 C 
BRANCH  23  24
HETATM   24  C   UNL     1       4.731  27.427  49.591  1.00  0.00     0.011 A 
HETATM   25  C   UNL     1       4.511  28.272  48.467  1.00  0.00     0.060 A 
HETATM   26  C   UNL     1       4.864  29.706  48.291  1.00  0.00     0.073 C 
HETATM   27  N   UNL     1       3.933  27.609  47.466  1.00  0.00    -0.178 NA
HETATM   28  N   UNL     1       3.666  26.395  47.962  1.00  0.00    -0.284 N 
HETATM   29  C   UNL     1       2.977  25.415  47.154  1.00  0.00     0.179 C 
HETATM   30  C   UNL     1       4.152  26.222  49.229  1.00  0.00     0.122 A 
ENDBRANCH  23  24
ENDBRANCH   1  23
TORSDOF 4
ENDMDL
MODEL 5
REMARK VINA RESULT:      -8.6      4.760     13.201
REMARK  4 active torsions:
REMARK  status: ('A' for Active; 'I' for Inactive)
REMARK    1  A    between atoms: C_7  and  C_8 
REMARK    2  A    between atoms: C_8  and  N_9 
REMARK    3  A    between atoms: N_15  and  C_17 
REMARK    4  A    between atoms: C_21  and  C_22 
ROOT
HETATM    1  N   UNL     1       5.562  32.159  60.415  1.00  0.00    -0.067 N 
HETATM    2  H   UNL     1       5.320  31.158  60.380  1.00  0.00     0.280 HD
HETATM    3  C   UNL     1       6.210  32.372  61.754  1.00  0.00     0.236 C 
HETATM    4  C   UNL     1       6.401  33.862  62.046  1.00  0.00     0.039 C 
HETATM    5  C   UNL     1       5.100  34.704  61.927  1.00  0.00    -0.013 C 
HETATM    6  C   UNL     1       4.091  34.409  63.071  1.00  0.00     0.245 C 
HETATM    7  N   UNL     1       4.608  34.886  64.407  1.00  0.00    -0.065 N 
HETATM    8  H   UNL     1       5.505  34.437  64.636  1.00  0.00     0.280 HD
HETATM    9  C   UNL     1       4.862  36.389  64.422  1.00  0.00     0.244 C 
HETATM   10  C   UNL     1       5.886  36.741  63.335  1.00  0.00     0.045 C 
HETATM   11  C   UNL     1       5.434  36.225  61.955  1.00  0.00     0.022 C 
HETATM   12  C   UNL     1       4.455  34.388  60.545  1.00  0.00     0.039 C 
HETATM   13  C   UNL     1       4.271  32.901  60.249  1.00  0.00     0.236 C 
ENDROOT
BRANCH   7  14
HETATM   14  C   UNL     1       3.666  34.517  65.519  1.00  0.00     0.188 A 
HETATM   15  C   UNL     1       4.276  34.284  66.872  1.00  0.00     0.035 A 
HETATM   16  C   UNL     1       3.479  35.529  66.612  1.00  0.00     0.035 A 
ENDBRANCH   7  14
BRANCH  10  17
HETATM   17  C   UNL     1       6.157  38.232  63.320  1.00  0.00    -0.052 A 
HETATM   18  C   UNL     1       6.660  38.834  62.156  1.00  0.00     0.007 A 
HETATM   19  C   UNL     1       6.942  40.201  62.126  1.00  0.00     0.001 A 
HETATM   20  C   UNL     1       6.726  40.985  63.255  1.00  0.00     0.000 A 
HETATM   21  C   UNL     1       6.223  40.404  64.415  1.00  0.00     0.001 A 
HETATM   22  C   UNL     1       5.939  39.038  64.450  1.00  0.00     0.007 A 
ENDBRANCH  10  17
BRANCH   1  23
HETATM   23  C   UNL     1       6.505  32.290  59.218  1.00  0.00     0.277 C 
BRANCH  23  24
HETATM   24  C   UNL     1       6.982  30.966  58.748  1.00  0.00     0.011 A 
HETATM   25  C   UNL     1       8.126  30.247  59.195  1.00  0.00     0.060 A 
HETATM   26  C   UNL     1       9.159  30.654  60.184  1.00  0.00     0.073 C 
HETATM   27  N   UNL     1       8.196  29.043  58.627  1.00  0.00    -0.178 NA
HETATM   28  N   UNL     1       7.197  29.020  57.737  1.00  0.00    -0.284 N 
HETATM   29  C   UNL     1       7.007  27.868  56.887  1.00  0.00     0.179 C 
HETATM   30  C   UNL     1       6.415  30.142  57.790  1.00  0.00     0.122 A 
ENDBRANCH  23  24
ENDBRANCH   1  23
TORSDOF 4
ENDMDL
MODEL 6
REMARK VINA RESULT:      -8.3      2.463      8.606
REMARK  4 active torsions:
REMARK  status: ('A' for Active; 'I' for Inactive)
REMARK    1  A    between atoms: C_7  and  C_8 
REMARK    2  A    between atoms: C_8  and  N_9 
REMARK    3  A    between atoms: N_15  and  C_17 
REMARK    4  A    between atoms: C_21  and  C_22 
ROOT
HETATM    1  N   UNL     1       6.524  24.961  55.359  1.00  0.00    -0.067 N 
HETATM    2  H   UNL     1       6.047  24.321  54.708  1.00  0.00     0.280 HD
HETATM    3  C   UNL     1       5.430  25.674  56.102  1.00  0.00     0.236 C 
HETATM    4  C   UNL     1       5.988  26.834  56.930  1.00  0.00     0.039 C 
HETATM    5  C   UNL     1       6.844  27.843  56.115  1.00  0.00    -0.013 C 
HETATM    6  C   UNL     1       5.991  28.695  55.136  1.00  0.00     0.245 C 
HETATM    7  N   UNL     1       5.076  29.643  55.875  1.00  0.00    -0.065 N 
HETATM    8  H   UNL     1       4.441  29.129  56.501  1.00  0.00     0.280 HD
HETATM    9  C   UNL     1       5.847  30.622  56.752  1.00  0.00     0.244 C 
HETATM   10  C   UNL     1       6.684  29.837  57.771  1.00  0.00     0.045 C 
HETATM   11  C   UNL     1       7.598  28.812  57.073  1.00  0.00     0.022 C 
HETATM   12  C   UNL     1       7.914  27.029  55.329  1.00  0.00     0.039 C 
HETATM   13  C   UNL     1       7.360  25.868  54.507  1.00  0.00     0.236 C 
ENDROOT
BRANCH   7  14
HETATM   14  C   UNL     1       4.192  30.399  54.922  1.00  0.00     0.188 A 
HETATM   15  C   UNL     1       2.948  31.015  55.499  1.00  0.00     0.035 A 
HETATM   16  C   UNL     1       4.109  31.886  55.112  1.00  0.00     0.035 A 
ENDBRANCH   7  14
BRANCH  10  17
HETATM   17  C   UNL     1       7.469  30.783  58.657  1.00  0.00    -0.052 A 
HETATM   18  C   UNL     1       8.872  30.783  58.601  1.00  0.00     0.007 A 
HETATM   19  C   UNL     1       9.618  31.628  59.425  1.00  0.00     0.001 A 
HETATM   20  C   UNL     1       8.975  32.482  60.316  1.00  0.00     0.000 A 
HETATM   21  C   UNL     1       7.585  32.498  60.381  1.00  0.00     0.001 A 
HETATM   22  C   UNL     1       6.836  31.656  59.558  1.00  0.00     0.007 A 
ENDBRANCH  10  17
BRANCH   1  23
HETATM   23  C   UNL     1       7.343  23.985  56.206  1.00  0.00     0.277 C 
BRANCH  23  24
HETATM   24  C   UNL     1       7.652  22.739  55.461  1.00  0.00     0.011 A 
HETATM   25  C   UNL     1       8.056  21.485  55.999  1.00  0.00     0.060 A 
HETATM   26  C   UNL     1       8.330  21.118  57.413  1.00  0.00     0.073 C 
HETATM   27  N   UNL     1       8.151  20.556  55.047  1.00  0.00    -0.178 NA
HETATM   28  N   UNL     1       7.937  21.211  53.900  1.00  0.00    -0.284 N 
HETATM   29  C   UNL     1       8.022  20.513  52.638  1.00  0.00     0.179 C 
HETATM   30  C   UNL     1       7.603  22.524  54.094  1.00  0.00     0.122 A 
ENDBRANCH  23  24
ENDBRANCH   1  23
TORSDOF 4
ENDMDL
MODEL 7
REMARK VINA RESULT:      -7.9      4.659      8.207
REMARK  4 active torsions:
REMARK  status: ('A' for Active; 'I' for Inactive)
REMARK    1  A    between atoms: C_7  and  C_8 
REMARK    2  A    between atoms: C_8  and  N_9 
REMARK    3  A    between atoms: N_15  and  C_17 
REMARK    4  A    between atoms: C_21  and  C_22 
ROOT
HETATM    1  N   UNL     1       6.601  24.556  53.290  1.00  0.00    -0.067 N 
HETATM    2  H   UNL     1       6.958  23.601  53.142  1.00  0.00     0.280 HD
HETATM    3  C   UNL     1       5.166  24.524  52.844  1.00  0.00     0.236 C 
HETATM    4  C   UNL     1       4.576  25.935  52.779  1.00  0.00     0.039 C 
HETATM    5  C   UNL     1       5.398  26.927  51.911  1.00  0.00    -0.013 C 
HETATM    6  C   UNL     1       5.310  26.608  50.393  1.00  0.00     0.245 C 
HETATM    7  N   UNL     1       3.921  26.853  49.853  1.00  0.00    -0.065 N 
HETATM    8  H   UNL     1       3.226  26.279  50.350  1.00  0.00     0.280 HD
HETATM    9  C   UNL     1       3.484  28.302  50.022  1.00  0.00     0.244 C 
HETATM   10  C   UNL     1       3.513  28.669  51.512  1.00  0.00     0.045 C 
HETATM   11  C   UNL     1       4.896  28.385  52.130  1.00  0.00     0.022 C 
HETATM   12  C   UNL     1       6.879  26.862  52.389  1.00  0.00     0.039 C 
HETATM   13  C   UNL     1       7.467  25.454  52.462  1.00  0.00     0.236 C 
ENDROOT
BRANCH   7  14
HETATM   14  C   UNL     1       3.822  26.456  48.405  1.00  0.00     0.188 A 
HETATM   15  C   UNL     1       3.083  25.183  48.102  1.00  0.00     0.035 A 
HETATM   16  C   UNL     1       2.458  26.510  47.780  1.00  0.00     0.035 A 
ENDBRANCH   7  14
BRANCH  10  17
HETATM   17  C   UNL     1       3.088  30.110  51.715  1.00  0.00    -0.052 A 
HETATM   18  C   UNL     1       2.388  30.777  50.698  1.00  0.00     0.007 A 
HETATM   19  C   UNL     1       2.008  32.112  50.852  1.00  0.00     0.001 A 
HETATM   20  C   UNL     1       2.322  32.798  52.021  1.00  0.00     0.000 A 
HETATM   21  C   UNL     1       3.012  32.149  53.041  1.00  0.00     0.001 A 
HETATM   22  C   UNL     1       3.393  30.815  52.892  1.00  0.00     0.007 A 
ENDBRANCH  10  17
BRANCH   1  23
HETATM   23  C   UNL     1       6.800  24.727  54.797  1.00  0.00     0.277 C 
BRANCH  23  24
HETATM   24  C   UNL     1       7.454  23.541  55.403  1.00  0.00     0.011 A 
HETATM   25  C   UNL     1       8.227  23.492  56.597  1.00  0.00     0.060 A 
HETATM   26  C   UNL     1       8.626  24.604  57.499  1.00  0.00     0.073 C 
HETATM   27  N   UNL     1       8.578  22.242  56.898  1.00  0.00    -0.178 NA
HETATM   28  N   UNL     1       8.156  21.504  55.864  1.00  0.00    -0.284 N 
HETATM   29  C   UNL     1       8.423  20.085  55.827  1.00  0.00     0.179 C 
HETATM   30  C   UNL     1       7.446  22.233  54.949  1.00  0.00     0.122 A 
ENDBRANCH  23  24
ENDBRANCH   1  23
TORSDOF 4
ENDMDL
MODEL 8
REMARK VINA RESULT:      -7.8      8.545     13.561
REMARK  4 active torsions:
REMARK  status: ('A' for Active; 'I' for Inactive)
REMARK    1  A    between atoms: C_7  and  C_8 
REMARK    2  A    between atoms: C_8  and  N_9 
REMARK    3  A    between atoms: N_15  and  C_17 
REMARK    4  A    between atoms: C_21  and  C_22 
ROOT
HETATM    1  N   UNL     1       5.279  34.581  68.734  1.00  0.00    -0.067 N 
HETATM    2  H   UNL     1       4.972  35.223  69.480  1.00  0.00     0.280 HD
HETATM    3  C   UNL     1       6.366  35.310  67.995  1.00  0.00     0.236 C 
HETATM    4  C   UNL     1       6.748  34.575  66.708  1.00  0.00     0.039 C 
HETATM    5  C   UNL     1       5.548  34.279  65.766  1.00  0.00    -0.013 C 
HETATM    6  C   UNL     1       4.982  35.562  65.097  1.00  0.00     0.245 C 
HETATM    7  N   UNL     1       5.964  36.157  64.116  1.00  0.00    -0.065 N 
HETATM    8  H   UNL     1       6.851  36.393  64.581  1.00  0.00     0.280 HD
HETATM    9  C   UNL     1       6.310  35.192  62.990  1.00  0.00     0.244 C 
HETATM   10  C   UNL     1       6.912  33.913  63.586  1.00  0.00     0.045 C 
HETATM   11  C   UNL     1       5.974  33.292  64.639  1.00  0.00     0.022 C 
HETATM   12  C   UNL     1       4.443  33.580  66.612  1.00  0.00     0.039 C 
HETATM   13  C   UNL     1       4.065  34.308  67.900  1.00  0.00     0.236 C 
ENDROOT
BRANCH   7  14
HETATM   14  C   UNL     1       5.444  37.446  63.542  1.00  0.00     0.188 A 
HETATM   15  C   UNL     1       6.365  38.634  63.604  1.00  0.00     0.035 A 
HETATM   16  C   UNL     1       6.111  37.948  62.293  1.00  0.00     0.035 A 
ENDBRANCH   7  14
BRANCH  10  17
HETATM   17  C   UNL     1       7.263  32.927  62.490  1.00  0.00    -0.052 A 
HETATM   18  C   UNL     1       8.361  32.067  62.655  1.00  0.00     0.007 A 
HETATM   19  C   UNL     1       8.718  31.167  61.649  1.00  0.00     0.001 A 
HETATM   20  C   UNL     1       7.987  31.114  60.466  1.00  0.00     0.000 A 
HETATM   21  C   UNL     1       6.894  31.956  60.289  1.00  0.00     0.001 A 
HETATM   22  C   UNL     1       6.532  32.856  61.292  1.00  0.00     0.007 A 
ENDBRANCH  10  17
BRANCH   1  23
HETATM   23  C   UNL     1       5.754  33.374  69.544  1.00  0.00     0.277 C 
BRANCH  23  24
HETATM   24  C   UNL     1       6.111  33.752  70.934  1.00  0.00     0.011 A 
HETATM   25  C   UNL     1       6.811  32.968  71.893  1.00  0.00     0.060 A 
HETATM   26  C   UNL     1       7.302  31.569  71.779  1.00  0.00     0.073 C 
HETATM   27  N   UNL     1       7.048  33.659  73.008  1.00  0.00    -0.178 NA
HETATM   28  N   UNL     1       6.412  34.824  72.835  1.00  0.00    -0.284 N 
HETATM   29  C   UNL     1       6.409  35.814  73.888  1.00  0.00     0.179 C 
HETATM   30  C   UNL     1       5.856  34.944  71.590  1.00  0.00     0.122 A 
ENDBRANCH  23  24
ENDBRANCH   1  23
TORSDOF 4
ENDMDL
MODEL 9
REMARK VINA RESULT:      -7.7      5.613      7.223
REMARK  4 active torsions:
REMARK  status: ('A' for Active; 'I' for Inactive)
REMARK    1  A    between atoms: C_7  and  C_8 
REMARK    2  A    between atoms: C_8  and  N_9 
REMARK    3  A    between atoms: N_15  and  C_17 
REMARK    4  A    between atoms: C_21  and  C_22 
ROOT
HETATM    1  N   UNL     1       4.695  31.817  49.862  1.00  0.00    -0.067 N 
HETATM    2  H   UNL     1       4.255  32.508  49.237  1.00  0.00     0.280 HD
HETATM    3  C   UNL     1       5.249  30.751  48.959  1.00  0.00     0.236 C 
HETATM    4  C   UNL     1       5.718  29.535  49.762  1.00  0.00     0.039 C 
HETATM    5  C   UNL     1       4.636  28.944  50.709  1.00  0.00    -0.013 C 
HETATM    6  C   UNL     1       3.488  28.237  49.937  1.00  0.00     0.245 C 
HETATM    7  N   UNL     1       3.970  26.982  49.250  1.00  0.00    -0.065 N 
HETATM    8  H   UNL     1       4.729  27.193  48.588  1.00  0.00     0.280 HD
HETATM    9  C   UNL     1       4.528  25.963  50.236  1.00  0.00     0.244 C 
HETATM   10  C   UNL     1       5.697  26.592  51.007  1.00  0.00     0.045 C 
HETATM   11  C   UNL     1       5.275  27.910  51.683  1.00  0.00     0.022 C 
HETATM   12  C   UNL     1       4.068  30.113  51.568  1.00  0.00     0.039 C 
HETATM   13  C   UNL     1       3.607  31.329  50.769  1.00  0.00     0.236 C 
ENDROOT
BRANCH   7  14
HETATM   14  C   UNL     1       2.874  26.354  48.433  1.00  0.00     0.188 A 
HETATM   15  C   UNL     1       3.204  26.016  47.006  1.00  0.00     0.035 A 
HETATM   16  C   UNL     1       3.070  24.922  48.026  1.00  0.00     0.035 A 
ENDBRANCH   7  14
BRANCH  10  17
HETATM   17  C   UNL     1       6.272  25.604  52.002  1.00  0.00    -0.052 A 
HETATM   18  C   UNL     1       5.591  25.354  53.204  1.00  0.00     0.007 A 
HETATM   19  C   UNL     1       6.113  24.467  54.148  1.00  0.00     0.001 A 
HETATM   20  C   UNL     1       7.321  23.820  53.905  1.00  0.00     0.000 A 
HETATM   21  C   UNL     1       8.006  24.054  52.717  1.00  0.00     0.001 A 
HETATM   22  C   UNL     1       7.487  24.939  51.770  1.00  0.00     0.007 A 
ENDBRANCH  10  17
BRANCH   1  23
HETATM   23  C   UNL     1       5.750  32.670  50.569  1.00  0.00     0.277 C 
BRANCH  23  24
HETATM   24  C   UNL     1       5.822  34.038  49.999  1.00  0.00     0.011 A 
HETATM   25  C   UNL     1       6.522  34.455  48.832  1.00  0.00     0.060 A 
HETATM   26  C   UNL     1       7.400  33.659  47.933  1.00  0.00     0.073 C 
HETATM   27  N   UNL     1       6.286  35.737  48.556  1.00  0.00    -0.178 NA
HETATM   28  N   UNL     1       5.552  36.184  49.582  1.00  0.00    -0.284 N 
HETATM   29  C   UNL     1       5.156  37.572  49.642  1.00  0.00     0.179 C 
HETATM   30  C   UNL     1       5.218  35.193  50.465  1.00  0.00     0.122 A 
ENDBRANCH  23  24
ENDBRANCH   1  23
TORSDOF 4
ENDMDL
MODEL 10
REMARK VINA RESULT:      -7.6      2.837      8.870
REMARK  4 active torsions:
REMARK  status: ('A' for Active; 'I' for Inactive)
REMARK    1  A    between atoms: C_7  and  C_8 
REMARK    2  A    between atoms: C_8  and  N_9 
REMARK    3  A    between atoms: N_15  and  C_17 
REMARK    4  A    between atoms: C_21  and  C_22 
ROOT
HETATM    1  N   UNL     1       5.991  26.673  53.977  1.00  0.00    -0.067 N 
HETATM    2  H   UNL     1       6.506  26.039  53.348  1.00  0.00     0.280 HD
HETATM    3  C   UNL     1       6.711  27.989  53.903  1.00  0.00     0.236 C 
HETATM    4  C   UNL     1       6.203  28.958  54.974  1.00  0.00     0.039 C 
HETATM    5  C   UNL     1       6.247  28.389  56.419  1.00  0.00    -0.013 C 
HETATM    6  C   UNL     1       7.697  28.244  56.959  1.00  0.00     0.245 C 
HETATM    7  N   UNL     1       8.348  29.590  57.172  1.00  0.00    -0.065 N 
HETATM    8  H   UNL     1       8.377  30.128  56.295  1.00  0.00     0.280 HD
HETATM    9  C   UNL     1       7.588  30.445  58.178  1.00  0.00     0.244 C 
HETATM   10  C   UNL     1       6.152  30.658  57.680  1.00  0.00     0.045 C 
HETATM   11  C   UNL     1       5.457  29.313  57.391  1.00  0.00     0.022 C 
HETATM   12  C   UNL     1       5.537  27.002  56.404  1.00  0.00     0.039 C 
HETATM   13  C   UNL     1       6.039  26.037  55.333  1.00  0.00     0.236 C 
ENDROOT
BRANCH   7  14
HETATM   14  C   UNL     1       9.779  29.439  57.609  1.00  0.00     0.188 A 
HETATM   15  C   UNL     1      10.835  29.737  56.581  1.00  0.00     0.035 A 
HETATM   16  C   UNL     1      10.592  30.697  57.711  1.00  0.00     0.035 A 
ENDBRANCH   7  14
BRANCH  10  17
HETATM   17  C   UNL     1       5.365  31.501  58.662  1.00  0.00    -0.052 A 
HETATM   18  C   UNL     1       6.048  32.340  59.558  1.00  0.00     0.007 A 
HETATM   19  C   UNL     1       5.346  33.108  60.490  1.00  0.00     0.001 A 
HETATM   20  C   UNL     1       3.956  33.049  60.540  1.00  0.00     0.000 A 
HETATM   21  C   UNL     1       3.265  32.227  59.655  1.00  0.00     0.001 A 
HETATM   22  C   UNL     1       3.962  31.458  58.722  1.00  0.00     0.007 A 
ENDBRANCH  10  17
BRANCH   1  23
HETATM   23  C   UNL     1       4.598  26.668  53.343  1.00  0.00     0.277 C 
BRANCH  23  24
HETATM   24  C   UNL     1       4.586  27.376  52.040  1.00  0.00     0.011 A 
HETATM   25  C   UNL     1       4.069  28.672  51.762  1.00  0.00     0.060 A 
HETATM   26  C   UNL     1       3.362  29.612  52.672  1.00  0.00     0.073 C 
HETATM   27  N   UNL     1       4.316  29.035  50.503  1.00  0.00    -0.178 NA
HETATM   28  N   UNL     1       4.870  27.958  49.934  1.00  0.00    -0.284 N 
HETATM   29  C   UNL     1       5.220  27.976  48.532  1.00  0.00     0.179 C 
HETATM   30  C   UNL     1       5.082  26.940  50.823  1.00  0.00     0.122 A 
ENDBRANCH  23  24
ENDBRANCH   1  23
TORSDOF 4
ENDMDL
