MODEL 1
REMARK VINA RESULT:     -10.3      0.000      0.000
REMARK  9 active torsions:
REMARK  status: ('A' for Active; 'I' for Inactive)
REMARK    1  A    between atoms: O_2  and  C_3 
REMARK    2  A    between atoms: C_4  and  O_5 
REMARK    3  A    between atoms: C_8  and  C_9 
REMARK    4  A    between atoms: C_9  and  C_10 
REMARK    5  A    between atoms: C_10  and  N_11 
REMARK       I    between atoms: N_11  and  C_12 
REMARK    6  A    between atoms: C_12  and  C_13 
REMARK    7  A    between atoms: C_13  and  C_14 
REMARK    8  A    between atoms: N_21  and  C_22 
REMARK    9  A    between atoms: C_22  and  C_23 
REMARK       I    between atoms: C_23  and  N_24 
ROOT
HETATM    1  C   UNL     1       7.550  30.079  58.494  1.00  0.00     0.048 C 
HETATM    2  C   UNL     1       6.379  30.770  58.039  1.00  0.00     0.006 A 
HETATM    3  C   UNL     1       5.664  29.886  57.217  1.00  0.00     0.045 A 
HETATM    4  C   UNL     1       4.445  30.240  56.615  1.00  0.00     0.030 A 
HETATM    5  C   UNL     1       3.946  31.526  56.833  1.00  0.00     0.002 A 
HETATM    6  C   UNL     1       4.634  32.427  57.635  1.00  0.00     0.001 A 
HETATM    7  C   UNL     1       5.840  32.061  58.244  1.00  0.00     0.015 A 
HETATM    8  N   UNL     1       6.374  28.705  57.174  1.00  0.00    -0.346 N 
HETATM    9  C   UNL     1       7.548  28.848  57.859  1.00  0.00     0.108 C 
ENDROOT
BRANCH   1  10
HETATM   10  C   UNL     1       8.609  30.481  59.417  1.00  0.00     0.251 C 
HETATM   11  O   UNL     1       9.045  29.712  60.274  1.00  0.00    -0.281 OA
BRANCH  10  12
HETATM   12  C   UNL     1       9.212  31.888  59.384  1.00  0.00     0.292 C 
HETATM   13  N   UNL     1       8.804  32.800  60.336  1.00  0.00    -0.354 N 
HETATM   14  H   UNL     1       9.120  33.742  60.136  1.00  0.00     0.162 HD
HETATM   15  O   UNL     1      10.019  32.197  58.516  1.00  0.00    -0.264 OA
BRANCH  13  16
HETATM   16  C   UNL     1       7.695  32.604  61.252  1.00  0.00     0.127 C 
BRANCH  16  17
HETATM   17  C   UNL     1       8.167  32.466  62.700  1.00  0.00     0.058 C 
BRANCH  17  18
HETATM   18  C   UNL     1       7.111  32.919  63.677  1.00  0.00    -0.054 A 
HETATM   19  C   UNL     1       5.754  32.897  63.318  1.00  0.00     0.046 A 
HETATM   20  C   UNL     1       4.752  33.339  64.199  1.00  0.00     0.102 A 
HETATM   21  C   UNL     1       5.128  33.814  65.469  1.00  0.00     0.101 A 
HETATM   22  C   UNL     1       6.486  33.844  65.817  1.00  0.00     0.040 A 
HETATM   23  C   UNL     1       7.470  33.400  64.936  1.00  0.00     0.010 A 
BRANCH  20  24
HETATM   24  O   UNL     1       3.423  33.349  63.868  1.00  0.00    -0.353 OA
HETATM   25  C   UNL     1       2.910  34.468  63.157  1.00  0.00     0.210 C 
ENDBRANCH  20  24
BRANCH  21  26
HETATM   26  O   UNL     1       4.330  34.297  66.474  1.00  0.00    -0.353 OA
HETATM   27  C   UNL     1       4.809  34.248  67.809  1.00  0.00     0.210 C 
ENDBRANCH  21  26
ENDBRANCH  17  18
ENDBRANCH  16  17
ENDBRANCH  13  16
ENDBRANCH  10  12
ENDBRANCH   1  10
BRANCH   8  28
HETATM   28  C   UNL     1       5.979  27.496  56.467  1.00  0.00     0.231 C 
BRANCH  28  29
HETATM   29  C   UNL     1       6.543  27.443  55.056  1.00  0.00     0.238 C 
HETATM   30  N   UNL     1       7.302  26.344  54.642  1.00  0.00    -0.351 N 
HETATM   31  C   UNL     1       7.797  26.327  53.263  1.00  0.00     0.126 C 
HETATM   32  C   UNL     1       7.652  25.188  55.473  1.00  0.00     0.126 C 
HETATM   33  C   UNL     1       7.306  25.136  52.435  1.00  0.00     0.020 C 
HETATM   34  C   UNL     1       7.988  23.824  52.819  1.00  0.00     0.002 C 
HETATM   35  C   UNL     1       7.373  23.096  54.012  1.00  0.00     0.002 C 
HETATM   36  C   UNL     1       6.807  23.964  55.134  1.00  0.00     0.020 C 
HETATM   37  O   UNL     1       6.328  28.399  54.300  1.00  0.00    -0.272 OA
ENDBRANCH  28  29
ENDBRANCH   8  28
TORSDOF 9
ENDMDL
MODEL 2
REMARK VINA RESULT:      -9.8      1.526      2.491
REMARK  9 active torsions:
REMARK  status: ('A' for Active; 'I' for Inactive)
REMARK    1  A    between atoms: O_2  and  C_3 
REMARK    2  A    between atoms: C_4  and  O_5 
REMARK    3  A    between atoms: C_8  and  C_9 
REMARK    4  A    between atoms: C_9  and  C_10 
REMARK    5  A    between atoms: C_10  and  N_11 
REMARK       I    between atoms: N_11  and  C_12 
REMARK    6  A    between atoms: C_12  and  C_13 
REMARK    7  A    between atoms: C_13  and  C_14 
REMARK    8  A    between atoms: N_21  and  C_22 
REMARK    9  A    between atoms: C_22  and  C_23 
REMARK       I    between atoms: C_23  and  N_24 
ROOT
HETATM    1  C   UNL     1       7.303  30.633  57.896  1.00  0.00     0.048 C 
HETATM    2  C   UNL     1       5.975  30.315  57.458  1.00  0.00     0.006 A 
HETATM    3  C   UNL     1       6.071  29.207  56.604  1.00  0.00     0.045 A 
HETATM    4  C   UNL     1       4.942  28.620  56.007  1.00  0.00     0.030 A 
HETATM    5  C   UNL     1       3.689  29.179  56.264  1.00  0.00     0.002 A 
HETATM    6  C   UNL     1       3.562  30.282  57.099  1.00  0.00     0.001 A 
HETATM    7  C   UNL     1       4.689  30.851  57.703  1.00  0.00     0.015 A 
HETATM    8  N   UNL     1       7.404  28.865  56.526  1.00  0.00    -0.346 N 
HETATM    9  C   UNL     1       8.153  29.772  57.222  1.00  0.00     0.108 C 
ENDROOT
BRANCH   1  10
HETATM   10  C   UNL     1       7.793  31.637  58.837  1.00  0.00     0.251 C 
HETATM   11  O   UNL     1       7.043  32.484  59.327  1.00  0.00    -0.281 OA
BRANCH  10  12
HETATM   12  C   UNL     1       9.267  31.708  59.244  1.00  0.00     0.292 C 
HETATM   13  N   UNL     1       9.642  31.159  60.454  1.00  0.00    -0.354 N 
HETATM   14  H   UNL     1      10.591  31.401  60.716  1.00  0.00     0.162 HD
HETATM   15  O   UNL     1      10.085  32.260  58.519  1.00  0.00    -0.264 OA
BRANCH  13  16
HETATM   16  C   UNL     1       8.721  30.694  61.476  1.00  0.00     0.127 C 
BRANCH  16  17
HETATM   17  C   UNL     1       8.807  31.537  62.748  1.00  0.00     0.058 C 
BRANCH  17  18
HETATM   18  C   UNL     1       7.466  32.113  63.129  1.00  0.00    -0.054 A 
HETATM   19  C   UNL     1       7.377  33.129  64.093  1.00  0.00     0.046 A 
HETATM   20  C   UNL     1       6.138  33.664  64.487  1.00  0.00     0.102 A 
HETATM   21  C   UNL     1       4.965  33.162  63.896  1.00  0.00     0.101 A 
HETATM   22  C   UNL     1       5.060  32.138  62.942  1.00  0.00     0.040 A 
HETATM   23  C   UNL     1       6.294  31.618  62.557  1.00  0.00     0.010 A 
BRANCH  20  24
HETATM   24  O   UNL     1       6.020  34.641  65.440  1.00  0.00    -0.353 OA
HETATM   25  C   UNL     1       5.828  34.248  66.793  1.00  0.00     0.210 C 
ENDBRANCH  20  24
BRANCH  21  26
HETATM   26  O   UNL     1       3.663  33.524  64.131  1.00  0.00    -0.353 OA
HETATM   27  C   UNL     1       3.116  34.615  63.408  1.00  0.00     0.210 C 
ENDBRANCH  21  26
ENDBRANCH  17  18
ENDBRANCH  16  17
ENDBRANCH  13  16
ENDBRANCH  10  12
ENDBRANCH   1  10
BRANCH   8  28
HETATM   28  C   UNL     1       7.957  27.746  55.778  1.00  0.00     0.231 C 
BRANCH  28  29
HETATM   29  C   UNL     1       7.879  26.440  56.552  1.00  0.00     0.238 C 
HETATM   30  N   UNL     1       7.393  25.284  55.935  1.00  0.00    -0.351 N 
HETATM   31  C   UNL     1       7.366  24.044  56.714  1.00  0.00     0.126 C 
HETATM   32  C   UNL     1       6.902  25.196  54.555  1.00  0.00     0.126 C 
HETATM   33  C   UNL     1       8.199  22.907  56.115  1.00  0.00     0.020 C 
HETATM   34  C   UNL     1       7.552  22.282  54.881  1.00  0.00     0.002 C 
HETATM   35  C   UNL     1       7.818  23.012  53.565  1.00  0.00     0.002 C 
HETATM   36  C   UNL     1       7.917  24.534  53.629  1.00  0.00     0.020 C 
HETATM   37  O   UNL     1       8.236  26.436  57.737  1.00  0.00    -0.272 OA
ENDBRANCH  28  29
ENDBRANCH   8  28
TORSDOF 9
ENDMDL
MODEL 3
REMARK VINA RESULT:      -9.7      1.532      2.025
REMARK  9 active torsions:
REMARK  status: ('A' for Active; 'I' for Inactive)
REMARK    1  A    between atoms: O_2  and  C_3 
REMARK    2  A    between atoms: C_4  and  O_5 
REMARK    3  A    between atoms: C_8  and  C_9 
REMARK    4  A    between atoms: C_9  and  C_10 
REMARK    5  A    between atoms: C_10  and  N_11 
REMARK       I    between atoms: N_11  and  C_12 
REMARK    6  A    between atoms: C_12  and  C_13 
REMARK    7  A    between atoms: C_13  and  C_14 
REMARK    8  A    between atoms: N_21  and  C_22 
REMARK    9  A    between atoms: C_22  and  C_23 
REMARK       I    between atoms: C_23  and  N_24 
ROOT
HETATM    1  C   UNL     1       7.697  30.520  58.283  1.00  0.00     0.048 C 
HETATM    2  C   UNL     1       6.320  30.506  57.880  1.00  0.00     0.006 A 
HETATM    3  C   UNL     1       6.192  29.554  56.859  1.00  0.00     0.045 A 
HETATM    4  C   UNL     1       4.959  29.272  56.247  1.00  0.00     0.030 A 
HETATM    5  C   UNL     1       3.833  29.983  56.663  1.00  0.00     0.002 A 
HETATM    6  C   UNL     1       3.928  30.938  57.667  1.00  0.00     0.001 A 
HETATM    7  C   UNL     1       5.157  31.203  58.283  1.00  0.00     0.015 A 
HETATM    8  N   UNL     1       7.442  29.012  56.649  1.00  0.00    -0.346 N 
HETATM    9  C   UNL     1       8.361  29.652  57.432  1.00  0.00     0.108 C 
ENDROOT
BRANCH   1  10
HETATM   10  C   UNL     1       8.385  31.259  59.339  1.00  0.00     0.251 C 
HETATM   11  O   UNL     1       8.904  32.356  59.127  1.00  0.00    -0.281 OA
BRANCH  10  12
HETATM   12  C   UNL     1       8.520  30.697  60.756  1.00  0.00     0.292 C 
HETATM   13  N   UNL     1       7.564  31.035  61.692  1.00  0.00    -0.354 N 
HETATM   14  H   UNL     1       7.823  30.764  62.633  1.00  0.00     0.162 HD
HETATM   15  O   UNL     1       9.470  29.983  61.053  1.00  0.00    -0.264 OA
BRANCH  13  16
HETATM   16  C   UNL     1       6.540  32.049  61.503  1.00  0.00     0.127 C 
BRANCH  16  17
HETATM   17  C   UNL     1       7.042  33.444  61.877  1.00  0.00     0.058 C 
BRANCH  17  18
HETATM   18  C   UNL     1       6.456  33.917  63.182  1.00  0.00    -0.054 A 
HETATM   19  C   UNL     1       5.513  34.957  63.203  1.00  0.00     0.046 A 
HETATM   20  C   UNL     1       4.971  35.438  64.408  1.00  0.00     0.102 A 
HETATM   21  C   UNL     1       5.391  34.857  65.617  1.00  0.00     0.101 A 
HETATM   22  C   UNL     1       6.342  33.826  65.591  1.00  0.00     0.040 A 
HETATM   23  C   UNL     1       6.869  33.356  64.390  1.00  0.00     0.010 A 
BRANCH  20  24
HETATM   24  O   UNL     1       4.066  36.465  64.458  1.00  0.00    -0.353 OA
HETATM   25  C   UNL     1       3.557  36.980  63.236  1.00  0.00     0.210 C 
ENDBRANCH  20  24
BRANCH  21  26
HETATM   26  O   UNL     1       5.007  35.168  66.897  1.00  0.00    -0.353 OA
HETATM   27  C   UNL     1       4.690  34.114  67.791  1.00  0.00     0.210 C 
ENDBRANCH  21  26
ENDBRANCH  17  18
ENDBRANCH  16  17
ENDBRANCH  13  16
ENDBRANCH  10  12
ENDBRANCH   1  10
BRANCH   8  28
HETATM   28  C   UNL     1       7.766  27.955  55.701  1.00  0.00     0.231 C 
BRANCH  28  29
HETATM   29  C   UNL     1       7.807  26.584  56.359  1.00  0.00     0.238 C 
HETATM   30  N   UNL     1       7.383  25.453  55.655  1.00  0.00    -0.351 N 
HETATM   31  C   UNL     1       7.470  24.152  56.322  1.00  0.00     0.126 C 
HETATM   32  C   UNL     1       6.853  25.449  54.287  1.00  0.00     0.126 C 
HETATM   33  C   UNL     1       8.361  23.136  55.602  1.00  0.00     0.020 C 
HETATM   34  C   UNL     1       7.718  22.574  54.336  1.00  0.00     0.002 C 
HETATM   35  C   UNL     1       7.887  23.432  53.083  1.00  0.00     0.002 C 
HETATM   36  C   UNL     1       7.880  24.946  53.278  1.00  0.00     0.020 C 
HETATM   37  O   UNL     1       8.203  26.504  57.529  1.00  0.00    -0.272 OA
ENDBRANCH  28  29
ENDBRANCH   8  28
TORSDOF 9
ENDMDL
MODEL 4
REMARK VINA RESULT:      -9.7      1.788      2.822
REMARK  9 active torsions:
REMARK  status: ('A' for Active; 'I' for Inactive)
REMARK    1  A    between atoms: O_2  and  C_3 
REMARK    2  A    between atoms: C_4  and  O_5 
REMARK    3  A    between atoms: C_8  and  C_9 
REMARK    4  A    between atoms: C_9  and  C_10 
REMARK    5  A    between atoms: C_10  and  N_11 
REMARK       I    between atoms: N_11  and  C_12 
REMARK    6  A    between atoms: C_12  and  C_13 
REMARK    7  A    between atoms: C_13  and  C_14 
REMARK    8  A    between atoms: N_21  and  C_22 
REMARK    9  A    between atoms: C_22  and  C_23 
REMARK       I    between atoms: C_23  and  N_24 
ROOT
HETATM    1  C   UNL     1       6.412  30.379  57.802  1.00  0.00     0.048 C 
HETATM    2  C   UNL     1       7.844  30.435  57.830  1.00  0.00     0.006 A 
HETATM    3  C   UNL     1       8.319  29.448  56.954  1.00  0.00     0.045 A 
HETATM    4  C   UNL     1       9.690  29.243  56.728  1.00  0.00     0.030 A 
HETATM    5  C   UNL     1      10.604  30.041  57.418  1.00  0.00     0.002 A 
HETATM    6  C   UNL     1      10.166  31.021  58.298  1.00  0.00     0.001 A 
HETATM    7  C   UNL     1       8.798  31.231  58.507  1.00  0.00     0.015 A 
HETATM    8  N   UNL     1       7.217  28.817  56.416  1.00  0.00    -0.346 N 
HETATM    9  C   UNL     1       6.079  29.307  56.991  1.00  0.00     0.108 C 
ENDROOT
BRANCH   1  10
HETATM   10  C   UNL     1       5.402  31.208  58.457  1.00  0.00     0.251 C 
HETATM   11  O   UNL     1       4.263  30.789  58.672  1.00  0.00    -0.281 OA
BRANCH  10  12
HETATM   12  C   UNL     1       5.698  32.647  58.887  1.00  0.00     0.292 C 
HETATM   13  N   UNL     1       6.254  32.860  60.132  1.00  0.00    -0.354 N 
HETATM   14  H   UNL     1       6.255  33.838  60.399  1.00  0.00     0.162 HD
HETATM   15  O   UNL     1       5.423  33.584  58.148  1.00  0.00    -0.264 OA
BRANCH  13  16
HETATM   16  C   UNL     1       6.399  31.845  61.161  1.00  0.00     0.127 C 
BRANCH  16  17
HETATM   17  C   UNL     1       7.434  32.242  62.213  1.00  0.00     0.058 C 
BRANCH  17  18
HETATM   18  C   UNL     1       6.789  32.869  63.423  1.00  0.00    -0.054 A 
HETATM   19  C   UNL     1       5.396  33.037  63.480  1.00  0.00     0.046 A 
HETATM   20  C   UNL     1       4.771  33.643  64.583  1.00  0.00     0.102 A 
HETATM   21  C   UNL     1       5.568  34.091  65.651  1.00  0.00     0.101 A 
HETATM   22  C   UNL     1       6.960  33.932  65.584  1.00  0.00     0.040 A 
HETATM   23  C   UNL     1       7.568  33.326  64.486  1.00  0.00     0.010 A 
BRANCH  20  24
HETATM   24  O   UNL     1       3.417  33.839  64.655  1.00  0.00    -0.353 OA
HETATM   25  C   UNL     1       2.717  34.176  63.465  1.00  0.00     0.210 C 
ENDBRANCH  20  24
BRANCH  21  26
HETATM   26  O   UNL     1       5.179  34.711  66.811  1.00  0.00    -0.353 OA
HETATM   27  C   UNL     1       5.451  34.077  68.050  1.00  0.00     0.210 C 
ENDBRANCH  21  26
ENDBRANCH  17  18
ENDBRANCH  16  17
ENDBRANCH  13  16
ENDBRANCH  10  12
ENDBRANCH   1  10
BRANCH   8  28
HETATM   28  C   UNL     1       7.243  27.750  55.427  1.00  0.00     0.231 C 
BRANCH  28  29
HETATM   29  C   UNL     1       7.392  26.377  56.063  1.00  0.00     0.238 C 
HETATM   30  N   UNL     1       7.127  25.224  55.319  1.00  0.00    -0.351 N 
HETATM   31  C   UNL     1       7.314  23.924  55.969  1.00  0.00     0.126 C 
HETATM   32  C   UNL     1       6.672  25.195  53.924  1.00  0.00     0.126 C 
HETATM   33  C   UNL     1       8.343  23.022  55.282  1.00  0.00     0.020 C 
HETATM   34  C   UNL     1       7.829  22.424  53.973  1.00  0.00     0.002 C 
HETATM   35  C   UNL     1       7.973  23.322  52.746  1.00  0.00     0.002 C 
HETATM   36  C   UNL     1       7.798  24.823  52.965  1.00  0.00     0.020 C 
HETATM   37  O   UNL     1       7.733  26.313  57.251  1.00  0.00    -0.272 OA
ENDBRANCH  28  29
ENDBRANCH   8  28
TORSDOF 9
ENDMDL
MODEL 5
REMARK VINA RESULT:      -9.6      2.596     10.762
REMARK  9 active torsions:
REMARK  status: ('A' for Active; 'I' for Inactive)
REMARK    1  A    between atoms: O_2  and  C_3 
REMARK    2  A    between atoms: C_4  and  O_5 
REMARK    3  A    between atoms: C_8  and  C_9 
REMARK    4  A    between atoms: C_9  and  C_10 
REMARK    5  A    between atoms: C_10  and  N_11 
REMARK       I    between atoms: N_11  and  C_12 
REMARK    6  A    between atoms: C_12  and  C_13 
REMARK    7  A    between atoms: C_13  and  C_14 
REMARK    8  A    between atoms: N_21  and  C_22 
REMARK    9  A    between atoms: C_22  and  C_23 
REMARK       I    between atoms: C_23  and  N_24 
ROOT
HETATM    1  C   UNL     1       6.363  29.439  56.759  1.00  0.00     0.048 C 
HETATM    2  C   UNL     1       7.763  29.478  56.452  1.00  0.00     0.006 A 
HETATM    3  C   UNL     1       8.418  30.042  57.557  1.00  0.00     0.045 A 
HETATM    4  C   UNL     1       9.813  30.211  57.596  1.00  0.00     0.030 A 
HETATM    5  C   UNL     1      10.561  29.820  56.485  1.00  0.00     0.002 A 
HETATM    6  C   UNL     1       9.941  29.266  55.372  1.00  0.00     0.001 A 
HETATM    7  C   UNL     1       8.553  29.086  55.346  1.00  0.00     0.015 A 
HETATM    8  N   UNL     1       7.453  30.334  58.497  1.00  0.00    -0.346 N 
HETATM    9  C   UNL     1       6.215  30.062  57.987  1.00  0.00     0.108 C 
ENDROOT
BRANCH   1  10
HETATM   10  C   UNL     1       5.228  28.899  56.014  1.00  0.00     0.251 C 
HETATM   11  O   UNL     1       4.453  28.084  56.517  1.00  0.00    -0.281 OA
BRANCH  10  12
HETATM   12  C   UNL     1       4.957  29.299  54.561  1.00  0.00     0.292 C 
HETATM   13  N   UNL     1       4.899  28.304  53.606  1.00  0.00    -0.354 N 
HETATM   14  H   UNL     1       4.888  28.669  52.660  1.00  0.00     0.162 HD
HETATM   15  O   UNL     1       4.820  30.477  54.256  1.00  0.00    -0.264 OA
BRANCH  13  16
HETATM   16  C   UNL     1       5.273  26.918  53.826  1.00  0.00     0.127 C 
BRANCH  16  17
HETATM   17  C   UNL     1       6.725  26.649  53.430  1.00  0.00     0.058 C 
BRANCH  17  18
HETATM   18  C   UNL     1       7.143  25.239  53.761  1.00  0.00    -0.054 A 
HETATM   19  C   UNL     1       7.636  24.925  55.037  1.00  0.00     0.046 A 
HETATM   20  C   UNL     1       8.059  23.625  55.365  1.00  0.00     0.102 A 
HETATM   21  C   UNL     1       7.983  22.621  54.383  1.00  0.00     0.101 A 
HETATM   22  C   UNL     1       7.501  22.944  53.106  1.00  0.00     0.040 A 
HETATM   23  C   UNL     1       7.081  24.236  52.795  1.00  0.00     0.010 A 
BRANCH  20  24
HETATM   24  O   UNL     1       8.564  23.295  56.595  1.00  0.00    -0.353 OA
HETATM   25  C   UNL     1       8.919  24.345  57.485  1.00  0.00     0.210 C 
ENDBRANCH  20  24
BRANCH  21  26
HETATM   26  O   UNL     1       8.344  21.301  54.476  1.00  0.00    -0.353 OA
HETATM   27  C   UNL     1       8.728  20.613  53.296  1.00  0.00     0.210 C 
ENDBRANCH  21  26
ENDBRANCH  17  18
ENDBRANCH  16  17
ENDBRANCH  13  16
ENDBRANCH  10  12
ENDBRANCH   1  10
BRANCH   8  28
HETATM   28  C   UNL     1       7.691  30.898  59.818  1.00  0.00     0.231 C 
BRANCH  28  29
HETATM   29  C   UNL     1       6.797  32.095  60.102  1.00  0.00     0.238 C 
HETATM   30  N   UNL     1       6.443  32.413  61.417  1.00  0.00    -0.351 N 
HETATM   31  C   UNL     1       5.605  33.594  61.641  1.00  0.00     0.126 C 
HETATM   32  C   UNL     1       6.843  31.662  62.612  1.00  0.00     0.126 C 
HETATM   33  C   UNL     1       6.250  34.662  62.529  1.00  0.00     0.020 C 
HETATM   34  C   UNL     1       6.287  34.265  64.003  1.00  0.00     0.002 C 
HETATM   35  C   UNL     1       7.466  33.384  64.411  1.00  0.00     0.002 C 
HETATM   36  C   UNL     1       7.955  32.366  63.383  1.00  0.00     0.020 C 
HETATM   37  O   UNL     1       6.381  32.760  59.144  1.00  0.00    -0.272 OA
ENDBRANCH  28  29
ENDBRANCH   8  28
TORSDOF 9
ENDMDL
MODEL 6
REMARK VINA RESULT:      -9.4      1.754      2.675
REMARK  9 active torsions:
REMARK  status: ('A' for Active; 'I' for Inactive)
REMARK    1  A    between atoms: O_2  and  C_3 
REMARK    2  A    between atoms: C_4  and  O_5 
REMARK    3  A    between atoms: C_8  and  C_9 
REMARK    4  A    between atoms: C_9  and  C_10 
REMARK    5  A    between atoms: C_10  and  N_11 
REMARK       I    between atoms: N_11  and  C_12 
REMARK    6  A    between atoms: C_12  and  C_13 
REMARK    7  A    between atoms: C_13  and  C_14 
REMARK    8  A    between atoms: N_21  and  C_22 
REMARK    9  A    between atoms: C_22  and  C_23 
REMARK       I    between atoms: C_23  and  N_24 
ROOT
HETATM    1  C   UNL     1       8.131  30.966  59.227  1.00  0.00     0.048 C 
HETATM    2  C   UNL     1       6.802  31.272  58.785  1.00  0.00     0.006 A 
HETATM    3  C   UNL     1       6.546  30.486  57.652  1.00  0.00     0.045 A 
HETATM    4  C   UNL     1       5.316  30.526  56.974  1.00  0.00     0.030 A 
HETATM    5  C   UNL     1       4.328  31.395  57.440  1.00  0.00     0.002 A 
HETATM    6  C   UNL     1       4.554  32.193  58.554  1.00  0.00     0.001 A 
HETATM    7  C   UNL     1       5.776  32.136  59.235  1.00  0.00     0.015 A 
HETATM    8  N   UNL     1       7.676  29.733  57.415  1.00  0.00    -0.346 N 
HETATM    9  C   UNL     1       8.658  30.085  58.297  1.00  0.00     0.108 C 
ENDROOT
BRANCH   1  10
HETATM   10  C   UNL     1       8.893  31.429  60.385  1.00  0.00     0.251 C 
HETATM   11  O   UNL     1       9.444  32.530  60.397  1.00  0.00    -0.281 OA
BRANCH  10  12
HETATM   12  C   UNL     1       9.066  30.559  61.633  1.00  0.00     0.292 C 
HETATM   13  N   UNL     1       8.079  30.588  62.597  1.00  0.00    -0.354 N 
HETATM   14  H   UNL     1       8.355  30.123  63.454  1.00  0.00     0.162 HD
HETATM   15  O   UNL     1      10.071  29.874  61.778  1.00  0.00    -0.264 OA
BRANCH  13  16
HETATM   16  C   UNL     1       6.975  31.532  62.627  1.00  0.00     0.127 C 
BRANCH  16  17
HETATM   17  C   UNL     1       7.325  32.796  63.410  1.00  0.00     0.058 C 
BRANCH  17  18
HETATM   18  C   UNL     1       6.210  33.810  63.363  1.00  0.00    -0.054 A 
HETATM   19  C   UNL     1       5.235  33.841  64.373  1.00  0.00     0.046 A 
HETATM   20  C   UNL     1       4.168  34.755  64.340  1.00  0.00     0.102 A 
HETATM   21  C   UNL     1       4.084  35.658  63.264  1.00  0.00     0.101 A 
HETATM   22  C   UNL     1       5.054  35.614  62.253  1.00  0.00     0.040 A 
HETATM   23  C   UNL     1       6.108  34.704  62.298  1.00  0.00     0.010 A 
BRANCH  20  24
HETATM   24  O   UNL     1       3.191  34.794  65.300  1.00  0.00    -0.353 OA
HETATM   25  C   UNL     1       3.445  35.521  66.495  1.00  0.00     0.210 C 
ENDBRANCH  20  24
BRANCH  21  26
HETATM   26  O   UNL     1       3.136  36.620  63.025  1.00  0.00    -0.353 OA
HETATM   27  C   UNL     1       3.491  37.748  62.241  1.00  0.00     0.210 C 
ENDBRANCH  21  26
ENDBRANCH  17  18
ENDBRANCH  16  17
ENDBRANCH  13  16
ENDBRANCH  10  12
ENDBRANCH   1  10
BRANCH   8  28
HETATM   28  C   UNL     1       7.838  28.746  56.357  1.00  0.00     0.231 C 
BRANCH  28  29
HETATM   29  C   UNL     1       7.540  27.334  56.835  1.00  0.00     0.238 C 
HETATM   30  N   UNL     1       6.999  26.393  55.955  1.00  0.00    -0.351 N 
HETATM   31  C   UNL     1       6.758  25.037  56.456  1.00  0.00     0.126 C 
HETATM   32  C   UNL     1       6.647  26.641  54.553  1.00  0.00     0.126 C 
HETATM   33  C   UNL     1       7.521  23.944  55.702  1.00  0.00     0.020 C 
HETATM   34  C   UNL     1       6.941  23.661  54.318  1.00  0.00     0.002 C 
HETATM   35  C   UNL     1       7.419  24.595  53.208  1.00  0.00     0.002 C 
HETATM   36  C   UNL     1       7.675  26.050  53.593  1.00  0.00     0.020 C 
HETATM   37  O   UNL     1       7.770  27.052  58.018  1.00  0.00    -0.272 OA
ENDBRANCH  28  29
ENDBRANCH   8  28
TORSDOF 9
ENDMDL
MODEL 7
REMARK VINA RESULT:      -9.3      2.266      3.488
REMARK  9 active torsions:
REMARK  status: ('A' for Active; 'I' for Inactive)
REMARK    1  A    between atoms: O_2  and  C_3 
REMARK    2  A    between atoms: C_4  and  O_5 
REMARK    3  A    between atoms: C_8  and  C_9 
REMARK    4  A    between atoms: C_9  and  C_10 
REMARK    5  A    between atoms: C_10  and  N_11 
REMARK       I    between atoms: N_11  and  C_12 
REMARK    6  A    between atoms: C_12  and  C_13 
REMARK    7  A    between atoms: C_13  and  C_14 
REMARK    8  A    between atoms: N_21  and  C_22 
REMARK    9  A    between atoms: C_22  and  C_23 
REMARK       I    between atoms: C_23  and  N_24 
ROOT
HETATM    1  C   UNL     1       7.175  27.681  56.139  1.00  0.00     0.048 C 
HETATM    2  C   UNL     1       6.133  28.283  55.359  1.00  0.00     0.006 A 
HETATM    3  C   UNL     1       5.417  27.245  54.746  1.00  0.00     0.045 A 
HETATM    4  C   UNL     1       4.307  27.486  53.918  1.00  0.00     0.030 A 
HETATM    5  C   UNL     1       3.925  28.809  53.688  1.00  0.00     0.002 A 
HETATM    6  C   UNL     1       4.619  29.859  54.274  1.00  0.00     0.001 A 
HETATM    7  C   UNL     1       5.713  29.611  55.111  1.00  0.00     0.015 A 
HETATM    8  N   UNL     1       6.002  26.060  55.137  1.00  0.00    -0.346 N 
HETATM    9  C   UNL     1       7.110  26.320  55.894  1.00  0.00     0.108 C 
ENDROOT
BRANCH   1  10
HETATM   10  C   UNL     1       8.172  28.268  57.031  1.00  0.00     0.251 C 
HETATM   11  O   UNL     1       8.339  27.850  58.178  1.00  0.00    -0.281 OA
BRANCH  10  12
HETATM   12  C   UNL     1       9.043  29.451  56.597  1.00  0.00     0.292 C 
HETATM   13  N   UNL     1       9.314  30.441  57.520  1.00  0.00    -0.354 N 
HETATM   14  H   UNL     1       9.745  31.257  57.103  1.00  0.00     0.162 HD
HETATM   15  O   UNL     1       9.466  29.522  55.450  1.00  0.00    -0.264 OA
BRANCH  13  16
HETATM   16  C   UNL     1       8.674  30.563  58.819  1.00  0.00     0.127 C 
BRANCH  16  17
HETATM   17  C   UNL     1       9.370  31.598  59.702  1.00  0.00     0.058 C 
BRANCH  17  18
HETATM   18  C   UNL     1       8.486  32.047  60.839  1.00  0.00    -0.054 A 
HETATM   19  C   UNL     1       7.174  32.479  60.591  1.00  0.00     0.046 A 
HETATM   20  C   UNL     1       6.337  32.929  61.627  1.00  0.00     0.102 A 
HETATM   21  C   UNL     1       6.838  32.945  62.942  1.00  0.00     0.101 A 
HETATM   22  C   UNL     1       8.154  32.524  63.181  1.00  0.00     0.040 A 
HETATM   23  C   UNL     1       8.972  32.077  62.146  1.00  0.00     0.010 A 
BRANCH  20  24
HETATM   24  O   UNL     1       5.060  33.375  61.412  1.00  0.00    -0.353 OA
HETATM   25  C   UNL     1       4.170  32.549  60.674  1.00  0.00     0.210 C 
ENDBRANCH  20  24
BRANCH  21  26
HETATM   26  O   UNL     1       6.211  33.347  64.093  1.00  0.00    -0.353 OA
HETATM   27  C   UNL     1       6.993  33.566  65.256  1.00  0.00     0.210 C 
ENDBRANCH  21  26
ENDBRANCH  17  18
ENDBRANCH  16  17
ENDBRANCH  13  16
ENDBRANCH  10  12
ENDBRANCH   1  10
BRANCH   8  28
HETATM   28  C   UNL     1       5.556  24.724  54.767  1.00  0.00     0.231 C 
BRANCH  28  29
HETATM   29  C   UNL     1       6.427  24.105  53.685  1.00  0.00     0.238 C 
HETATM   30  N   UNL     1       7.446  23.211  54.027  1.00  0.00    -0.351 N 
HETATM   31  C   UNL     1       8.237  22.619  52.945  1.00  0.00     0.126 C 
HETATM   32  C   UNL     1       7.800  22.804  55.391  1.00  0.00     0.126 C 
HETATM   33  C   UNL     1       8.172  21.090  52.884  1.00  0.00     0.020 C 
HETATM   34  C   UNL     1       8.973  20.416  53.996  1.00  0.00     0.002 C 
HETATM   35  C   UNL     1       8.244  20.276  55.331  1.00  0.00     0.002 C 
HETATM   36  C   UNL     1       7.290  21.404  55.718  1.00  0.00     0.020 C 
HETATM   37  O   UNL     1       6.221  24.428  52.508  1.00  0.00    -0.272 OA
ENDBRANCH  28  29
ENDBRANCH   8  28
TORSDOF 9
ENDMDL
MODEL 8
REMARK VINA RESULT:      -9.3      2.593     10.718
REMARK  9 active torsions:
REMARK  status: ('A' for Active; 'I' for Inactive)
REMARK    1  A    between atoms: O_2  and  C_3 
REMARK    2  A    between atoms: C_4  and  O_5 
REMARK    3  A    between atoms: C_8  and  C_9 
REMARK    4  A    between atoms: C_9  and  C_10 
REMARK    5  A    between atoms: C_10  and  N_11 
REMARK       I    between atoms: N_11  and  C_12 
REMARK    6  A    between atoms: C_12  and  C_13 
REMARK    7  A    between atoms: C_13  and  C_14 
REMARK    8  A    between atoms: N_21  and  C_22 
REMARK    9  A    between atoms: C_22  and  C_23 
REMARK       I    between atoms: C_23  and  N_24 
ROOT
HETATM    1  C   UNL     1       5.774  32.186  59.676  1.00  0.00     0.048 C 
HETATM    2  C   UNL     1       7.107  32.124  60.202  1.00  0.00     0.006 A 
HETATM    3  C   UNL     1       7.012  32.249  61.596  1.00  0.00     0.045 A 
HETATM    4  C   UNL     1       8.142  32.210  62.431  1.00  0.00     0.030 A 
HETATM    5  C   UNL     1       9.399  32.063  61.841  1.00  0.00     0.002 A 
HETATM    6  C   UNL     1       9.526  31.946  60.463  1.00  0.00     0.001 A 
HETATM    7  C   UNL     1       8.394  31.969  59.639  1.00  0.00     0.015 A 
HETATM    8  N   UNL     1       5.675  32.381  61.904  1.00  0.00    -0.346 N 
HETATM    9  C   UNL     1       4.940  32.438  60.753  1.00  0.00     0.108 C 
ENDROOT
BRANCH   1  10
HETATM   10  C   UNL     1       5.269  32.045  58.313  1.00  0.00     0.251 C 
HETATM   11  O   UNL     1       5.590  32.830  57.420  1.00  0.00    -0.281 OA
BRANCH  10  12
HETATM   12  C   UNL     1       4.292  30.930  57.928  1.00  0.00     0.292 C 
HETATM   13  N   UNL     1       4.794  29.661  57.716  1.00  0.00    -0.354 N 
HETATM   14  H   UNL     1       4.112  29.035  57.302  1.00  0.00     0.162 HD
HETATM   15  O   UNL     1       3.099  31.169  57.790  1.00  0.00    -0.264 OA
BRANCH  13  16
HETATM   16  C   UNL     1       6.206  29.331  57.628  1.00  0.00     0.127 C 
BRANCH  16  17
HETATM   17  C   UNL     1       6.642  29.071  56.186  1.00  0.00     0.058 C 
BRANCH  17  18
HETATM   18  C   UNL     1       6.723  27.596  55.883  1.00  0.00    -0.054 A 
HETATM   19  C   UNL     1       5.810  27.002  54.998  1.00  0.00     0.046 A 
HETATM   20  C   UNL     1       5.844  25.624  54.719  1.00  0.00     0.102 A 
HETATM   21  C   UNL     1       6.820  24.831  55.348  1.00  0.00     0.101 A 
HETATM   22  C   UNL     1       7.721  25.428  56.242  1.00  0.00     0.040 A 
HETATM   23  C   UNL     1       7.679  26.796  56.507  1.00  0.00     0.010 A 
BRANCH  20  24
HETATM   24  O   UNL     1       4.954  25.014  53.876  1.00  0.00    -0.353 OA
HETATM   25  C   UNL     1       5.285  24.916  52.497  1.00  0.00     0.210 C 
ENDBRANCH  20  24
BRANCH  21  26
HETATM   26  O   UNL     1       7.031  23.480  55.234  1.00  0.00    -0.353 OA
HETATM   27  C   UNL     1       8.262  23.024  54.695  1.00  0.00     0.210 C 
ENDBRANCH  21  26
ENDBRANCH  17  18
ENDBRANCH  16  17
ENDBRANCH  13  16
ENDBRANCH  10  12
ENDBRANCH   1  10
BRANCH   8  28
HETATM   28  C   UNL     1       5.114  32.499  63.242  1.00  0.00     0.231 C 
BRANCH  28  29
HETATM   29  C   UNL     1       4.047  33.580  63.326  1.00  0.00     0.238 C 
HETATM   30  N   UNL     1       4.413  34.919  63.487  1.00  0.00    -0.351 N 
HETATM   31  C   UNL     1       3.350  35.925  63.533  1.00  0.00     0.126 C 
HETATM   32  C   UNL     1       5.787  35.418  63.616  1.00  0.00     0.126 C 
HETATM   33  C   UNL     1       3.443  36.987  62.433  1.00  0.00     0.020 C 
HETATM   34  C   UNL     1       4.565  37.995  62.674  1.00  0.00     0.002 C 
HETATM   35  C   UNL     1       5.949  37.554  62.200  1.00  0.00     0.002 C 
HETATM   36  C   UNL     1       6.280  36.069  62.327  1.00  0.00     0.020 C 
HETATM   37  O   UNL     1       2.859  33.239  63.268  1.00  0.00    -0.272 OA
ENDBRANCH  28  29
ENDBRANCH   8  28
TORSDOF 9
ENDMDL
MODEL 9
REMARK VINA RESULT:      -9.2      2.222      3.893
REMARK  9 active torsions:
REMARK  status: ('A' for Active; 'I' for Inactive)
REMARK    1  A    between atoms: O_2  and  C_3 
REMARK    2  A    between atoms: C_4  and  O_5 
REMARK    3  A    between atoms: C_8  and  C_9 
REMARK    4  A    between atoms: C_9  and  C_10 
REMARK    5  A    between atoms: C_10  and  N_11 
REMARK       I    between atoms: N_11  and  C_12 
REMARK    6  A    between atoms: C_12  and  C_13 
REMARK    7  A    between atoms: C_13  and  C_14 
REMARK    8  A    between atoms: N_21  and  C_22 
REMARK    9  A    between atoms: C_22  and  C_23 
REMARK       I    between atoms: C_23  and  N_24 
ROOT
HETATM    1  C   UNL     1       5.433  30.481  57.749  1.00  0.00     0.048 C 
HETATM    2  C   UNL     1       6.745  30.826  58.215  1.00  0.00     0.006 A 
HETATM    3  C   UNL     1       7.655  29.977  57.568  1.00  0.00     0.045 A 
HETATM    4  C   UNL     1       9.041  30.059  57.784  1.00  0.00     0.030 A 
HETATM    5  C   UNL     1       9.517  31.008  58.690  1.00  0.00     0.002 A 
HETATM    6  C   UNL     1       8.641  31.857  59.353  1.00  0.00     0.001 A 
HETATM    7  C   UNL     1       7.262  31.781  59.121  1.00  0.00     0.015 A 
HETATM    8  N   UNL     1       6.924  29.150  56.742  1.00  0.00    -0.346 N 
HETATM    9  C   UNL     1       5.589  29.385  56.918  1.00  0.00     0.108 C 
ENDROOT
BRANCH   1  10
HETATM   10  C   UNL     1       4.126  31.071  58.028  1.00  0.00     0.251 C 
HETATM   11  O   UNL     1       3.490  30.784  59.043  1.00  0.00    -0.281 OA
BRANCH  10  12
HETATM   12  C   UNL     1       3.466  32.057  57.060  1.00  0.00     0.292 C 
HETATM   13  N   UNL     1       3.746  33.402  57.199  1.00  0.00    -0.354 N 
HETATM   14  H   UNL     1       3.141  33.988  56.636  1.00  0.00     0.162 HD
HETATM   15  O   UNL     1       2.689  31.659  56.201  1.00  0.00    -0.264 OA
BRANCH  13  16
HETATM   16  C   UNL     1       4.462  33.990  58.318  1.00  0.00     0.127 C 
BRANCH  16  17
HETATM   17  C   UNL     1       3.512  34.609  59.342  1.00  0.00     0.058 C 
BRANCH  17  18
HETATM   18  C   UNL     1       3.846  34.177  60.748  1.00  0.00    -0.054 A 
HETATM   19  C   UNL     1       5.137  33.723  61.063  1.00  0.00     0.046 A 
HETATM   20  C   UNL     1       5.469  33.288  62.358  1.00  0.00     0.102 A 
HETATM   21  C   UNL     1       4.477  33.313  63.355  1.00  0.00     0.101 A 
HETATM   22  C   UNL     1       3.187  33.756  63.031  1.00  0.00     0.040 A 
HETATM   23  C   UNL     1       2.870  34.187  61.744  1.00  0.00     0.010 A 
BRANCH  20  24
HETATM   24  O   UNL     1       6.713  32.821  62.689  1.00  0.00    -0.353 OA
HETATM   25  C   UNL     1       6.953  31.422  62.612  1.00  0.00     0.210 C 
ENDBRANCH  20  24
BRANCH  21  26
HETATM   26  O   UNL     1       4.572  32.931  64.669  1.00  0.00    -0.353 OA
HETATM   27  C   UNL     1       5.145  33.833  65.603  1.00  0.00     0.210 C 
ENDBRANCH  21  26
ENDBRANCH  17  18
ENDBRANCH  16  17
ENDBRANCH  13  16
ENDBRANCH  10  12
ENDBRANCH   1  10
BRANCH   8  28
HETATM   28  C   UNL     1       7.468  28.135  55.852  1.00  0.00     0.231 C 
BRANCH  28  29
HETATM   29  C   UNL     1       7.535  26.766  56.510  1.00  0.00     0.238 C 
HETATM   30  N   UNL     1       7.189  25.620  55.788  1.00  0.00    -0.351 N 
HETATM   31  C   UNL     1       7.299  24.322  56.459  1.00  0.00     0.126 C 
HETATM   32  C   UNL     1       6.719  25.597  54.399  1.00  0.00     0.126 C 
HETATM   33  C   UNL     1       8.260  23.344  55.778  1.00  0.00     0.020 C 
HETATM   34  C   UNL     1       7.696  22.759  54.485  1.00  0.00     0.002 C 
HETATM   35  C   UNL     1       7.886  23.625  53.241  1.00  0.00     0.002 C 
HETATM   36  C   UNL     1       7.809  25.138  53.436  1.00  0.00     0.020 C 
HETATM   37  O   UNL     1       7.882  26.700  57.696  1.00  0.00    -0.272 OA
ENDBRANCH  28  29
ENDBRANCH   8  28
TORSDOF 9
ENDMDL
MODEL 10
REMARK VINA RESULT:      -9.2      2.694     10.854
REMARK  9 active torsions:
REMARK  status: ('A' for Active; 'I' for Inactive)
REMARK    1  A    between atoms: O_2  and  C_3 
REMARK    2  A    between atoms: C_4  and  O_5 
REMARK    3  A    between atoms: C_8  and  C_9 
REMARK    4  A    between atoms: C_9  and  C_10 
REMARK    5  A    between atoms: C_10  and  N_11 
REMARK       I    between atoms: N_11  and  C_12 
REMARK    6  A    between atoms: C_12  and  C_13 
REMARK    7  A    between atoms: C_13  and  C_14 
REMARK    8  A    between atoms: N_21  and  C_22 
REMARK    9  A    between atoms: C_22  and  C_23 
REMARK       I    between atoms: C_23  and  N_24 
ROOT
HETATM    1  C   UNL     1       7.697  30.248  58.413  1.00  0.00     0.048 C 
HETATM    2  C   UNL     1       8.179  30.764  59.662  1.00  0.00     0.006 A 
HETATM    3  C   UNL     1       7.364  31.851  60.008  1.00  0.00     0.045 A 
HETATM    4  C   UNL     1       7.551  32.581  61.194  1.00  0.00     0.030 A 
HETATM    5  C   UNL     1       8.599  32.216  62.040  1.00  0.00     0.002 A 
HETATM    6  C   UNL     1       9.429  31.149  61.721  1.00  0.00     0.001 A 
HETATM    7  C   UNL     1       9.227  30.416  60.546  1.00  0.00     0.015 A 
HETATM    8  N   UNL     1       6.424  31.990  59.009  1.00  0.00    -0.346 N 
HETATM    9  C   UNL     1       6.678  31.094  58.009  1.00  0.00     0.108 C 
ENDROOT
BRANCH   1  10
HETATM   10  C   UNL     1       8.114  29.093  57.622  1.00  0.00     0.251 C 
HETATM   11  O   UNL     1       7.938  27.940  58.019  1.00  0.00    -0.281 OA
BRANCH  10  12
HETATM   12  C   UNL     1       8.817  29.255  56.272  1.00  0.00     0.292 C 
HETATM   13  N   UNL     1       8.158  28.837  55.133  1.00  0.00    -0.354 N 
HETATM   14  H   UNL     1       8.758  28.823  54.316  1.00  0.00     0.162 HD
HETATM   15  O   UNL     1       9.947  29.723  56.212  1.00  0.00    -0.264 OA
BRANCH  13  16
HETATM   16  C   UNL     1       6.927  28.066  55.122  1.00  0.00     0.127 C 
BRANCH  16  17
HETATM   17  C   UNL     1       6.642  27.464  53.746  1.00  0.00     0.058 C 
BRANCH  17  18
HETATM   18  C   UNL     1       7.171  26.056  53.632  1.00  0.00    -0.054 A 
HETATM   19  C   UNL     1       7.625  25.373  54.771  1.00  0.00     0.046 A 
HETATM   20  C   UNL     1       8.150  24.071  54.689  1.00  0.00     0.102 A 
HETATM   21  C   UNL     1       8.216  23.446  53.431  1.00  0.00     0.101 A 
HETATM   22  C   UNL     1       7.772  24.139  52.295  1.00  0.00     0.040 A 
HETATM   23  C   UNL     1       7.252  25.428  52.389  1.00  0.00     0.010 A 
BRANCH  20  24
HETATM   24  O   UNL     1       8.619  23.388  55.780  1.00  0.00    -0.353 OA
HETATM   25  C   UNL     1       8.171  23.783  57.070  1.00  0.00     0.210 C 
ENDBRANCH  20  24
BRANCH  21  26
HETATM   26  O   UNL     1       8.692  22.199  53.117  1.00  0.00    -0.353 OA
HETATM   27  C   UNL     1       7.862  21.072  53.348  1.00  0.00     0.210 C 
ENDBRANCH  21  26
ENDBRANCH  17  18
ENDBRANCH  16  17
ENDBRANCH  13  16
ENDBRANCH  10  12
ENDBRANCH   1  10
BRANCH   8  28
HETATM   28  C   UNL     1       5.350  32.972  58.977  1.00  0.00     0.231 C 
BRANCH  28  29
HETATM   29  C   UNL     1       4.294  32.706  60.038  1.00  0.00     0.238 C 
HETATM   30  N   UNL     1       4.187  33.545  61.151  1.00  0.00    -0.351 N 
HETATM   31  C   UNL     1       3.134  33.264  62.130  1.00  0.00     0.126 C 
HETATM   32  C   UNL     1       5.046  34.701  61.433  1.00  0.00     0.126 C 
HETATM   33  C   UNL     1       2.134  34.407  62.321  1.00  0.00     0.020 C 
HETATM   34  C   UNL     1       2.714  35.579  63.110  1.00  0.00     0.002 C 
HETATM   35  C   UNL     1       3.522  36.582  62.287  1.00  0.00     0.002 C 
HETATM   36  C   UNL     1       4.343  36.021  61.129  1.00  0.00     0.020 C 
HETATM   37  O   UNL     1       3.554  31.724  59.898  1.00  0.00    -0.272 OA
ENDBRANCH  28  29
ENDBRANCH   8  28
TORSDOF 9
ENDMDL
