MODEL 1
REMARK VINA RESULT:      -9.3      0.000      0.000
REMARK  7 active torsions:
REMARK  status: ('A' for Active; 'I' for Inactive)
REMARK    1  A    between atoms: C_3  and  C_4 
REMARK    2  A    between atoms: C_9  and  N_10 
REMARK       I    between atoms: N_10  and  C_11 
REMARK       I    between atoms: C_11  and  N_15 
REMARK    3  A    between atoms: N_15  and  CA_16 
REMARK    4  A    between atoms: CA_16  and  C_17 
REMARK    5  A    between atoms: CA_16  and  CB_19 
REMARK    6  A    between atoms: C_17  and  O_18 
REMARK    7  A    between atoms: CB_19  and  CG_20 
ROOT
HETATM    1  N   UNK A   0       7.764  29.072  55.510  1.00  0.00    -0.309 N 
HETATM    2  C   UNK A   0       7.087  27.932  55.210  1.00  0.00     0.321 C 
HETATM    3  O   UNK A   0       6.807  27.704  54.033  1.00  0.00    -0.247 OA
HETATM    4  H   UNK A   0       8.082  29.517  54.658  1.00  0.00     0.170 HD
ATOM      5  N   TRP A   1       6.807  27.061  56.210  1.00  0.00    -0.336 N 
ATOM      6  H   TRP A   1       7.368  27.111  57.047  1.00  0.00     0.164 HD
ENDROOT
BRANCH   5   7
ATOM      7  CA  TRP A   1       6.335  25.705  55.930  1.00  0.00     0.114 C 
BRANCH   7   8
ATOM      8  C   TRP A   1       5.127  25.369  56.822  1.00  0.00     0.189 C 
BRANCH   8   9
ATOM      9  O   TRP A   1       4.317  26.520  57.061  1.00  0.00    -0.399 OA
ATOM     10  H   TRP A   1       3.993  26.455  57.975  1.00  0.00     0.209 HD
ENDBRANCH   8   9
ENDBRANCH   7   8
BRANCH   7  11
ATOM     11  CB  TRP A   1       7.488  24.672  55.995  1.00  0.00     0.068 C 
BRANCH  11  12
ATOM     12  CG  TRP A   1       7.719  23.843  54.761  1.00  0.00    -0.028 A 
ATOM     13  CD2 TRP A   1       8.083  22.458  54.677  1.00  0.00    -0.002 A 
ATOM     14  CE2 TRP A   1       8.154  22.126  53.323  1.00  0.00     0.042 A 
ATOM     15  CE3 TRP A   1       8.355  21.445  55.620  1.00  0.00     0.014 A 
ATOM     16  CZ2 TRP A   1       8.450  20.836  52.868  1.00  0.00     0.030 A 
ATOM     17  NE1 TRP A   1       7.894  23.272  52.610  1.00  0.00    -0.365 N 
ATOM     18  CH2 TRP A   1       8.680  19.846  53.826  1.00  0.00     0.002 A 
ATOM     19  CZ3 TRP A   1       8.637  20.144  55.185  1.00  0.00     0.001 A 
ATOM     20  HE1 TRP A   1       7.901  23.332  51.602  1.00  0.00     0.165 HD
ATOM     21  CD1 TRP A   1       7.635  24.310  53.461  1.00  0.00     0.096 A 
ENDBRANCH  11  12
ENDBRANCH   7  11
ENDBRANCH   5   7
BRANCH   1  22
HETATM   22  C   UNK A   0       8.157  29.672  56.717  1.00  0.00     0.036 A 
HETATM   23  C   UNK A   0       9.441  29.613  57.250  1.00  0.00     0.030 A 
HETATM   24  C   UNK A   0       9.747  30.298  58.432  1.00  0.00     0.018 A 
HETATM   25  C   UNK A   0       8.764  31.032  59.112  1.00  0.00     0.015 A 
HETATM   26  C   UNK A   0       7.446  31.047  58.621  1.00  0.00    -0.046 A 
HETATM   27  C   UNK A   0       6.330  31.794  59.301  1.00  0.00     0.049 C 
HETATM   28  C   UNK A   0       7.163  30.361  57.425  1.00  0.00     0.037 A 
BRANCH  25  29
HETATM   29  C   UNK A   0       9.149  31.801  60.334  1.00  0.00     0.156 C 
HETATM   30  C   UNK A   0       9.300  31.054  61.634  1.00  0.00     0.097 C 
HETATM   31  O   UNK A   0       9.368  33.008  60.269  1.00  0.00    -0.293 OA
ENDBRANCH  25  29
ENDBRANCH   1  22
TORSDOF 7
ENDMDL
MODEL 2
REMARK VINA RESULT:      -9.3      2.278      9.192
REMARK  7 active torsions:
REMARK  status: ('A' for Active; 'I' for Inactive)
REMARK    1  A    between atoms: C_3  and  C_4 
REMARK    2  A    between atoms: C_9  and  N_10 
REMARK       I    between atoms: N_10  and  C_11 
REMARK       I    between atoms: C_11  and  N_15 
REMARK    3  A    between atoms: N_15  and  CA_16 
REMARK    4  A    between atoms: CA_16  and  C_17 
REMARK    5  A    between atoms: CA_16  and  CB_19 
REMARK    6  A    between atoms: C_17  and  O_18 
REMARK    7  A    between atoms: CB_19  and  CG_20 
ROOT
HETATM    1  N   UNK A   0       6.599  26.846  55.527  1.00  0.00    -0.309 N 
HETATM    2  C   UNK A   0       7.127  28.089  55.682  1.00  0.00     0.321 C 
HETATM    3  O   UNK A   0       6.415  29.066  55.451  1.00  0.00    -0.247 OA
HETATM    4  H   UNK A   0       5.600  26.914  55.377  1.00  0.00     0.170 HD
ATOM      5  N   TRP A   1       8.395  28.202  56.149  1.00  0.00    -0.336 N 
ATOM      6  H   TRP A   1       8.778  27.421  56.661  1.00  0.00     0.164 HD
ENDROOT
BRANCH   5   7
ATOM      7  CA  TRP A   1       8.930  29.486  56.599  1.00  0.00     0.114 C 
BRANCH   7   8
ATOM      8  C   TRP A   1      10.245  29.800  55.865  1.00  0.00     0.189 C 
BRANCH   8   9
ATOM      9  O   TRP A   1      11.378  29.591  56.708  1.00  0.00    -0.399 OA
ATOM     10  H   TRP A   1      11.309  28.687  57.059  1.00  0.00     0.209 HD
ENDBRANCH   8   9
ENDBRANCH   7   8
BRANCH   7  11
ATOM     11  CB  TRP A   1       9.025  29.557  58.144  1.00  0.00     0.068 C 
BRANCH  11  12
ATOM     12  CG  TRP A   1       8.036  30.452  58.839  1.00  0.00    -0.028 A 
ATOM     13  CD2 TRP A   1       8.147  31.064  60.132  1.00  0.00    -0.002 A 
ATOM     14  CE2 TRP A   1       6.996  31.828  60.332  1.00  0.00     0.042 A 
ATOM     15  CE3 TRP A   1       9.117  31.051  61.156  1.00  0.00     0.014 A 
ATOM     16  CZ2 TRP A   1       6.782  32.597  61.482  1.00  0.00     0.030 A 
ATOM     17  NE1 TRP A   1       6.194  31.650  59.231  1.00  0.00    -0.365 N 
ATOM     18  CH2 TRP A   1       7.777  32.591  62.462  1.00  0.00     0.002 A 
ATOM     19  CZ3 TRP A   1       8.929  31.826  62.306  1.00  0.00     0.001 A 
ATOM     20  HE1 TRP A   1       5.283  32.069  59.115  1.00  0.00     0.165 HD
ATOM     21  CD1 TRP A   1       6.805  30.824  58.329  1.00  0.00     0.096 A 
ENDBRANCH  11  12
ENDBRANCH   7  11
ENDBRANCH   5   7
BRANCH   1  22
HETATM   22  C   UNK A   0       7.135  25.552  55.615  1.00  0.00     0.036 A 
HETATM   23  C   UNK A   0       7.578  24.956  56.792  1.00  0.00     0.030 A 
HETATM   24  C   UNK A   0       8.039  23.634  56.784  1.00  0.00     0.018 A 
HETATM   25  C   UNK A   0       8.089  22.897  55.592  1.00  0.00     0.015 A 
HETATM   26  C   UNK A   0       7.706  23.508  54.383  1.00  0.00    -0.046 A 
HETATM   27  C   UNK A   0       7.746  22.792  53.059  1.00  0.00     0.049 C 
HETATM   28  C   UNK A   0       7.234  24.833  54.416  1.00  0.00     0.037 A 
BRANCH  25  29
HETATM   29  C   UNK A   0       8.527  21.469  55.639  1.00  0.00     0.156 C 
HETATM   30  C   UNK A   0       7.519  20.423  56.037  1.00  0.00     0.097 C 
HETATM   31  O   UNK A   0       9.673  21.158  55.327  1.00  0.00    -0.293 OA
ENDBRANCH  25  29
ENDBRANCH   1  22
TORSDOF 7
ENDMDL
MODEL 3
REMARK VINA RESULT:      -9.3      1.782      2.193
REMARK  7 active torsions:
REMARK  status: ('A' for Active; 'I' for Inactive)
REMARK    1  A    between atoms: C_3  and  C_4 
REMARK    2  A    between atoms: C_9  and  N_10 
REMARK       I    between atoms: N_10  and  C_11 
REMARK       I    between atoms: C_11  and  N_15 
REMARK    3  A    between atoms: N_15  and  CA_16 
REMARK    4  A    between atoms: CA_16  and  C_17 
REMARK    5  A    between atoms: CA_16  and  CB_19 
REMARK    6  A    between atoms: C_17  and  O_18 
REMARK    7  A    between atoms: CB_19  and  CG_20 
ROOT
HETATM    1  N   UNK A   0       5.996  29.328  54.745  1.00  0.00    -0.309 N 
HETATM    2  C   UNK A   0       5.734  28.208  54.022  1.00  0.00     0.321 C 
HETATM    3  O   UNK A   0       4.952  28.286  53.074  1.00  0.00    -0.247 OA
HETATM    4  H   UNK A   0       5.599  30.137  54.283  1.00  0.00     0.170 HD
ATOM      5  N   TRP A   1       6.396  27.066  54.331  1.00  0.00    -0.336 N 
ATOM      6  H   TRP A   1       7.264  27.150  54.840  1.00  0.00     0.164 HD
ENDROOT
BRANCH   5   7
ATOM      7  CA  TRP A   1       6.378  25.908  53.438  1.00  0.00     0.114 C 
BRANCH   7   8
ATOM      8  C   TRP A   1       5.219  24.968  53.812  1.00  0.00     0.189 C 
BRANCH   8   9
ATOM      9  O   TRP A   1       4.019  25.316  53.121  1.00  0.00    -0.399 OA
ATOM     10  H   TRP A   1       3.784  24.559  52.559  1.00  0.00     0.209 HD
ENDBRANCH   8   9
ENDBRANCH   7   8
BRANCH   7  11
ATOM     11  CB  TRP A   1       7.764  25.220  53.363  1.00  0.00     0.068 C 
BRANCH  11  12
ATOM     12  CG  TRP A   1       8.044  24.158  54.389  1.00  0.00    -0.028 A 
ATOM     13  CD2 TRP A   1       8.156  22.740  54.194  1.00  0.00    -0.002 A 
ATOM     14  CE2 TRP A   1       8.453  22.170  55.433  1.00  0.00     0.042 A 
ATOM     15  CE3 TRP A   1       8.041  21.880  53.082  1.00  0.00     0.014 A 
ATOM     16  CZ2 TRP A   1       8.668  20.798  55.609  1.00  0.00     0.030 A 
ATOM     17  NE1 TRP A   1       8.471  23.189  56.355  1.00  0.00    -0.365 N 
ATOM     18  CH2 TRP A   1       8.582  19.977  54.482  1.00  0.00     0.002 A 
ATOM     19  CZ3 TRP A   1       8.269  20.507  53.234  1.00  0.00     0.001 A 
ATOM     20  HE1 TRP A   1       8.639  23.062  57.342  1.00  0.00     0.165 HD
ATOM     21  CD1 TRP A   1       8.224  24.386  55.742  1.00  0.00     0.096 A 
ENDBRANCH  11  12
ENDBRANCH   7  11
ENDBRANCH   5   7
BRANCH   1  22
HETATM   22  C   UNK A   0       6.744  29.574  55.907  1.00  0.00     0.036 A 
HETATM   23  C   UNK A   0       7.998  29.029  56.173  1.00  0.00     0.030 A 
HETATM   24  C   UNK A   0       8.690  29.386  57.336  1.00  0.00     0.018 A 
HETATM   25  C   UNK A   0       8.128  30.275  58.264  1.00  0.00     0.015 A 
HETATM   26  C   UNK A   0       6.835  30.783  58.041  1.00  0.00    -0.046 A 
HETATM   27  C   UNK A   0       6.154  31.727  58.995  1.00  0.00     0.049 C 
HETATM   28  C   UNK A   0       6.161  30.420  56.860  1.00  0.00     0.037 A 
BRANCH  25  29
HETATM   29  C   UNK A   0       8.929  30.679  59.459  1.00  0.00     0.156 C 
HETATM   30  C   UNK A   0       9.839  31.874  59.341  1.00  0.00     0.097 C 
HETATM   31  O   UNK A   0       8.818  30.069  60.519  1.00  0.00    -0.293 OA
ENDBRANCH  25  29
ENDBRANCH   1  22
TORSDOF 7
ENDMDL
MODEL 4
REMARK VINA RESULT:      -9.2      2.423      3.804
REMARK  7 active torsions:
REMARK  status: ('A' for Active; 'I' for Inactive)
REMARK    1  A    between atoms: C_3  and  C_4 
REMARK    2  A    between atoms: C_9  and  N_10 
REMARK       I    between atoms: N_10  and  C_11 
REMARK       I    between atoms: C_11  and  N_15 
REMARK    3  A    between atoms: N_15  and  CA_16 
REMARK    4  A    between atoms: CA_16  and  C_17 
REMARK    5  A    between atoms: CA_16  and  CB_19 
REMARK    6  A    between atoms: C_17  and  O_18 
REMARK    7  A    between atoms: CB_19  and  CG_20 
ROOT
HETATM    1  N   UNK A   0       9.679  30.655  58.861  1.00  0.00    -0.309 N 
HETATM    2  C   UNK A   0       9.499  29.895  57.750  1.00  0.00     0.321 C 
HETATM    3  O   UNK A   0      10.374  29.899  56.884  1.00  0.00    -0.247 OA
HETATM    4  H   UNK A   0      10.623  31.020  58.880  1.00  0.00     0.170 HD
ATOM      5  N   TRP A   1       8.396  29.110  57.671  1.00  0.00    -0.336 N 
ATOM      6  H   TRP A   1       7.932  28.866  58.533  1.00  0.00     0.164 HD
ENDROOT
BRANCH   5   7
ATOM      7  CA  TRP A   1       8.271  28.070  56.650  1.00  0.00     0.114 C 
BRANCH   7   8
ATOM      8  C   TRP A   1       7.685  28.664  55.357  1.00  0.00     0.189 C 
BRANCH   8   9
ATOM      9  O   TRP A   1       8.707  28.955  54.404  1.00  0.00    -0.399 OA
ATOM     10  H   TRP A   1       8.309  29.522  53.723  1.00  0.00     0.209 HD
ENDBRANCH   8   9
ENDBRANCH   7   8
BRANCH   7  11
ATOM     11  CB  TRP A   1       7.516  26.828  57.187  1.00  0.00     0.068 C 
BRANCH  11  12
ATOM     12  CG  TRP A   1       7.957  25.492  56.656  1.00  0.00    -0.028 A 
ATOM     13  CD2 TRP A   1       7.663  24.901  55.382  1.00  0.00    -0.002 A 
ATOM     14  CE2 TRP A   1       8.315  23.667  55.334  1.00  0.00     0.042 A 
ATOM     15  CE3 TRP A   1       6.911  25.295  54.256  1.00  0.00     0.014 A 
ATOM     16  CZ2 TRP A   1       8.278  22.828  54.214  1.00  0.00     0.030 A 
ATOM     17  NE1 TRP A   1       8.938  23.489  56.546  1.00  0.00    -0.365 N 
ATOM     18  CH2 TRP A   1       7.553  23.262  53.101  1.00  0.00     0.002 A 
ATOM     19  CZ3 TRP A   1       6.875  24.477  53.120  1.00  0.00     0.001 A 
ATOM     20  HE1 TRP A   1       9.468  22.669  56.800  1.00  0.00     0.165 HD
ATOM     21  CD1 TRP A   1       8.728  24.575  57.349  1.00  0.00     0.096 A 
ENDBRANCH  11  12
ENDBRANCH   7  11
ENDBRANCH   5   7
BRANCH   1  22
HETATM   22  C   UNK A   0       8.871  30.947  59.972  1.00  0.00     0.036 A 
HETATM   23  C   UNK A   0       9.140  30.539  61.276  1.00  0.00     0.030 A 
HETATM   24  C   UNK A   0       8.303  30.936  62.326  1.00  0.00     0.018 A 
HETATM   25  C   UNK A   0       7.169  31.724  62.083  1.00  0.00     0.015 A 
HETATM   26  C   UNK A   0       6.848  32.089  60.762  1.00  0.00    -0.046 A 
HETATM   27  C   UNK A   0       5.641  32.918  60.415  1.00  0.00     0.049 C 
HETATM   28  C   UNK A   0       7.710  31.690  59.723  1.00  0.00     0.037 A 
BRANCH  25  29
HETATM   29  C   UNK A   0       6.339  32.178  63.240  1.00  0.00     0.156 C 
HETATM   30  C   UNK A   0       6.875  33.279  64.118  1.00  0.00     0.097 C 
HETATM   31  O   UNK A   0       5.233  31.686  63.446  1.00  0.00    -0.293 OA
ENDBRANCH  25  29
ENDBRANCH   1  22
TORSDOF 7
ENDMDL
MODEL 5
REMARK VINA RESULT:      -9.0      3.524     10.299
REMARK  7 active torsions:
REMARK  status: ('A' for Active; 'I' for Inactive)
REMARK    1  A    between atoms: C_3  and  C_4 
REMARK    2  A    between atoms: C_9  and  N_10 
REMARK       I    between atoms: N_10  and  C_11 
REMARK       I    between atoms: C_11  and  N_15 
REMARK    3  A    between atoms: N_15  and  CA_16 
REMARK    4  A    between atoms: CA_16  and  C_17 
REMARK    5  A    between atoms: CA_16  and  CB_19 
REMARK    6  A    between atoms: C_17  and  O_18 
REMARK    7  A    between atoms: CB_19  and  CG_20 
ROOT
HETATM    1  N   UNK A   0       8.753  30.446  57.643  1.00  0.00    -0.309 N 
HETATM    2  C   UNK A   0       9.218  31.068  58.758  1.00  0.00     0.321 C 
HETATM    3  O   UNK A   0      10.051  31.965  58.630  1.00  0.00    -0.247 OA
HETATM    4  H   UNK A   0       9.070  30.939  56.818  1.00  0.00     0.170 HD
ATOM      5  N   TRP A   1       8.695  30.722  59.961  1.00  0.00    -0.336 N 
ATOM      6  H   TRP A   1       7.788  30.280  59.968  1.00  0.00     0.164 HD
ENDROOT
BRANCH   5   7
ATOM      7  CA  TRP A   1       8.938  31.527  61.158  1.00  0.00     0.114 C 
BRANCH   7   8
ATOM      8  C   TRP A   1       8.712  30.679  62.421  1.00  0.00     0.189 C 
BRANCH   8   9
ATOM      9  O   TRP A   1       9.300  29.384  62.295  1.00  0.00    -0.399 OA
ATOM     10  H   TRP A   1       9.658  29.320  61.394  1.00  0.00     0.209 HD
ENDBRANCH   8   9
ENDBRANCH   7   8
BRANCH   7  11
ATOM     11  CB  TRP A   1       8.142  32.856  61.126  1.00  0.00     0.068 C 
BRANCH  11  12
ATOM     12  CG  TRP A   1       6.869  32.898  61.925  1.00  0.00    -0.028 A 
ATOM     13  CD2 TRP A   1       6.701  33.221  63.313  1.00  0.00    -0.002 A 
ATOM     14  CE2 TRP A   1       5.336  33.155  63.595  1.00  0.00     0.042 A 
ATOM     15  CE3 TRP A   1       7.576  33.572  64.362  1.00  0.00     0.014 A 
ATOM     16  CZ2 TRP A   1       4.802  33.449  64.856  1.00  0.00     0.030 A 
ATOM     17  NE1 TRP A   1       4.702  32.758  62.442  1.00  0.00    -0.365 N 
ATOM     18  CH2 TRP A   1       5.691  33.827  65.865  1.00  0.00     0.002 A 
ATOM     19  CZ3 TRP A   1       7.061  33.885  65.626  1.00  0.00     0.001 A 
ATOM     20  HE1 TRP A   1       3.707  32.605  62.361  1.00  0.00     0.165 HD
ATOM     21  CD1 TRP A   1       5.611  32.597  61.434  1.00  0.00     0.096 A 
ENDBRANCH  11  12
ENDBRANCH   7  11
ENDBRANCH   5   7
BRANCH   1  22
HETATM   22  C   UNK A   0       7.892  29.357  57.433  1.00  0.00     0.036 A 
HETATM   23  C   UNK A   0       6.520  29.460  57.221  1.00  0.00     0.030 A 
HETATM   24  C   UNK A   0       5.759  28.315  56.959  1.00  0.00     0.018 A 
HETATM   25  C   UNK A   0       6.354  27.046  56.932  1.00  0.00     0.015 A 
HETATM   26  C   UNK A   0       7.728  26.919  57.210  1.00  0.00    -0.046 A 
HETATM   27  C   UNK A   0       8.439  25.592  57.219  1.00  0.00     0.049 C 
HETATM   28  C   UNK A   0       8.477  28.084  57.459  1.00  0.00     0.037 A 
BRANCH  25  29
HETATM   29  C   UNK A   0       5.517  25.858  56.586  1.00  0.00     0.156 C 
HETATM   30  C   UNK A   0       5.552  25.345  55.169  1.00  0.00     0.097 C 
HETATM   31  O   UNK A   0       4.843  25.297  57.446  1.00  0.00    -0.293 OA
ENDBRANCH  25  29
ENDBRANCH   1  22
TORSDOF 7
ENDMDL
MODEL 6
REMARK VINA RESULT:      -8.8      1.679      2.632
REMARK  7 active torsions:
REMARK  status: ('A' for Active; 'I' for Inactive)
REMARK    1  A    between atoms: C_3  and  C_4 
REMARK    2  A    between atoms: C_9  and  N_10 
REMARK       I    between atoms: N_10  and  C_11 
REMARK       I    between atoms: C_11  and  N_15 
REMARK    3  A    between atoms: N_15  and  CA_16 
REMARK    4  A    between atoms: CA_16  and  C_17 
REMARK    5  A    between atoms: CA_16  and  CB_19 
REMARK    6  A    between atoms: C_17  and  O_18 
REMARK    7  A    between atoms: CB_19  and  CG_20 
ROOT
HETATM    1  N   UNK A   0       8.094  29.864  56.907  1.00  0.00    -0.309 N 
HETATM    2  C   UNK A   0       7.756  28.658  56.381  1.00  0.00     0.321 C 
HETATM    3  O   UNK A   0       8.147  28.376  55.248  1.00  0.00    -0.247 OA
HETATM    4  H   UNK A   0       8.777  30.318  56.313  1.00  0.00     0.170 HD
ATOM      5  N   TRP A   1       7.059  27.786  57.152  1.00  0.00    -0.336 N 
ATOM      6  H   TRP A   1       7.097  27.911  58.152  1.00  0.00     0.164 HD
ENDROOT
BRANCH   5   7
ATOM      7  CA  TRP A   1       6.899  26.385  56.765  1.00  0.00     0.114 C 
BRANCH   7   8
ATOM      8  C   TRP A   1       5.599  25.815  57.358  1.00  0.00     0.189 C 
BRANCH   8   9
ATOM      9  O   TRP A   1       4.462  26.579  56.956  1.00  0.00    -0.399 OA
ATOM     10  H   TRP A   1       3.872  26.639  57.726  1.00  0.00     0.209 HD
ENDBRANCH   8   9
ENDBRANCH   7   8
BRANCH   7  11
ATOM     11  CB  TRP A   1       8.168  25.554  57.083  1.00  0.00     0.068 C 
BRANCH  11  12
ATOM     12  CG  TRP A   1       8.190  24.138  56.578  1.00  0.00    -0.028 A 
ATOM     13  CD2 TRP A   1       8.036  23.673  55.230  1.00  0.00    -0.002 A 
ATOM     14  CE2 TRP A   1       8.159  22.283  55.251  1.00  0.00     0.042 A 
ATOM     15  CE3 TRP A   1       7.810  24.297  53.985  1.00  0.00     0.014 A 
ATOM     16  CZ2 TRP A   1       8.098  21.494  54.096  1.00  0.00     0.030 A 
ATOM     17  NE1 TRP A   1       8.329  21.910  56.562  1.00  0.00    -0.365 N 
ATOM     18  CH2 TRP A   1       7.908  22.145  52.874  1.00  0.00     0.002 A 
ATOM     19  CZ3 TRP A   1       7.762  23.527  52.817  1.00  0.00     0.001 A 
ATOM     20  HE1 TRP A   1       8.423  20.956  56.877  1.00  0.00     0.165 HD
ATOM     21  CD1 TRP A   1       8.346  23.014  57.369  1.00  0.00     0.096 A 
ENDBRANCH  11  12
ENDBRANCH   7  11
ENDBRANCH   5   7
BRANCH   1  22
HETATM   22  C   UNK A   0       7.757  30.527  58.097  1.00  0.00     0.036 A 
HETATM   23  C   UNK A   0       6.677  31.394  58.244  1.00  0.00     0.030 A 
HETATM   24  C   UNK A   0       6.389  31.958  59.492  1.00  0.00     0.018 A 
HETATM   25  C   UNK A   0       7.194  31.686  60.607  1.00  0.00     0.015 A 
HETATM   26  C   UNK A   0       8.327  30.864  60.460  1.00  0.00    -0.046 A 
HETATM   27  C   UNK A   0       9.252  30.537  61.603  1.00  0.00     0.049 C 
HETATM   28  C   UNK A   0       8.592  30.297  59.199  1.00  0.00     0.037 A 
BRANCH  25  29
HETATM   29  C   UNK A   0       6.814  32.258  61.934  1.00  0.00     0.156 C 
HETATM   30  C   UNK A   0       5.816  31.508  62.779  1.00  0.00     0.097 C 
HETATM   31  O   UNK A   0       7.330  33.297  62.337  1.00  0.00    -0.293 OA
ENDBRANCH  25  29
ENDBRANCH   1  22
TORSDOF 7
ENDMDL
MODEL 7
REMARK VINA RESULT:      -8.6      5.131      7.915
REMARK  7 active torsions:
REMARK  status: ('A' for Active; 'I' for Inactive)
REMARK    1  A    between atoms: C_3  and  C_4 
REMARK    2  A    between atoms: C_9  and  N_10 
REMARK       I    between atoms: N_10  and  C_11 
REMARK       I    between atoms: C_11  and  N_15 
REMARK    3  A    between atoms: N_15  and  CA_16 
REMARK    4  A    between atoms: CA_16  and  C_17 
REMARK    5  A    between atoms: CA_16  and  CB_19 
REMARK    6  A    between atoms: C_17  and  O_18 
REMARK    7  A    between atoms: CB_19  and  CG_20 
ROOT
HETATM    1  N   UNK A   0       4.502  25.946  50.380  1.00  0.00    -0.309 N 
HETATM    2  C   UNK A   0       5.060  25.795  51.609  1.00  0.00     0.321 C 
HETATM    3  O   UNK A   0       4.889  24.734  52.209  1.00  0.00    -0.247 OA
HETATM    4  H   UNK A   0       4.129  25.061  50.060  1.00  0.00     0.170 HD
ATOM      5  N   TRP A   1       5.839  26.792  52.096  1.00  0.00    -0.336 N 
ATOM      6  H   TRP A   1       6.239  27.441  51.434  1.00  0.00     0.164 HD
ENDROOT
BRANCH   5   7
ATOM      7  CA  TRP A   1       6.688  26.593  53.270  1.00  0.00     0.114 C 
BRANCH   7   8
ATOM      8  C   TRP A   1       7.317  27.929  53.702  1.00  0.00     0.189 C 
BRANCH   8   9
ATOM      9  O   TRP A   1       6.329  28.947  53.858  1.00  0.00    -0.399 OA
ATOM     10  H   TRP A   1       6.730  29.654  54.391  1.00  0.00     0.209 HD
ENDBRANCH   8   9
ENDBRANCH   7   8
BRANCH   7  11
ATOM     11  CB  TRP A   1       7.704  25.444  53.055  1.00  0.00     0.068 C 
BRANCH  11  12
ATOM     12  CG  TRP A   1       7.790  24.409  54.142  1.00  0.00    -0.028 A 
ATOM     13  CD2 TRP A   1       7.889  22.983  54.006  1.00  0.00    -0.002 A 
ATOM     14  CE2 TRP A   1       7.972  22.446  55.292  1.00  0.00     0.042 A 
ATOM     15  CE3 TRP A   1       7.924  22.091  52.914  1.00  0.00     0.014 A 
ATOM     16  CZ2 TRP A   1       8.118  21.076  55.538  1.00  0.00     0.030 A 
ATOM     17  NE1 TRP A   1       7.876  23.493  56.176  1.00  0.00    -0.365 N 
ATOM     18  CH2 TRP A   1       8.185  20.221  54.435  1.00  0.00     0.002 A 
ATOM     19  CZ3 TRP A   1       8.086  20.719  53.139  1.00  0.00     0.001 A 
ATOM     20  HE1 TRP A   1       7.884  23.395  57.181  1.00  0.00     0.165 HD
ATOM     21  CD1 TRP A   1       7.763  24.676  55.499  1.00  0.00     0.096 A 
ENDBRANCH  11  12
ENDBRANCH   7  11
ENDBRANCH   5   7
BRANCH   1  22
HETATM   22  C   UNK A   0       4.423  27.022  49.481  1.00  0.00     0.036 A 
HETATM   23  C   UNK A   0       5.073  27.076  48.251  1.00  0.00     0.030 A 
HETATM   24  C   UNK A   0       4.880  28.170  47.398  1.00  0.00     0.018 A 
HETATM   25  C   UNK A   0       4.054  29.238  47.775  1.00  0.00     0.015 A 
HETATM   26  C   UNK A   0       3.442  29.228  49.042  1.00  0.00    -0.046 A 
HETATM   27  C   UNK A   0       2.556  30.343  49.529  1.00  0.00     0.049 C 
HETATM   28  C   UNK A   0       3.640  28.114  49.879  1.00  0.00     0.037 A 
BRANCH  25  29
HETATM   29  C   UNK A   0       3.824  30.354  46.808  1.00  0.00     0.156 C 
HETATM   30  C   UNK A   0       4.832  31.473  46.753  1.00  0.00     0.097 C 
HETATM   31  O   UNK A   0       2.854  30.339  46.056  1.00  0.00    -0.293 OA
ENDBRANCH  25  29
ENDBRANCH   1  22
TORSDOF 7
ENDMDL
MODEL 8
REMARK VINA RESULT:      -8.3      3.814      7.997
REMARK  7 active torsions:
REMARK  status: ('A' for Active; 'I' for Inactive)
REMARK    1  A    between atoms: C_3  and  C_4 
REMARK    2  A    between atoms: C_9  and  N_10 
REMARK       I    between atoms: N_10  and  C_11 
REMARK       I    between atoms: C_11  and  N_15 
REMARK    3  A    between atoms: N_15  and  CA_16 
REMARK    4  A    between atoms: CA_16  and  C_17 
REMARK    5  A    between atoms: CA_16  and  CB_19 
REMARK    6  A    between atoms: C_17  and  O_18 
REMARK    7  A    between atoms: CB_19  and  CG_20 
ROOT
HETATM    1  N   UNK A   0       7.742  25.808  56.182  1.00  0.00    -0.309 N 
HETATM    2  C   UNK A   0       7.004  26.914  55.899  1.00  0.00     0.321 C 
HETATM    3  O   UNK A   0       7.054  27.870  56.673  1.00  0.00    -0.247 OA
HETATM    4  H   UNK A   0       8.370  26.001  56.952  1.00  0.00     0.170 HD
ATOM      5  N   TRP A   1       6.296  26.944  54.743  1.00  0.00    -0.336 N 
ATOM      6  H   TRP A   1       6.583  26.323  54.001  1.00  0.00     0.164 HD
ENDROOT
BRANCH   5   7
ATOM      7  CA  TRP A   1       5.709  28.186  54.241  1.00  0.00     0.114 C 
BRANCH   7   8
ATOM      8  C   TRP A   1       4.201  28.219  54.541  1.00  0.00     0.189 C 
BRANCH   8   9
ATOM      9  O   TRP A   1       3.942  28.077  55.938  1.00  0.00    -0.399 OA
ATOM     10  H   TRP A   1       4.795  27.908  56.371  1.00  0.00     0.209 HD
ENDBRANCH   8   9
ENDBRANCH   7   8
BRANCH   7  11
ATOM     11  CB  TRP A   1       6.074  28.433  52.755  1.00  0.00     0.068 C 
BRANCH  11  12
ATOM     12  CG  TRP A   1       5.504  27.468  51.753  1.00  0.00    -0.028 A 
ATOM     13  CD2 TRP A   1       5.274  27.674  50.352  1.00  0.00    -0.002 A 
ATOM     14  CE2 TRP A   1       4.760  26.484  49.834  1.00  0.00     0.042 A 
ATOM     15  CE3 TRP A   1       5.458  28.756  49.466  1.00  0.00     0.014 A 
ATOM     16  CZ2 TRP A   1       4.452  26.313  48.479  1.00  0.00     0.030 A 
ATOM     17  NE1 TRP A   1       4.633  25.606  50.882  1.00  0.00    -0.365 N 
ATOM     18  CH2 TRP A   1       4.678  27.391  47.620  1.00  0.00     0.002 A 
ATOM     19  CZ3 TRP A   1       5.171  28.599  48.104  1.00  0.00     0.001 A 
ATOM     20  HE1 TRP A   1       4.263  24.670  50.802  1.00  0.00     0.165 HD
ATOM     21  CD1 TRP A   1       5.073  26.185  52.040  1.00  0.00     0.096 A 
ENDBRANCH  11  12
ENDBRANCH   7  11
ENDBRANCH   5   7
BRANCH   1  22
HETATM   22  C   UNK A   0       7.852  24.542  55.585  1.00  0.00     0.036 A 
HETATM   23  C   UNK A   0       7.828  24.308  54.212  1.00  0.00     0.030 A 
HETATM   24  C   UNK A   0       8.007  23.013  53.714  1.00  0.00     0.018 A 
HETATM   25  C   UNK A   0       8.187  21.926  54.583  1.00  0.00     0.015 A 
HETATM   26  C   UNK A   0       8.148  22.138  55.973  1.00  0.00    -0.046 A 
HETATM   27  C   UNK A   0       8.314  21.024  56.972  1.00  0.00     0.049 C 
HETATM   28  C   UNK A   0       7.978  23.450  56.453  1.00  0.00     0.037 A 
BRANCH  25  29
HETATM   29  C   UNK A   0       8.439  20.571  54.007  1.00  0.00     0.156 C 
HETATM   30  C   UNK A   0       8.255  20.376  52.525  1.00  0.00     0.097 C 
HETATM   31  O   UNK A   0       8.819  19.649  54.725  1.00  0.00    -0.293 OA
ENDBRANCH  25  29
ENDBRANCH   1  22
TORSDOF 7
ENDMDL
MODEL 9
REMARK VINA RESULT:      -8.3      3.035      6.915
REMARK  7 active torsions:
REMARK  status: ('A' for Active; 'I' for Inactive)
REMARK    1  A    between atoms: C_3  and  C_4 
REMARK    2  A    between atoms: C_9  and  N_10 
REMARK       I    between atoms: N_10  and  C_11 
REMARK       I    between atoms: C_11  and  N_15 
REMARK    3  A    between atoms: N_15  and  CA_16 
REMARK    4  A    between atoms: CA_16  and  C_17 
REMARK    5  A    between atoms: CA_16  and  CB_19 
REMARK    6  A    between atoms: C_17  and  O_18 
REMARK    7  A    between atoms: CB_19  and  CG_20 
ROOT
HETATM    1  N   UNK A   0       8.122  26.415  57.539  1.00  0.00    -0.309 N 
HETATM    2  C   UNK A   0       7.489  27.617  57.561  1.00  0.00     0.321 C 
HETATM    3  O   UNK A   0       7.822  28.444  58.410  1.00  0.00    -0.247 OA
HETATM    4  H   UNK A   0       8.917  26.434  58.165  1.00  0.00     0.170 HD
ATOM      5  N   TRP A   1       6.563  27.881  56.607  1.00  0.00    -0.336 N 
ATOM      6  H   TRP A   1       6.604  27.346  55.752  1.00  0.00     0.164 HD
ENDROOT
BRANCH   5   7
ATOM      7  CA  TRP A   1       6.046  29.234  56.399  1.00  0.00     0.114 C 
BRANCH   7   8
ATOM      8  C   TRP A   1       4.882  29.511  57.365  1.00  0.00     0.189 C 
BRANCH   8   9
ATOM      9  O   TRP A   1       5.296  30.323  58.465  1.00  0.00    -0.399 OA
ATOM     10  H   TRP A   1       6.210  30.070  58.678  1.00  0.00     0.209 HD
ENDBRANCH   8   9
ENDBRANCH   7   8
BRANCH   7  11
ATOM     11  CB  TRP A   1       5.720  29.500  54.908  1.00  0.00     0.068 C 
BRANCH  11  12
ATOM     12  CG  TRP A   1       5.245  28.322  54.102  1.00  0.00    -0.028 A 
ATOM     13  CD2 TRP A   1       6.030  27.281  53.502  1.00  0.00    -0.002 A 
ATOM     14  CE2 TRP A   1       5.146  26.395  52.884  1.00  0.00     0.042 A 
ATOM     15  CE3 TRP A   1       7.410  26.997  53.428  1.00  0.00     0.014 A 
ATOM     16  CZ2 TRP A   1       5.567  25.233  52.227  1.00  0.00     0.030 A 
ATOM     17  NE1 TRP A   1       3.880  26.900  53.055  1.00  0.00    -0.365 N 
ATOM     18  CH2 TRP A   1       6.937  24.961  52.200  1.00  0.00     0.002 A 
ATOM     19  CZ3 TRP A   1       7.849  25.831  52.789  1.00  0.00     0.001 A 
ATOM     20  HE1 TRP A   1       3.041  26.474  52.689  1.00  0.00     0.165 HD
ATOM     21  CD1 TRP A   1       3.926  28.057  53.781  1.00  0.00     0.096 A 
ENDBRANCH  11  12
ENDBRANCH   7  11
ENDBRANCH   5   7
BRANCH   1  22
HETATM   22  C   UNK A   0       7.940  25.242  56.789  1.00  0.00     0.036 A 
HETATM   23  C   UNK A   0       6.708  24.763  56.353  1.00  0.00     0.030 A 
HETATM   24  C   UNK A   0       6.639  23.614  55.556  1.00  0.00     0.018 A 
HETATM   25  C   UNK A   0       7.802  22.911  55.206  1.00  0.00     0.015 A 
HETATM   26  C   UNK A   0       9.048  23.346  55.694  1.00  0.00    -0.046 A 
HETATM   27  C   UNK A   0      10.339  22.638  55.380  1.00  0.00     0.049 C 
HETATM   28  C   UNK A   0       9.096  24.510  56.483  1.00  0.00     0.037 A 
BRANCH  25  29
HETATM   29  C   UNK A   0       7.689  21.727  54.301  1.00  0.00     0.156 C 
HETATM   30  C   UNK A   0       7.694  20.352  54.916  1.00  0.00     0.097 C 
HETATM   31  O   UNK A   0       7.562  21.878  53.089  1.00  0.00    -0.293 OA
ENDBRANCH  25  29
ENDBRANCH   1  22
TORSDOF 7
ENDMDL
MODEL 10
REMARK VINA RESULT:      -8.2      4.046      5.802
REMARK  7 active torsions:
REMARK  status: ('A' for Active; 'I' for Inactive)
REMARK    1  A    between atoms: C_3  and  C_4 
REMARK    2  A    between atoms: C_9  and  N_10 
REMARK       I    between atoms: N_10  and  C_11 
REMARK       I    between atoms: C_11  and  N_15 
REMARK    3  A    between atoms: N_15  and  CA_16 
REMARK    4  A    between atoms: CA_16  and  C_17 
REMARK    5  A    between atoms: CA_16  and  CB_19 
REMARK    6  A    between atoms: C_17  and  O_18 
REMARK    7  A    between atoms: CB_19  and  CG_20 
ROOT
HETATM    1  N   UNK A   0       4.462  26.662  51.862  1.00  0.00    -0.309 N 
HETATM    2  C   UNK A   0       4.720  25.957  52.995  1.00  0.00     0.321 C 
HETATM    3  O   UNK A   0       4.331  24.791  53.067  1.00  0.00    -0.247 OA
HETATM    4  H   UNK A   0       4.095  26.044  51.149  1.00  0.00     0.170 HD
ATOM      5  N   TRP A   1       5.453  26.544  53.973  1.00  0.00    -0.336 N 
ATOM      6  H   TRP A   1       6.042  27.322  53.714  1.00  0.00     0.164 HD
ENDROOT
BRANCH   5   7
ATOM      7  CA  TRP A   1       6.001  25.769  55.085  1.00  0.00     0.114 C 
BRANCH   7   8
ATOM      8  C   TRP A   1       5.787  26.519  56.411  1.00  0.00     0.189 C 
BRANCH   8   9
ATOM      9  O   TRP A   1       4.479  26.291  56.936  1.00  0.00    -0.399 OA
ATOM     10  H   TRP A   1       3.845  26.588  56.262  1.00  0.00     0.209 HD
ENDBRANCH   8   9
ENDBRANCH   7   8
BRANCH   7  11
ATOM     11  CB  TRP A   1       7.467  25.342  54.819  1.00  0.00     0.068 C 
BRANCH  11  12
ATOM     12  CG  TRP A   1       7.676  23.951  54.287  1.00  0.00    -0.028 A 
ATOM     13  CD2 TRP A   1       7.972  22.754  55.021  1.00  0.00    -0.002 A 
ATOM     14  CE2 TRP A   1       8.048  21.708  54.100  1.00  0.00     0.042 A 
ATOM     15  CE3 TRP A   1       8.179  22.451  56.383  1.00  0.00     0.014 A 
ATOM     16  CZ2 TRP A   1       8.287  20.379  54.472  1.00  0.00     0.030 A 
ATOM     17  NE1 TRP A   1       7.857  22.250  52.852  1.00  0.00    -0.365 N 
ATOM     18  CH2 TRP A   1       8.453  20.106  55.832  1.00  0.00     0.002 A 
ATOM     19  CZ3 TRP A   1       8.403  21.127  56.777  1.00  0.00     0.001 A 
ATOM     20  HE1 TRP A   1       7.882  21.724  51.990  1.00  0.00     0.165 HD
ATOM     21  CD1 TRP A   1       7.636  23.596  52.950  1.00  0.00     0.096 A 
ENDBRANCH  11  12
ENDBRANCH   7  11
ENDBRANCH   5   7
BRANCH   1  22
HETATM   22  C   UNK A   0       4.674  27.998  51.487  1.00  0.00     0.036 A 
HETATM   23  C   UNK A   0       5.511  28.407  50.452  1.00  0.00     0.030 A 
HETATM   24  C   UNK A   0       5.607  29.762  50.116  1.00  0.00     0.018 A 
HETATM   25  C   UNK A   0       4.888  30.733  50.829  1.00  0.00     0.015 A 
HETATM   26  C   UNK A   0       4.089  30.341  51.919  1.00  0.00    -0.046 A 
HETATM   27  C   UNK A   0       3.301  31.321  52.746  1.00  0.00     0.049 C 
HETATM   28  C   UNK A   0       3.997  28.972  52.233  1.00  0.00     0.037 A 
BRANCH  25  29
HETATM   29  C   UNK A   0       4.969  32.160  50.396  1.00  0.00     0.156 C 
HETATM   30  C   UNK A   0       3.974  32.660  49.381  1.00  0.00     0.097 C 
HETATM   31  O   UNK A   0       5.809  32.913  50.883  1.00  0.00    -0.293 OA
ENDBRANCH  25  29
ENDBRANCH   1  22
TORSDOF 7
ENDMDL
