MODEL 1
REMARK VINA RESULT:     -11.1      0.000      0.000
REMARK  7 active torsions:
REMARK  status: ('A' for Active; 'I' for Inactive)
REMARK    1  A    between atoms: O_2  and  C_3 
REMARK    2  A    between atoms: C_5  and  C_6 
REMARK       I    between atoms: C_6  and  N_7 
REMARK    3  A    between atoms: N_7  and  C_8 
REMARK    4  A    between atoms: C_8  and  N_9 
REMARK    5  A    between atoms: N_9  and  C_10 
REMARK    6  A    between atoms: C_13  and  N_14 
REMARK       I    between atoms: N_17  and  C_18 
REMARK    7  A    between atoms: C_18  and  C_19 
ROOT
HETATM    1  C   UNL     1       7.591  30.649  58.720  1.00  0.00     0.034 A 
HETATM    2  C   UNL     1       8.743  29.967  58.337  1.00  0.00     0.032 A 
HETATM    3  C   UNL     1       8.692  28.950  57.370  1.00  0.00     0.031 A 
HETATM    4  C   UNL     1       7.489  28.561  56.760  1.00  0.00     0.030 A 
HETATM    5  C   UNL     1       6.343  29.271  57.162  1.00  0.00     0.031 A 
HETATM    6  C   UNL     1       6.388  30.307  58.111  1.00  0.00     0.032 A 
ENDROOT
BRANCH   1   7
HETATM    7  N   UNL     1       7.700  31.556  59.799  1.00  0.00    -0.333 N 
HETATM    8  H   UNL     1       7.905  32.507  59.512  1.00  0.00     0.168 HD
BRANCH   7   9
HETATM    9  C   UNL     1       8.014  31.286  61.087  1.00  0.00     0.179 C 
HETATM   10  S   UNL     1       9.621  31.116  61.523  1.00  0.00    -0.040 SA
BRANCH   9  11
HETATM   11  N   UNL     1       7.066  31.224  62.063  1.00  0.00    -0.299 N 
HETATM   12  C   UNL     1       6.113  32.226  62.200  1.00  0.00     0.257 C 
HETATM   13  O   UNL     1       5.314  32.545  61.327  1.00  0.00    -0.267 OA
HETATM   14  H   UNL     1       7.500  30.935  62.925  1.00  0.00     0.171 HD
BRANCH  12  15
HETATM   15  C   UNL     1       6.011  32.890  63.546  1.00  0.00     0.035 A 
HETATM   16  C   UNL     1       4.792  33.223  64.156  1.00  0.00     0.053 A 
HETATM   17  C   UNL     1       4.760  33.814  65.427  1.00  0.00     0.069 A 
HETATM   18  C   UNL     1       5.952  34.053  66.107  1.00  0.00     0.037 A 
HETATM   19  C   UNL     1       7.170  33.708  65.519  1.00  0.00     0.004 A 
HETATM   20  C   UNL     1       7.200  33.134  64.248  1.00  0.00     0.017 A 
BRANCH  17  21
HETATM   21  O   UNL     1       3.503  34.097  65.885  1.00  0.00    -0.356 OA
HETATM   22  C   UNL     1       3.306  35.369  66.493  1.00  0.00     0.210 C 
ENDBRANCH  17  21
ENDBRANCH  12  15
ENDBRANCH   9  11
ENDBRANCH   7   9
ENDBRANCH   1   7
BRANCH   4  23
HETATM   23  N   UNL     1       7.396  27.479  55.868  1.00  0.00    -0.378 N 
HETATM   24  C   UNL     1       7.640  26.114  56.392  1.00  0.00     0.143 C 
HETATM   25  C   UNL     1       7.198  25.032  55.389  1.00  0.00     0.146 C 
HETATM   26  N   UNL     1       7.747  25.246  54.044  1.00  0.00    -0.345 N 
HETATM   27  C   UNL     1       7.816  24.221  53.100  1.00  0.00     0.253 C 
HETATM   28  C   UNL     1       7.526  26.601  53.535  1.00  0.00     0.146 C 
HETATM   29  O   UNL     1       7.674  24.404  51.892  1.00  0.00    -0.267 OA
HETATM   30  C   UNL     1       7.988  27.689  54.521  1.00  0.00     0.143 C 
BRANCH  27  31
HETATM   31  C   UNL     1       8.124  22.844  53.558  1.00  0.00     0.032 A 
HETATM   32  C   UNL     1       7.691  21.760  52.790  1.00  0.00     0.017 A 
HETATM   33  C   UNL     1       8.015  20.459  53.180  1.00  0.00     0.001 A 
HETATM   34  C   UNL     1       8.783  20.246  54.325  1.00  0.00     0.000 A 
HETATM   35  C   UNL     1       9.237  21.329  55.079  1.00  0.00     0.001 A 
HETATM   36  C   UNL     1       8.916  22.632  54.692  1.00  0.00     0.017 A 
ENDBRANCH  27  31
ENDBRANCH   4  23
TORSDOF 7
ENDMDL
MODEL 2
REMARK VINA RESULT:     -10.8      2.727      4.071
REMARK  7 active torsions:
REMARK  status: ('A' for Active; 'I' for Inactive)
REMARK    1  A    between atoms: O_2  and  C_3 
REMARK    2  A    between atoms: C_5  and  C_6 
REMARK       I    between atoms: C_6  and  N_7 
REMARK    3  A    between atoms: N_7  and  C_8 
REMARK    4  A    between atoms: C_8  and  N_9 
REMARK    5  A    between atoms: N_9  and  C_10 
REMARK    6  A    between atoms: C_13  and  N_14 
REMARK       I    between atoms: N_17  and  C_18 
REMARK    7  A    between atoms: C_18  and  C_19 
ROOT
HETATM    1  C   UNL     1       4.697  31.427  58.001  1.00  0.00     0.034 A 
HETATM    2  C   UNL     1       3.761  30.549  57.460  1.00  0.00     0.032 A 
HETATM    3  C   UNL     1       4.166  29.450  56.687  1.00  0.00     0.031 A 
HETATM    4  C   UNL     1       5.517  29.192  56.407  1.00  0.00     0.030 A 
HETATM    5  C   UNL     1       6.440  30.091  56.972  1.00  0.00     0.031 A 
HETATM    6  C   UNL     1       6.046  31.181  57.767  1.00  0.00     0.032 A 
ENDROOT
BRANCH   1   7
HETATM    7  N   UNL     1       4.206  32.586  58.645  1.00  0.00    -0.333 N 
HETATM    8  H   UNL     1       4.399  33.445  58.141  1.00  0.00     0.168 HD
BRANCH   7   9
HETATM    9  C   UNL     1       3.949  32.763  59.962  1.00  0.00     0.179 C 
HETATM   10  S   UNL     1       2.572  33.594  60.426  1.00  0.00    -0.040 SA
BRANCH   9  11
HETATM   11  N   UNL     1       4.737  32.220  60.931  1.00  0.00    -0.299 N 
HETATM   12  C   UNL     1       5.831  32.912  61.435  1.00  0.00     0.257 C 
HETATM   13  O   UNL     1       5.763  34.006  61.986  1.00  0.00    -0.267 OA
HETATM   14  H   UNL     1       4.916  31.255  60.704  1.00  0.00     0.171 HD
BRANCH  12  15
HETATM   15  C   UNL     1       7.164  32.219  61.375  1.00  0.00     0.035 A 
HETATM   16  C   UNL     1       8.129  32.477  60.390  1.00  0.00     0.053 A 
HETATM   17  C   UNL     1       9.367  31.820  60.404  1.00  0.00     0.069 A 
HETATM   18  C   UNL     1       9.656  30.914  61.423  1.00  0.00     0.037 A 
HETATM   19  C   UNL     1       8.711  30.662  62.419  1.00  0.00     0.004 A 
HETATM   20  C   UNL     1       7.474  31.308  62.394  1.00  0.00     0.017 A 
BRANCH  17  21
HETATM   21  O   UNL     1      10.198  32.161  59.373  1.00  0.00    -0.356 OA
HETATM   22  C   UNL     1      10.140  31.356  58.201  1.00  0.00     0.210 C 
ENDBRANCH  17  21
ENDBRANCH  12  15
ENDBRANCH   9  11
ENDBRANCH   7   9
ENDBRANCH   1   7
BRANCH   4  23
HETATM   23  N   UNL     1       5.940  28.160  55.552  1.00  0.00    -0.378 N 
HETATM   24  C   UNL     1       5.970  26.777  56.082  1.00  0.00     0.143 C 
HETATM   25  C   UNL     1       6.146  25.739  54.957  1.00  0.00     0.146 C 
HETATM   26  N   UNL     1       7.275  26.048  54.070  1.00  0.00    -0.345 N 
HETATM   27  C   UNL     1       7.861  25.082  53.252  1.00  0.00     0.253 C 
HETATM   28  C   UNL     1       7.258  27.422  53.564  1.00  0.00     0.146 C 
HETATM   29  O   UNL     1       8.325  25.329  52.141  1.00  0.00    -0.267 OA
HETATM   30  C   UNL     1       7.108  28.467  54.685  1.00  0.00     0.143 C 
BRANCH  27  31
HETATM   31  C   UNL     1       7.981  23.692  53.757  1.00  0.00     0.032 A 
HETATM   32  C   UNL     1       7.701  22.629  52.893  1.00  0.00     0.017 A 
HETATM   33  C   UNL     1       7.857  21.315  53.336  1.00  0.00     0.001 A 
HETATM   34  C   UNL     1       8.305  21.066  54.634  1.00  0.00     0.000 A 
HETATM   35  C   UNL     1       8.607  22.126  55.490  1.00  0.00     0.001 A 
HETATM   36  C   UNL     1       8.454  23.442  55.050  1.00  0.00     0.017 A 
ENDBRANCH  27  31
ENDBRANCH   4  23
TORSDOF 7
ENDMDL
MODEL 3
REMARK VINA RESULT:     -10.8      1.670      2.009
REMARK  7 active torsions:
REMARK  status: ('A' for Active; 'I' for Inactive)
REMARK    1  A    between atoms: O_2  and  C_3 
REMARK    2  A    between atoms: C_5  and  C_6 
REMARK       I    between atoms: C_6  and  N_7 
REMARK    3  A    between atoms: N_7  and  C_8 
REMARK    4  A    between atoms: C_8  and  N_9 
REMARK    5  A    between atoms: N_9  and  C_10 
REMARK    6  A    between atoms: C_13  and  N_14 
REMARK       I    between atoms: N_17  and  C_18 
REMARK    7  A    between atoms: C_18  and  C_19 
ROOT
HETATM    1  C   UNL     1       5.372  31.018  57.758  1.00  0.00     0.034 A 
HETATM    2  C   UNL     1       4.387  30.416  56.978  1.00  0.00     0.032 A 
HETATM    3  C   UNL     1       4.661  29.253  56.242  1.00  0.00     0.031 A 
HETATM    4  C   UNL     1       5.929  28.653  56.240  1.00  0.00     0.030 A 
HETATM    5  C   UNL     1       6.902  29.279  57.041  1.00  0.00     0.031 A 
HETATM    6  C   UNL     1       6.631  30.430  57.800  1.00  0.00     0.032 A 
ENDROOT
BRANCH   1   7
HETATM    7  N   UNL     1       5.060  32.262  58.353  1.00  0.00    -0.333 N 
HETATM    8  H   UNL     1       5.396  33.061  57.827  1.00  0.00     0.168 HD
BRANCH   7   9
HETATM    9  C   UNL     1       4.813  32.524  59.658  1.00  0.00     0.179 C 
HETATM   10  S   UNL     1       3.380  31.997  60.344  1.00  0.00    -0.040 SA
BRANCH   9  11
HETATM   11  N   UNL     1       5.728  33.139  60.457  1.00  0.00    -0.299 N 
HETATM   12  C   UNL     1       6.459  32.419  61.393  1.00  0.00     0.257 C 
HETATM   13  O   UNL     1       7.203  31.482  61.119  1.00  0.00    -0.267 OA
HETATM   14  H   UNL     1       5.336  34.001  60.801  1.00  0.00     0.171 HD
BRANCH  12  15
HETATM   15  C   UNL     1       6.392  32.889  62.820  1.00  0.00     0.035 A 
HETATM   16  C   UNL     1       5.190  33.115  63.508  1.00  0.00     0.053 A 
HETATM   17  C   UNL     1       5.193  33.524  64.848  1.00  0.00     0.069 A 
HETATM   18  C   UNL     1       6.404  33.689  65.518  1.00  0.00     0.037 A 
HETATM   19  C   UNL     1       7.606  33.450  64.850  1.00  0.00     0.004 A 
HETATM   20  C   UNL     1       7.600  33.056  63.512  1.00  0.00     0.017 A 
BRANCH  17  21
HETATM   21  O   UNL     1       3.948  33.720  65.380  1.00  0.00    -0.356 OA
HETATM   22  C   UNL     1       3.812  34.756  66.346  1.00  0.00     0.210 C 
ENDBRANCH  17  21
ENDBRANCH  12  15
ENDBRANCH   9  11
ENDBRANCH   7   9
ENDBRANCH   1   7
BRANCH   4  23
HETATM   23  N   UNL     1       6.256  27.550  55.432  1.00  0.00    -0.378 N 
HETATM   24  C   UNL     1       6.376  26.220  56.074  1.00  0.00     0.143 C 
HETATM   25  C   UNL     1       6.422  25.087  55.033  1.00  0.00     0.146 C 
HETATM   26  N   UNL     1       7.422  25.320  53.983  1.00  0.00    -0.345 N 
HETATM   27  C   UNL     1       7.914  24.286  53.185  1.00  0.00     0.253 C 
HETATM   28  C   UNL     1       7.317  26.642  53.363  1.00  0.00     0.146 C 
HETATM   29  O   UNL     1       8.226  24.434  52.005  1.00  0.00    -0.267 OA
HETATM   30  C   UNL     1       7.296  27.783  54.396  1.00  0.00     0.143 C 
BRANCH  27  31
HETATM   31  C   UNL     1       8.120  22.948  53.790  1.00  0.00     0.032 A 
HETATM   32  C   UNL     1       7.737  21.811  53.073  1.00  0.00     0.017 A 
HETATM   33  C   UNL     1       7.971  20.542  53.608  1.00  0.00     0.001 A 
HETATM   34  C   UNL     1       8.598  20.413  54.848  1.00  0.00     0.000 A 
HETATM   35  C   UNL     1       9.002  21.547  55.553  1.00  0.00     0.001 A 
HETATM   36  C   UNL     1       8.772  22.817  55.022  1.00  0.00     0.017 A 
ENDBRANCH  27  31
ENDBRANCH   4  23
TORSDOF 7
ENDMDL
MODEL 4
REMARK VINA RESULT:     -10.3      2.630     12.425
REMARK  7 active torsions:
REMARK  status: ('A' for Active; 'I' for Inactive)
REMARK    1  A    between atoms: O_2  and  C_3 
REMARK    2  A    between atoms: C_5  and  C_6 
REMARK       I    between atoms: C_6  and  N_7 
REMARK    3  A    between atoms: N_7  and  C_8 
REMARK    4  A    between atoms: C_8  and  N_9 
REMARK    5  A    between atoms: N_9  and  C_10 
REMARK    6  A    between atoms: C_13  and  N_14 
REMARK       I    between atoms: N_17  and  C_18 
REMARK    7  A    between atoms: C_18  and  C_19 
ROOT
HETATM    1  C   UNL     1       7.645  29.228  55.865  1.00  0.00     0.034 A 
HETATM    2  C   UNL     1       6.413  29.779  56.211  1.00  0.00     0.032 A 
HETATM    3  C   UNL     1       6.244  30.461  57.426  1.00  0.00     0.031 A 
HETATM    4  C   UNL     1       7.289  30.607  58.351  1.00  0.00     0.030 A 
HETATM    5  C   UNL     1       8.523  30.047  57.972  1.00  0.00     0.031 A 
HETATM    6  C   UNL     1       8.709  29.382  56.747  1.00  0.00     0.032 A 
ENDROOT
BRANCH   1   7
HETATM    7  N   UNL     1       7.699  28.435  54.695  1.00  0.00    -0.333 N 
HETATM    8  H   UNL     1       8.470  28.668  54.080  1.00  0.00     0.168 HD
BRANCH   7   9
HETATM    9  C   UNL     1       6.684  27.778  54.086  1.00  0.00     0.179 C 
HETATM   10  S   UNL     1       5.939  28.469  52.756  1.00  0.00    -0.040 SA
BRANCH   9  11
HETATM   11  N   UNL     1       6.296  26.532  54.473  1.00  0.00    -0.299 N 
HETATM   12  C   UNL     1       7.136  25.724  55.229  1.00  0.00     0.257 C 
HETATM   13  O   UNL     1       7.573  26.023  56.336  1.00  0.00    -0.267 OA
HETATM   14  H   UNL     1       5.855  26.069  53.695  1.00  0.00     0.171 HD
BRANCH  12  15
HETATM   15  C   UNL     1       7.446  24.359  54.680  1.00  0.00     0.035 A 
HETATM   16  C   UNL     1       7.456  23.192  55.458  1.00  0.00     0.053 A 
HETATM   17  C   UNL     1       7.722  21.942  54.882  1.00  0.00     0.069 A 
HETATM   18  C   UNL     1       7.959  21.851  53.512  1.00  0.00     0.037 A 
HETATM   19  C   UNL     1       7.933  23.001  52.722  1.00  0.00     0.004 A 
HETATM   20  C   UNL     1       7.681  24.245  53.302  1.00  0.00     0.017 A 
BRANCH  17  21
HETATM   21  O   UNL     1       7.714  20.900  55.767  1.00  0.00    -0.356 OA
HETATM   22  C   UNL     1       8.971  20.320  56.097  1.00  0.00     0.210 C 
ENDBRANCH  17  21
ENDBRANCH  12  15
ENDBRANCH   9  11
ENDBRANCH   7   9
ENDBRANCH   1   7
BRANCH   4  23
HETATM   23  N   UNL     1       7.117  31.194  59.617  1.00  0.00    -0.378 N 
HETATM   24  C   UNL     1       5.999  32.148  59.802  1.00  0.00     0.143 C 
HETATM   25  C   UNL     1       5.752  32.455  61.290  1.00  0.00     0.146 C 
HETATM   26  N   UNL     1       6.976  32.848  62.000  1.00  0.00    -0.345 N 
HETATM   27  C   UNL     1       6.942  33.538  63.212  1.00  0.00     0.253 C 
HETATM   28  C   UNL     1       8.088  31.917  61.799  1.00  0.00     0.146 C 
HETATM   29  O   UNL     1       7.771  33.376  64.105  1.00  0.00    -0.267 OA
HETATM   30  C   UNL     1       8.358  31.624  60.312  1.00  0.00     0.143 C 
BRANCH  27  31
HETATM   31  C   UNL     1       5.885  34.555  63.428  1.00  0.00     0.032 A 
HETATM   32  C   UNL     1       4.894  34.313  64.384  1.00  0.00     0.017 A 
HETATM   33  C   UNL     1       3.921  35.282  64.636  1.00  0.00     0.001 A 
HETATM   34  C   UNL     1       3.948  36.494  63.944  1.00  0.00     0.000 A 
HETATM   35  C   UNL     1       4.950  36.746  63.007  1.00  0.00     0.001 A 
HETATM   36  C   UNL     1       5.927  35.781  62.753  1.00  0.00     0.017 A 
ENDBRANCH  27  31
ENDBRANCH   4  23
TORSDOF 7
ENDMDL
MODEL 5
REMARK VINA RESULT:     -10.0      2.197      3.453
REMARK  7 active torsions:
REMARK  status: ('A' for Active; 'I' for Inactive)
REMARK    1  A    between atoms: O_2  and  C_3 
REMARK    2  A    between atoms: C_5  and  C_6 
REMARK       I    between atoms: C_6  and  N_7 
REMARK    3  A    between atoms: N_7  and  C_8 
REMARK    4  A    between atoms: C_8  and  N_9 
REMARK    5  A    between atoms: N_9  and  C_10 
REMARK    6  A    between atoms: C_13  and  N_14 
REMARK       I    between atoms: N_17  and  C_18 
REMARK    7  A    between atoms: C_18  and  C_19 
ROOT
HETATM    1  C   UNL     1       3.999  30.399  57.437  1.00  0.00     0.034 A 
HETATM    2  C   UNL     1       3.437  30.100  56.197  1.00  0.00     0.032 A 
HETATM    3  C   UNL     1       3.913  29.026  55.430  1.00  0.00     0.031 A 
HETATM    4  C   UNL     1       4.978  28.218  55.858  1.00  0.00     0.030 A 
HETATM    5  C   UNL     1       5.521  28.538  57.116  1.00  0.00     0.031 A 
HETATM    6  C   UNL     1       5.035  29.597  57.903  1.00  0.00     0.032 A 
ENDROOT
BRANCH   1   7
HETATM    7  N   UNL     1       3.562  31.579  58.082  1.00  0.00    -0.333 N 
HETATM    8  H   UNL     1       2.864  32.095  57.559  1.00  0.00     0.168 HD
BRANCH   7   9
HETATM    9  C   UNL     1       4.222  32.319  59.003  1.00  0.00     0.179 C 
HETATM   10  S   UNL     1       4.706  33.874  58.615  1.00  0.00    -0.040 SA
BRANCH   9  11
HETATM   11  N   UNL     1       4.441  31.868  60.269  1.00  0.00    -0.299 N 
HETATM   12  C   UNL     1       4.461  32.744  61.347  1.00  0.00     0.257 C 
HETATM   13  O   UNL     1       3.521  33.460  61.674  1.00  0.00    -0.267 OA
HETATM   14  H   UNL     1       5.196  31.201  60.254  1.00  0.00     0.171 HD
BRANCH  12  15
HETATM   15  C   UNL     1       5.692  32.734  62.212  1.00  0.00     0.035 A 
HETATM   16  C   UNL     1       6.928  32.216  61.797  1.00  0.00     0.053 A 
HETATM   17  C   UNL     1       8.048  32.262  62.638  1.00  0.00     0.069 A 
HETATM   18  C   UNL     1       7.942  32.852  63.896  1.00  0.00     0.037 A 
HETATM   19  C   UNL     1       6.723  33.389  64.314  1.00  0.00     0.004 A 
HETATM   20  C   UNL     1       5.607  33.328  63.479  1.00  0.00     0.017 A 
BRANCH  17  21
HETATM   21  O   UNL     1       9.177  31.704  62.105  1.00  0.00    -0.356 OA
HETATM   22  C   UNL     1       9.002  30.796  61.023  1.00  0.00     0.210 C 
ENDBRANCH  17  21
ENDBRANCH  12  15
ENDBRANCH   9  11
ENDBRANCH   7   9
ENDBRANCH   1   7
BRANCH   4  23
HETATM   23  N   UNL     1       5.539  27.203  55.063  1.00  0.00    -0.378 N 
HETATM   24  C   UNL     1       5.770  25.875  55.679  1.00  0.00     0.143 C 
HETATM   25  C   UNL     1       6.085  24.803  54.619  1.00  0.00     0.146 C 
HETATM   26  N   UNL     1       7.153  25.212  53.698  1.00  0.00    -0.345 N 
HETATM   27  C   UNL     1       7.866  24.287  52.934  1.00  0.00     0.253 C 
HETATM   28  C   UNL     1       6.936  26.533  53.106  1.00  0.00     0.146 C 
HETATM   29  O   UNL     1       8.283  24.526  51.802  1.00  0.00    -0.267 OA
HETATM   30  C   UNL     1       6.646  27.616  54.161  1.00  0.00     0.143 C 
BRANCH  27  31
HETATM   31  C   UNL     1       8.187  22.965  53.523  1.00  0.00     0.032 A 
HETATM   32  C   UNL     1       8.828  22.911  54.764  1.00  0.00     0.017 A 
HETATM   33  C   UNL     1       9.092  21.674  55.356  1.00  0.00     0.001 A 
HETATM   34  C   UNL     1       8.702  20.497  54.715  1.00  0.00     0.000 A 
HETATM   35  C   UNL     1       8.040  20.551  53.488  1.00  0.00     0.001 A 
HETATM   36  C   UNL     1       7.772  21.785  52.893  1.00  0.00     0.017 A 
ENDBRANCH  27  31
ENDBRANCH   4  23
TORSDOF 7
ENDMDL
MODEL 6
REMARK VINA RESULT:      -9.8      2.591     12.891
REMARK  7 active torsions:
REMARK  status: ('A' for Active; 'I' for Inactive)
REMARK    1  A    between atoms: O_2  and  C_3 
REMARK    2  A    between atoms: C_5  and  C_6 
REMARK       I    between atoms: C_6  and  N_7 
REMARK    3  A    between atoms: N_7  and  C_8 
REMARK    4  A    between atoms: C_8  and  N_9 
REMARK    5  A    between atoms: N_9  and  C_10 
REMARK    6  A    between atoms: C_13  and  N_14 
REMARK       I    between atoms: N_17  and  C_18 
REMARK    7  A    between atoms: C_18  and  C_19 
ROOT
HETATM    1  C   UNL     1       7.817  29.487  58.077  1.00  0.00     0.034 A 
HETATM    2  C   UNL     1       6.593  30.018  57.675  1.00  0.00     0.032 A 
HETATM    3  C   UNL     1       6.045  31.136  58.322  1.00  0.00     0.031 A 
HETATM    4  C   UNL     1       6.685  31.760  59.404  1.00  0.00     0.030 A 
HETATM    5  C   UNL     1       7.921  31.207  59.784  1.00  0.00     0.031 A 
HETATM    6  C   UNL     1       8.490  30.101  59.128  1.00  0.00     0.032 A 
ENDROOT
BRANCH   1   7
HETATM    7  N   UNL     1       8.232  28.278  57.473  1.00  0.00    -0.333 N 
HETATM    8  H   UNL     1       9.102  27.915  57.845  1.00  0.00     0.168 HD
BRANCH   7   9
HETATM    9  C   UNL     1       7.917  27.808  56.244  1.00  0.00     0.179 C 
HETATM   10  S   UNL     1       8.414  28.654  54.888  1.00  0.00    -0.040 SA
BRANCH   9  11
HETATM   11  N   UNL     1       7.269  26.623  56.068  1.00  0.00    -0.299 N 
HETATM   12  C   UNL     1       7.848  25.425  56.470  1.00  0.00     0.257 C 
HETATM   13  O   UNL     1       8.180  25.170  57.623  1.00  0.00    -0.267 OA
HETATM   14  H   UNL     1       6.861  26.606  55.147  1.00  0.00     0.171 HD
BRANCH  12  15
HETATM   15  C   UNL     1       7.985  24.350  55.427  1.00  0.00     0.035 A 
HETATM   16  C   UNL     1       8.580  23.103  55.672  1.00  0.00     0.053 A 
HETATM   17  C   UNL     1       8.651  22.129  54.667  1.00  0.00     0.069 A 
HETATM   18  C   UNL     1       8.104  22.391  53.412  1.00  0.00     0.037 A 
HETATM   19  C   UNL     1       7.493  23.620  53.162  1.00  0.00     0.004 A 
HETATM   20  C   UNL     1       7.436  24.593  54.160  1.00  0.00     0.017 A 
BRANCH  17  21
HETATM   21  O   UNL     1       9.272  20.971  55.047  1.00  0.00    -0.356 OA
HETATM   22  C   UNL     1       8.451  19.942  55.586  1.00  0.00     0.210 C 
ENDBRANCH  17  21
ENDBRANCH  12  15
ENDBRANCH   9  11
ENDBRANCH   7   9
ENDBRANCH   1   7
BRANCH   4  23
HETATM   23  N   UNL     1       6.107  32.814  60.132  1.00  0.00    -0.378 N 
HETATM   24  C   UNL     1       6.356  32.879  61.592  1.00  0.00     0.143 C 
HETATM   25  C   UNL     1       5.932  34.236  62.183  1.00  0.00     0.146 C 
HETATM   26  N   UNL     1       4.564  34.616  61.808  1.00  0.00    -0.345 N 
HETATM   27  C   UNL     1       3.838  35.571  62.521  1.00  0.00     0.253 C 
HETATM   28  C   UNL     1       4.311  34.532  60.368  1.00  0.00     0.146 C 
HETATM   29  O   UNL     1       3.038  36.342  61.995  1.00  0.00    -0.267 OA
HETATM   30  C   UNL     1       4.709  33.169  59.774  1.00  0.00     0.143 C 
BRANCH  27  31
HETATM   31  C   UNL     1       3.995  35.638  63.994  1.00  0.00     0.032 A 
HETATM   32  C   UNL     1       4.646  36.739  64.559  1.00  0.00     0.017 A 
HETATM   33  C   UNL     1       4.758  36.842  65.947  1.00  0.00     0.001 A 
HETATM   34  C   UNL     1       4.207  35.855  66.766  1.00  0.00     0.000 A 
HETATM   35  C   UNL     1       3.537  34.769  66.204  1.00  0.00     0.001 A 
HETATM   36  C   UNL     1       3.421  34.662  64.816  1.00  0.00     0.017 A 
ENDBRANCH  27  31
ENDBRANCH   4  23
TORSDOF 7
ENDMDL
MODEL 7
REMARK VINA RESULT:      -9.7      3.170     11.580
REMARK  7 active torsions:
REMARK  status: ('A' for Active; 'I' for Inactive)
REMARK    1  A    between atoms: O_2  and  C_3 
REMARK    2  A    between atoms: C_5  and  C_6 
REMARK       I    between atoms: C_6  and  N_7 
REMARK    3  A    between atoms: N_7  and  C_8 
REMARK    4  A    between atoms: C_8  and  N_9 
REMARK    5  A    between atoms: N_9  and  C_10 
REMARK    6  A    between atoms: C_13  and  N_14 
REMARK       I    between atoms: N_17  and  C_18 
REMARK    7  A    between atoms: C_18  and  C_19 
ROOT
HETATM    1  C   UNL     1       4.644  28.451  54.041  1.00  0.00     0.034 A 
HETATM    2  C   UNL     1       4.152  29.753  53.980  1.00  0.00     0.032 A 
HETATM    3  C   UNL     1       4.219  30.602  55.096  1.00  0.00     0.031 A 
HETATM    4  C   UNL     1       4.764  30.183  56.320  1.00  0.00     0.030 A 
HETATM    5  C   UNL     1       5.259  28.866  56.350  1.00  0.00     0.031 A 
HETATM    6  C   UNL     1       5.217  28.016  55.231  1.00  0.00     0.032 A 
ENDROOT
BRANCH   1   7
HETATM    7  N   UNL     1       4.410  27.614  52.925  1.00  0.00    -0.333 N 
HETATM    8  H   UNL     1       3.749  26.867  53.108  1.00  0.00     0.168 HD
BRANCH   7   9
HETATM    9  C   UNL     1       5.223  27.387  51.867  1.00  0.00     0.179 C 
HETATM   10  S   UNL     1       5.377  28.560  50.683  1.00  0.00    -0.040 SA
BRANCH   9  11
HETATM   11  N   UNL     1       5.985  26.263  51.770  1.00  0.00    -0.299 N 
HETATM   12  C   UNL     1       5.580  25.071  52.360  1.00  0.00     0.257 C 
HETATM   13  O   UNL     1       4.534  24.488  52.093  1.00  0.00    -0.267 OA
HETATM   14  H   UNL     1       6.949  26.505  51.929  1.00  0.00     0.171 HD
BRANCH  12  15
HETATM   15  C   UNL     1       6.541  24.423  53.317  1.00  0.00     0.035 A 
HETATM   16  C   UNL     1       6.490  24.600  54.708  1.00  0.00     0.053 A 
HETATM   17  C   UNL     1       7.396  23.943  55.552  1.00  0.00     0.069 A 
HETATM   18  C   UNL     1       8.348  23.083  55.008  1.00  0.00     0.037 A 
HETATM   19  C   UNL     1       8.397  22.884  53.627  1.00  0.00     0.004 A 
HETATM   20  C   UNL     1       7.502  23.550  52.789  1.00  0.00     0.017 A 
BRANCH  17  21
HETATM   21  O   UNL     1       7.235  24.226  56.881  1.00  0.00    -0.356 OA
HETATM   22  C   UNL     1       7.286  25.596  57.262  1.00  0.00     0.210 C 
ENDBRANCH  17  21
ENDBRANCH  12  15
ENDBRANCH   9  11
ENDBRANCH   7   9
ENDBRANCH   1   7
BRANCH   4  23
HETATM   23  N   UNL     1       4.749  30.979  57.479  1.00  0.00    -0.378 N 
HETATM   24  C   UNL     1       5.993  31.079  58.278  1.00  0.00     0.143 C 
HETATM   25  C   UNL     1       5.913  32.214  59.316  1.00  0.00     0.146 C 
HETATM   26  N   UNL     1       4.698  32.149  60.136  1.00  0.00    -0.345 N 
HETATM   27  C   UNL     1       4.596  32.803  61.365  1.00  0.00     0.253 C 
HETATM   28  C   UNL     1       3.470  32.028  59.348  1.00  0.00     0.146 C 
HETATM   29  O   UNL     1       3.550  33.293  61.784  1.00  0.00    -0.267 OA
HETATM   30  C   UNL     1       3.531  30.879  58.325  1.00  0.00     0.143 C 
BRANCH  27  31
HETATM   31  C   UNL     1       5.792  32.876  62.239  1.00  0.00     0.032 A 
HETATM   32  C   UNL     1       5.864  33.879  63.210  1.00  0.00     0.017 A 
HETATM   33  C   UNL     1       6.959  33.931  64.074  1.00  0.00     0.001 A 
HETATM   34  C   UNL     1       7.970  32.974  63.977  1.00  0.00     0.000 A 
HETATM   35  C   UNL     1       7.887  31.958  63.024  1.00  0.00     0.001 A 
HETATM   36  C   UNL     1       6.794  31.901  62.158  1.00  0.00     0.017 A 
ENDBRANCH  27  31
ENDBRANCH   4  23
TORSDOF 7
ENDMDL
MODEL 8
REMARK VINA RESULT:      -9.5      3.915      5.256
REMARK  7 active torsions:
REMARK  status: ('A' for Active; 'I' for Inactive)
REMARK    1  A    between atoms: O_2  and  C_3 
REMARK    2  A    between atoms: C_5  and  C_6 
REMARK       I    between atoms: C_6  and  N_7 
REMARK    3  A    between atoms: N_7  and  C_8 
REMARK    4  A    between atoms: C_8  and  N_9 
REMARK    5  A    between atoms: N_9  and  C_10 
REMARK    6  A    between atoms: C_13  and  N_14 
REMARK       I    between atoms: N_17  and  C_18 
REMARK    7  A    between atoms: C_18  and  C_19 
ROOT
HETATM    1  C   UNL     1       7.532  29.365  58.077  1.00  0.00     0.034 A 
HETATM    2  C   UNL     1       6.493  30.233  57.749  1.00  0.00     0.032 A 
HETATM    3  C   UNL     1       5.694  30.006  56.617  1.00  0.00     0.031 A 
HETATM    4  C   UNL     1       5.909  28.916  55.759  1.00  0.00     0.030 A 
HETATM    5  C   UNL     1       6.960  28.054  56.118  1.00  0.00     0.031 A 
HETATM    6  C   UNL     1       7.751  28.259  57.263  1.00  0.00     0.032 A 
ENDROOT
BRANCH   1   7
HETATM    7  N   UNL     1       8.380  29.739  59.145  1.00  0.00    -0.333 N 
HETATM    8  H   UNL     1       8.006  29.512  60.060  1.00  0.00     0.168 HD
BRANCH   7   9
HETATM    9  C   UNL     1       9.329  30.703  59.159  1.00  0.00     0.179 C 
HETATM   10  S   UNL     1      10.289  30.931  57.806  1.00  0.00    -0.040 SA
BRANCH   9  11
HETATM   11  N   UNL     1       9.481  31.552  60.213  1.00  0.00    -0.299 N 
HETATM   12  C   UNL     1       8.979  31.231  61.468  1.00  0.00     0.257 C 
HETATM   13  O   UNL     1       9.305  30.238  62.111  1.00  0.00    -0.267 OA
HETATM   14  H   UNL     1       9.286  32.492  59.908  1.00  0.00     0.171 HD
BRANCH  12  15
HETATM   15  C   UNL     1       8.044  32.223  62.102  1.00  0.00     0.035 A 
HETATM   16  C   UNL     1       7.045  32.910  61.396  1.00  0.00     0.053 A 
HETATM   17  C   UNL     1       6.183  33.801  62.050  1.00  0.00     0.069 A 
HETATM   18  C   UNL     1       6.302  33.993  63.425  1.00  0.00     0.037 A 
HETATM   19  C   UNL     1       7.279  33.302  64.142  1.00  0.00     0.004 A 
HETATM   20  C   UNL     1       8.145  32.426  63.486  1.00  0.00     0.017 A 
BRANCH  17  21
HETATM   21  O   UNL     1       5.272  34.408  61.230  1.00  0.00    -0.356 OA
HETATM   22  C   UNL     1       3.946  33.891  61.240  1.00  0.00     0.210 C 
ENDBRANCH  17  21
ENDBRANCH  12  15
ENDBRANCH   9  11
ENDBRANCH   7   9
ENDBRANCH   1   7
BRANCH   4  23
HETATM   23  N   UNL     1       5.190  28.726  54.566  1.00  0.00    -0.378 N 
HETATM   24  C   UNL     1       5.888  28.102  53.418  1.00  0.00     0.143 C 
HETATM   25  C   UNL     1       4.901  27.678  52.314  1.00  0.00     0.146 C 
HETATM   26  N   UNL     1       3.988  28.759  51.922  1.00  0.00    -0.345 N 
HETATM   27  C   UNL     1       3.299  28.745  50.709  1.00  0.00     0.253 C 
HETATM   28  C   UNL     1       3.315  29.391  53.059  1.00  0.00     0.146 C 
HETATM   29  O   UNL     1       2.167  29.205  50.570  1.00  0.00    -0.267 OA
HETATM   30  C   UNL     1       4.296  29.841  54.156  1.00  0.00     0.143 C 
BRANCH  27  31
HETATM   31  C   UNL     1       3.973  28.194  49.508  1.00  0.00     0.032 A 
HETATM   32  C   UNL     1       4.895  28.990  48.821  1.00  0.00     0.017 A 
HETATM   33  C   UNL     1       5.575  28.469  47.719  1.00  0.00     0.001 A 
HETATM   34  C   UNL     1       5.344  27.153  47.315  1.00  0.00     0.000 A 
HETATM   35  C   UNL     1       4.441  26.351  48.014  1.00  0.00     0.001 A 
HETATM   36  C   UNL     1       3.760  26.867  49.118  1.00  0.00     0.017 A 
ENDBRANCH  27  31
ENDBRANCH   4  23
TORSDOF 7
ENDMDL
MODEL 9
REMARK VINA RESULT:      -9.4      8.374     11.994
REMARK  7 active torsions:
REMARK  status: ('A' for Active; 'I' for Inactive)
REMARK    1  A    between atoms: O_2  and  C_3 
REMARK    2  A    between atoms: C_5  and  C_6 
REMARK       I    between atoms: C_6  and  N_7 
REMARK    3  A    between atoms: N_7  and  C_8 
REMARK    4  A    between atoms: C_8  and  N_9 
REMARK    5  A    between atoms: N_9  and  C_10 
REMARK    6  A    between atoms: C_13  and  N_14 
REMARK       I    between atoms: N_17  and  C_18 
REMARK    7  A    between atoms: C_18  and  C_19 
ROOT
HETATM    1  C   UNL     1       4.482  28.728  48.700  1.00  0.00     0.034 A 
HETATM    2  C   UNL     1       4.348  27.342  48.746  1.00  0.00     0.032 A 
HETATM    3  C   UNL     1       4.783  26.613  49.863  1.00  0.00     0.031 A 
HETATM    4  C   UNL     1       5.385  27.232  50.970  1.00  0.00     0.030 A 
HETATM    5  C   UNL     1       5.502  28.632  50.898  1.00  0.00     0.031 A 
HETATM    6  C   UNL     1       5.047  29.374  49.794  1.00  0.00     0.032 A 
ENDROOT
BRANCH   1   7
HETATM    7  N   UNL     1       4.153  29.374  47.486  1.00  0.00    -0.333 N 
HETATM    8  H   UNL     1       4.892  29.340  46.793  1.00  0.00     0.168 HD
BRANCH   7   9
HETATM    9  C   UNL     1       3.251  30.363  47.285  1.00  0.00     0.179 C 
HETATM   10  S   UNL     1       1.629  30.067  47.571  1.00  0.00    -0.040 SA
BRANCH   9  11
HETATM   11  N   UNL     1       3.628  31.622  46.928  1.00  0.00    -0.299 N 
HETATM   12  C   UNL     1       4.657  31.830  46.018  1.00  0.00     0.257 C 
HETATM   13  O   UNL     1       4.655  31.413  44.865  1.00  0.00    -0.267 OA
HETATM   14  H   UNL     1       3.673  32.197  47.754  1.00  0.00     0.171 HD
BRANCH  12  15
HETATM   15  C   UNL     1       5.797  32.702  46.465  1.00  0.00     0.035 A 
HETATM   16  C   UNL     1       6.639  33.393  45.581  1.00  0.00     0.053 A 
HETATM   17  C   UNL     1       7.668  34.216  46.060  1.00  0.00     0.069 A 
HETATM   18  C   UNL     1       7.845  34.372  47.433  1.00  0.00     0.037 A 
HETATM   19  C   UNL     1       7.002  33.705  48.324  1.00  0.00     0.004 A 
HETATM   20  C   UNL     1       5.987  32.875  47.844  1.00  0.00     0.017 A 
BRANCH  17  21
HETATM   21  O   UNL     1       8.416  34.810  45.081  1.00  0.00    -0.356 OA
HETATM   22  C   UNL     1       8.360  36.229  44.994  1.00  0.00     0.210 C 
ENDBRANCH  17  21
ENDBRANCH  12  15
ENDBRANCH   9  11
ENDBRANCH   7   9
ENDBRANCH   1   7
BRANCH   4  23
HETATM   23  N   UNL     1       5.922  26.513  52.053  1.00  0.00    -0.378 N 
HETATM   24  C   UNL     1       6.666  25.265  51.767  1.00  0.00     0.143 C 
HETATM   25  C   UNL     1       7.449  24.773  52.999  1.00  0.00     0.146 C 
HETATM   26  N   UNL     1       6.616  24.691  54.205  1.00  0.00    -0.345 N 
HETATM   27  C   UNL     1       6.982  23.919  55.308  1.00  0.00     0.253 C 
HETATM   28  C   UNL     1       5.863  25.917  54.476  1.00  0.00     0.146 C 
HETATM   29  O   UNL     1       6.728  24.237  56.469  1.00  0.00    -0.267 OA
HETATM   30  C   UNL     1       5.057  26.402  53.257  1.00  0.00     0.143 C 
BRANCH  27  31
HETATM   31  C   UNL     1       7.670  22.626  55.081  1.00  0.00     0.032 A 
HETATM   32  C   UNL     1       8.270  21.975  56.164  1.00  0.00     0.017 A 
HETATM   33  C   UNL     1       8.878  20.733  55.977  1.00  0.00     0.001 A 
HETATM   34  C   UNL     1       8.874  20.137  54.716  1.00  0.00     0.000 A 
HETATM   35  C   UNL     1       8.255  20.774  53.639  1.00  0.00     0.001 A 
HETATM   36  C   UNL     1       7.644  22.016  53.821  1.00  0.00     0.017 A 
ENDBRANCH  27  31
ENDBRANCH   4  23
TORSDOF 7
ENDMDL
MODEL 10
REMARK VINA RESULT:      -9.4      2.883     12.030
REMARK  7 active torsions:
REMARK  status: ('A' for Active; 'I' for Inactive)
REMARK    1  A    between atoms: O_2  and  C_3 
REMARK    2  A    between atoms: C_5  and  C_6 
REMARK       I    between atoms: C_6  and  N_7 
REMARK    3  A    between atoms: N_7  and  C_8 
REMARK    4  A    between atoms: C_8  and  N_9 
REMARK    5  A    between atoms: N_9  and  C_10 
REMARK    6  A    between atoms: C_13  and  N_14 
REMARK       I    between atoms: N_17  and  C_18 
REMARK    7  A    between atoms: C_18  and  C_19 
ROOT
HETATM    1  C   UNL     1       6.144  28.836  54.341  1.00  0.00     0.034 A 
HETATM    2  C   UNL     1       7.059  28.919  55.389  1.00  0.00     0.032 A 
HETATM    3  C   UNL     1       6.748  29.622  56.563  1.00  0.00     0.031 A 
HETATM    4  C   UNL     1       5.523  30.284  56.733  1.00  0.00     0.030 A 
HETATM    5  C   UNL     1       4.616  30.178  55.663  1.00  0.00     0.031 A 
HETATM    6  C   UNL     1       4.909  29.456  54.492  1.00  0.00     0.032 A 
ENDROOT
BRANCH   1   7
HETATM    7  N   UNL     1       6.584  28.235  53.139  1.00  0.00    -0.333 N 
HETATM    8  H   UNL     1       7.294  28.770  52.652  1.00  0.00     0.168 HD
BRANCH   7   9
HETATM    9  C   UNL     1       5.920  27.354  52.355  1.00  0.00     0.179 C 
HETATM   10  S   UNL     1       4.680  27.901  51.373  1.00  0.00    -0.040 SA
BRANCH   9  11
HETATM   11  N   UNL     1       6.277  26.042  52.280  1.00  0.00    -0.299 N 
HETATM   12  C   UNL     1       5.840  25.126  53.229  1.00  0.00     0.257 C 
HETATM   13  O   UNL     1       4.661  24.880  53.461  1.00  0.00    -0.267 OA
HETATM   14  H   UNL     1       7.257  25.981  52.055  1.00  0.00     0.171 HD
BRANCH  12  15
HETATM   15  C   UNL     1       6.895  24.329  53.945  1.00  0.00     0.035 A 
HETATM   16  C   UNL     1       7.537  23.214  53.386  1.00  0.00     0.053 A 
HETATM   17  C   UNL     1       8.537  22.529  54.091  1.00  0.00     0.069 A 
HETATM   18  C   UNL     1       8.918  22.974  55.356  1.00  0.00     0.037 A 
HETATM   19  C   UNL     1       8.300  24.094  55.915  1.00  0.00     0.004 A 
HETATM   20  C   UNL     1       7.296  24.765  55.216  1.00  0.00     0.017 A 
BRANCH  17  21
HETATM   21  O   UNL     1       9.059  21.453  53.427  1.00  0.00    -0.356 OA
HETATM   22  C   UNL     1       8.139  20.477  52.953  1.00  0.00     0.210 C 
ENDBRANCH  17  21
ENDBRANCH  12  15
ENDBRANCH   9  11
ENDBRANCH   7   9
ENDBRANCH   1   7
BRANCH   4  23
HETATM   23  N   UNL     1       5.230  31.080  57.855  1.00  0.00    -0.378 N 
HETATM   24  C   UNL     1       6.331  31.404  58.792  1.00  0.00     0.143 C 
HETATM   25  C   UNL     1       5.931  32.521  59.775  1.00  0.00     0.146 C 
HETATM   26  N   UNL     1       4.653  32.256  60.447  1.00  0.00    -0.345 N 
HETATM   27  C   UNL     1       4.292  32.898  61.633  1.00  0.00     0.253 C 
HETATM   28  C   UNL     1       3.571  31.913  59.523  1.00  0.00     0.146 C 
HETATM   29  O   UNL     1       3.133  33.204  61.909  1.00  0.00    -0.267 OA
HETATM   30  C   UNL     1       3.952  30.780  58.554  1.00  0.00     0.143 C 
BRANCH  27  31
HETATM   31  C   UNL     1       5.341  33.188  62.639  1.00  0.00     0.032 A 
HETATM   32  C   UNL     1       6.329  32.230  62.888  1.00  0.00     0.017 A 
HETATM   33  C   UNL     1       7.352  32.508  63.795  1.00  0.00     0.001 A 
HETATM   34  C   UNL     1       7.396  33.744  64.441  1.00  0.00     0.000 A 
HETATM   35  C   UNL     1       6.424  34.710  64.176  1.00  0.00     0.001 A 
HETATM   36  C   UNL     1       5.399  34.438  63.268  1.00  0.00     0.017 A 
ENDBRANCH  27  31
ENDBRANCH   4  23
TORSDOF 7
ENDMDL
