MODEL 1
REMARK VINA RESULT:      -9.4      0.000      0.000
REMARK  3 active torsions:
REMARK  status: ('A' for Active; 'I' for Inactive)
REMARK    1  A    between atoms: C_2  and  C_3 
REMARK    2  A    between atoms: C_10  and  O_11 
REMARK    3  A    between atoms: C_10  and  C_12 
ROOT
HETATM    1  C   UNL     1       7.419  28.391  55.173  1.00  0.00    -0.058 A 
HETATM    2  C   UNL     1       7.612  27.124  54.603  1.00  0.00     0.020 A 
HETATM    3  C   UNL     1       6.532  26.492  54.000  1.00  0.00     0.018 A 
HETATM    4  C   UNL     1       5.289  27.121  53.949  1.00  0.00     0.045 A 
HETATM    5  N   UNL     1       4.368  26.323  53.289  1.00  0.00    -0.323 N 
HETATM    6  C   UNL     1       4.938  25.116  52.879  1.00  0.00     0.266 A 
HETATM    7  O   UNL     1       4.335  24.250  52.263  1.00  0.00    -0.269 OA
HETATM    8  C   UNL     1       6.451  25.147  53.305  1.00  0.00     0.199 A 
HETATM    9  C   UNL     1       5.065  28.366  54.497  1.00  0.00     0.031 A 
HETATM   10  C   UNL     1       6.145  28.999  55.119  1.00  0.00     0.009 A 
HETATM   11  H   UNL     1       3.399  26.549  53.123  1.00  0.00     0.169 HD
ENDROOT
BRANCH   8  12
HETATM   12  O   UNL     1       7.292  25.157  52.156  1.00  0.00    -0.371 OA
HETATM   13  H   UNL     1       8.154  25.494  52.448  1.00  0.00     0.212 HD
ENDBRANCH   8  12
BRANCH   8  14
HETATM   14  C   UNL     1       6.826  24.109  54.343  1.00  0.00     0.025 A 
HETATM   15  C   UNL     1       7.467  22.838  54.075  1.00  0.00     0.003 A 
HETATM   16  C   UNL     1       7.679  22.199  55.294  1.00  0.00     0.043 A 
HETATM   17  C   UNL     1       7.901  22.176  52.904  1.00  0.00     0.014 A 
HETATM   18  C   UNL     1       8.299  20.947  55.408  1.00  0.00     0.030 A 
HETATM   19  N   UNL     1       7.179  23.020  56.271  1.00  0.00    -0.359 N 
HETATM   20  C   UNL     1       8.718  20.321  54.232  1.00  0.00     0.002 A 
HETATM   21  C   UNL     1       8.522  20.924  52.995  1.00  0.00     0.001 A 
HETATM   22  H   UNL     1       7.194  22.798  57.256  1.00  0.00     0.166 HD
HETATM   23  C   UNL     1       6.679  24.177  55.731  1.00  0.00     0.016 A 
HETATM   24  C   UNL     1       6.117  25.230  56.622  1.00  0.00     0.069 C 
ENDBRANCH   8  14
BRANCH   1  25
HETATM   25  C   UNL     1       8.564  29.083  55.874  1.00  0.00     0.034 C 
HETATM   26  C   UNL     1       8.713  28.610  57.312  1.00  0.00     0.010 C 
ENDBRANCH   1  25
TORSDOF 3
ENDMDL
MODEL 2
REMARK VINA RESULT:      -9.3      2.001      3.018
REMARK  3 active torsions:
REMARK  status: ('A' for Active; 'I' for Inactive)
REMARK    1  A    between atoms: C_2  and  C_3 
REMARK    2  A    between atoms: C_10  and  O_11 
REMARK    3  A    between atoms: C_10  and  C_12 
ROOT
HETATM    1  C   UNL     1       8.219  29.618  57.115  1.00  0.00    -0.058 A 
HETATM    2  C   UNL     1       7.904  28.808  56.014  1.00  0.00     0.020 A 
HETATM    3  C   UNL     1       6.601  28.808  55.536  1.00  0.00     0.018 A 
HETATM    4  C   UNL     1       5.634  29.618  56.131  1.00  0.00     0.045 A 
HETATM    5  N   UNL     1       4.416  29.475  55.485  1.00  0.00    -0.323 N 
HETATM    6  C   UNL     1       4.498  28.556  54.436  1.00  0.00     0.266 A 
HETATM    7  O   UNL     1       3.562  28.270  53.705  1.00  0.00    -0.269 OA
HETATM    8  C   UNL     1       5.986  28.053  54.374  1.00  0.00     0.199 A 
HETATM    9  C   UNL     1       5.909  30.427  57.212  1.00  0.00     0.031 A 
HETATM   10  C   UNL     1       7.216  30.418  57.708  1.00  0.00     0.009 A 
HETATM   11  H   UNL     1       3.558  29.949  55.725  1.00  0.00     0.169 HD
ENDROOT
BRANCH   8  12
HETATM   12  O   UNL     1       6.602  28.471  53.159  1.00  0.00    -0.371 OA
HETATM   13  H   UNL     1       7.173  29.223  53.384  1.00  0.00     0.212 HD
ENDBRANCH   8  12
BRANCH   8  14
HETATM   14  C   UNL     1       6.159  26.581  54.686  1.00  0.00     0.025 A 
HETATM   15  C   UNL     1       6.841  25.613  53.851  1.00  0.00     0.003 A 
HETATM   16  C   UNL     1       6.818  24.386  54.509  1.00  0.00     0.043 A 
HETATM   17  C   UNL     1       7.491  25.672  52.597  1.00  0.00     0.014 A 
HETATM   18  C   UNL     1       7.407  23.225  53.991  1.00  0.00     0.030 A 
HETATM   19  N   UNL     1       6.139  24.573  55.685  1.00  0.00    -0.359 N 
HETATM   20  C   UNL     1       8.044  23.317  52.751  1.00  0.00     0.002 A 
HETATM   21  C   UNL     1       8.085  24.522  52.060  1.00  0.00     0.001 A 
HETATM   22  H   UNL     1       5.967  23.841  56.359  1.00  0.00     0.166 HD
HETATM   23  C   UNL     1       5.750  25.881  55.824  1.00  0.00     0.016 A 
HETATM   24  C   UNL     1       5.026  26.314  57.051  1.00  0.00     0.069 C 
ENDBRANCH   8  14
BRANCH   1  25
HETATM   25  C   UNL     1       9.617  29.604  57.684  1.00  0.00     0.034 C 
HETATM   26  C   UNL     1      10.672  29.636  56.588  1.00  0.00     0.010 C 
ENDBRANCH   1  25
TORSDOF 3
ENDMDL
MODEL 3
REMARK VINA RESULT:      -9.3      1.842      5.499
REMARK  3 active torsions:
REMARK  status: ('A' for Active; 'I' for Inactive)
REMARK    1  A    between atoms: C_2  and  C_3 
REMARK    2  A    between atoms: C_10  and  O_11 
REMARK    3  A    between atoms: C_10  and  C_12 
ROOT
HETATM    1  C   UNL     1       7.557  23.041  53.813  1.00  0.00    -0.058 A 
HETATM    2  C   UNL     1       6.811  24.046  54.449  1.00  0.00     0.020 A 
HETATM    3  C   UNL     1       6.652  25.266  53.807  1.00  0.00     0.018 A 
HETATM    4  C   UNL     1       7.209  25.475  52.546  1.00  0.00     0.045 A 
HETATM    5  N   UNL     1       6.913  26.749  52.088  1.00  0.00    -0.323 N 
HETATM    6  C   UNL     1       6.157  27.464  53.021  1.00  0.00     0.266 A 
HETATM    7  O   UNL     1       5.756  28.605  52.844  1.00  0.00    -0.269 OA
HETATM    8  C   UNL     1       5.902  26.509  54.243  1.00  0.00     0.199 A 
HETATM    9  C   UNL     1       7.945  24.510  51.892  1.00  0.00     0.031 A 
HETATM   10  C   UNL     1       8.122  23.285  52.541  1.00  0.00     0.009 A 
HETATM   11  H   UNL     1       7.202  27.146  51.207  1.00  0.00     0.169 HD
ENDROOT
BRANCH   8  12
HETATM   12  O   UNL     1       4.514  26.208  54.358  1.00  0.00    -0.371 OA
HETATM   13  H   UNL     1       4.037  27.028  54.150  1.00  0.00     0.212 HD
ENDBRANCH   8  12
BRANCH   8  14
HETATM   14  C   UNL     1       6.550  26.965  55.534  1.00  0.00     0.025 A 
HETATM   15  C   UNL     1       7.699  27.840  55.641  1.00  0.00     0.003 A 
HETATM   16  C   UNL     1       7.954  28.051  56.994  1.00  0.00     0.043 A 
HETATM   17  C   UNL     1       8.540  28.488  54.707  1.00  0.00     0.014 A 
HETATM   18  C   UNL     1       8.992  28.868  57.461  1.00  0.00     0.030 A 
HETATM   19  N   UNL     1       7.025  27.328  57.695  1.00  0.00    -0.359 N 
HETATM   20  C   UNL     1       9.803  29.496  56.513  1.00  0.00     0.002 A 
HETATM   21  C   UNL     1       9.583  29.308  55.154  1.00  0.00     0.001 A 
HETATM   22  H   UNL     1       6.983  27.293  58.704  1.00  0.00     0.166 HD
HETATM   23  C   UNL     1       6.162  26.683  56.847  1.00  0.00     0.016 A 
HETATM   24  C   UNL     1       5.047  25.867  57.402  1.00  0.00     0.069 C 
ENDBRANCH   8  14
BRANCH   1  25
HETATM   25  C   UNL     1       7.783  21.719  54.506  1.00  0.00     0.034 C 
HETATM   26  C   UNL     1       7.952  20.582  53.510  1.00  0.00     0.010 C 
ENDBRANCH   1  25
TORSDOF 3
ENDMDL
MODEL 4
REMARK VINA RESULT:      -8.9      9.235     11.644
REMARK  3 active torsions:
REMARK  status: ('A' for Active; 'I' for Inactive)
REMARK    1  A    between atoms: C_2  and  C_3 
REMARK    2  A    between atoms: C_10  and  O_11 
REMARK    3  A    between atoms: C_10  and  C_12 
ROOT
HETATM    1  C   UNL     1       5.153  36.549  62.396  1.00  0.00    -0.058 A 
HETATM    2  C   UNL     1       4.826  35.375  61.698  1.00  0.00     0.020 A 
HETATM    3  C   UNL     1       4.866  34.164  62.375  1.00  0.00     0.018 A 
HETATM    4  C   UNL     1       5.205  34.125  63.727  1.00  0.00     0.045 A 
HETATM    5  N   UNL     1       5.163  32.823  64.200  1.00  0.00    -0.323 N 
HETATM    6  C   UNL     1       4.810  31.923  63.192  1.00  0.00     0.266 A 
HETATM    7  O   UNL     1       4.689  30.719  63.363  1.00  0.00    -0.269 OA
HETATM    8  C   UNL     1       4.558  32.762  61.887  1.00  0.00     0.199 A 
HETATM    9  C   UNL     1       5.529  35.257  64.443  1.00  0.00     0.031 A 
HETATM   10  C   UNL     1       5.507  36.478  63.762  1.00  0.00     0.009 A 
HETATM   11  H   UNL     1       5.370  32.527  65.142  1.00  0.00     0.169 HD
ENDROOT
BRANCH   8  12
HETATM   12  O   UNL     1       3.189  32.685  61.502  1.00  0.00    -0.371 OA
HETATM   13  H   UNL     1       3.004  31.748  61.330  1.00  0.00     0.212 HD
ENDBRANCH   8  12
BRANCH   8  14
HETATM   14  C   UNL     1       5.537  32.478  60.766  1.00  0.00     0.025 A 
HETATM   15  C   UNL     1       6.966  32.302  60.916  1.00  0.00     0.003 A 
HETATM   16  C   UNL     1       7.498  32.015  59.661  1.00  0.00     0.043 A 
HETATM   17  C   UNL     1       7.860  32.345  62.011  1.00  0.00     0.014 A 
HETATM   18  C   UNL     1       8.860  31.769  59.441  1.00  0.00     0.030 A 
HETATM   19  N   UNL     1       6.457  32.032  58.770  1.00  0.00    -0.359 N 
HETATM   20  C   UNL     1       9.715  31.816  60.544  1.00  0.00     0.002 A 
HETATM   21  C   UNL     1       9.225  32.103  61.813  1.00  0.00     0.001 A 
HETATM   22  H   UNL     1       6.559  31.862  57.780  1.00  0.00     0.166 HD
HETATM   23  C   UNL     1       5.270  32.288  59.407  1.00  0.00     0.016 A 
HETATM   24  C   UNL     1       4.000  32.315  58.630  1.00  0.00     0.069 C 
ENDBRANCH   8  14
BRANCH   1  25
HETATM   25  C   UNL     1       5.161  37.875  61.675  1.00  0.00     0.034 C 
HETATM   26  C   UNL     1       6.462  38.631  61.899  1.00  0.00     0.010 C 
ENDBRANCH   1  25
TORSDOF 3
ENDMDL
MODEL 5
REMARK VINA RESULT:      -8.8     10.476     13.096
REMARK  3 active torsions:
REMARK  status: ('A' for Active; 'I' for Inactive)
REMARK    1  A    between atoms: C_2  and  C_3 
REMARK    2  A    between atoms: C_10  and  O_11 
REMARK    3  A    between atoms: C_10  and  C_12 
ROOT
HETATM    1  C   UNL     1       6.013  37.898  62.330  1.00  0.00    -0.058 A 
HETATM    2  C   UNL     1       5.348  36.811  61.742  1.00  0.00     0.020 A 
HETATM    3  C   UNL     1       4.516  36.030  62.533  1.00  0.00     0.018 A 
HETATM    4  C   UNL     1       4.333  36.341  63.880  1.00  0.00     0.045 A 
HETATM    5  N   UNL     1       3.453  35.447  64.470  1.00  0.00    -0.323 N 
HETATM    6  C   UNL     1       3.012  34.486  63.556  1.00  0.00     0.266 A 
HETATM    7  O   UNL     1       2.218  33.598  63.829  1.00  0.00    -0.269 OA
HETATM    8  C   UNL     1       3.677  34.821  62.171  1.00  0.00     0.199 A 
HETATM    9  C   UNL     1       4.968  37.402  64.489  1.00  0.00     0.031 A 
HETATM   10  C   UNL     1       5.820  38.181  63.701  1.00  0.00     0.009 A 
HETATM   11  H   UNL     1       3.158  35.453  65.434  1.00  0.00     0.169 HD
ENDROOT
BRANCH   8  12
HETATM   12  O   UNL     1       2.685  35.199  61.222  1.00  0.00    -0.371 OA
HETATM   13  H   UNL     1       2.257  35.996  61.574  1.00  0.00     0.212 HD
ENDBRANCH   8  12
BRANCH   8  14
HETATM   14  C   UNL     1       4.645  33.766  61.676  1.00  0.00     0.025 A 
HETATM   15  C   UNL     1       5.852  33.341  62.353  1.00  0.00     0.003 A 
HETATM   16  C   UNL     1       6.435  32.327  61.596  1.00  0.00     0.043 A 
HETATM   17  C   UNL     1       6.499  33.716  63.553  1.00  0.00     0.014 A 
HETATM   18  C   UNL     1       7.615  31.671  61.970  1.00  0.00     0.030 A 
HETATM   19  N   UNL     1       5.643  32.143  60.493  1.00  0.00    -0.359 N 
HETATM   20  C   UNL     1       8.228  32.063  63.162  1.00  0.00     0.002 A 
HETATM   21  C   UNL     1       7.680  33.073  63.945  1.00  0.00     0.001 A 
HETATM   22  H   UNL     1       5.836  31.469  59.766  1.00  0.00     0.166 HD
HETATM   23  C   UNL     1       4.556  32.978  60.525  1.00  0.00     0.016 A 
HETATM   24  C   UNL     1       3.541  32.918  59.436  1.00  0.00     0.069 C 
ENDBRANCH   8  14
BRANCH   1  25
HETATM   25  C   UNL     1       6.958  38.737  61.505  1.00  0.00     0.034 C 
HETATM   26  C   UNL     1       7.463  39.945  62.280  1.00  0.00     0.010 C 
ENDBRANCH   1  25
TORSDOF 3
ENDMDL
MODEL 6
REMARK VINA RESULT:      -8.8      9.446     12.191
REMARK  3 active torsions:
REMARK  status: ('A' for Active; 'I' for Inactive)
REMARK    1  A    between atoms: C_2  and  C_3 
REMARK    2  A    between atoms: C_10  and  O_11 
REMARK    3  A    between atoms: C_10  and  C_12 
ROOT
HETATM    1  C   UNL     1       5.591  37.216  63.083  1.00  0.00    -0.058 A 
HETATM    2  C   UNL     1       5.855  36.054  62.341  1.00  0.00     0.020 A 
HETATM    3  C   UNL     1       5.084  34.923  62.574  1.00  0.00     0.018 A 
HETATM    4  C   UNL     1       4.056  34.956  63.516  1.00  0.00     0.045 A 
HETATM    5  N   UNL     1       3.410  33.731  63.572  1.00  0.00    -0.323 N 
HETATM    6  C   UNL     1       3.977  32.813  62.685  1.00  0.00     0.266 A 
HETATM    7  O   UNL     1       3.574  31.668  62.536  1.00  0.00    -0.269 OA
HETATM    8  C   UNL     1       5.136  33.555  61.925  1.00  0.00     0.199 A 
HETATM    9  C   UNL     1       3.769  36.079  64.261  1.00  0.00     0.031 A 
HETATM   10  C   UNL     1       4.553  37.215  64.042  1.00  0.00     0.009 A 
HETATM   11  H   UNL     1       2.636  33.495  64.174  1.00  0.00     0.169 HD
ENDROOT
BRANCH   8  12
HETATM   12  O   UNL     1       4.825  33.676  60.540  1.00  0.00    -0.371 OA
HETATM   13  H   UNL     1       3.867  33.540  60.461  1.00  0.00     0.212 HD
ENDBRANCH   8  12
BRANCH   8  14
HETATM   14  C   UNL     1       6.519  33.003  62.207  1.00  0.00     0.025 A 
HETATM   15  C   UNL     1       7.431  32.464  61.220  1.00  0.00     0.003 A 
HETATM   16  C   UNL     1       8.608  32.105  61.875  1.00  0.00     0.043 A 
HETATM   17  C   UNL     1       7.372  32.260  59.823  1.00  0.00     0.014 A 
HETATM   18  C   UNL     1       9.719  31.562  61.215  1.00  0.00     0.030 A 
HETATM   19  N   UNL     1       8.430  32.386  63.204  1.00  0.00    -0.359 N 
HETATM   20  C   UNL     1       9.629  31.376  59.834  1.00  0.00     0.002 A 
HETATM   21  C   UNL     1       8.471  31.718  59.145  1.00  0.00     0.001 A 
HETATM   22  H   UNL     1       9.128  32.217  63.914  1.00  0.00     0.166 HD
HETATM   23  C   UNL     1       7.196  32.941  63.428  1.00  0.00     0.016 A 
HETATM   24  C   UNL     1       6.808  33.359  64.803  1.00  0.00     0.069 C 
ENDBRANCH   8  14
BRANCH   1  25
HETATM   25  C   UNL     1       6.441  38.446  62.882  1.00  0.00     0.034 C 
HETATM   26  C   UNL     1       6.369  39.383  64.078  1.00  0.00     0.010 C 
ENDBRANCH   1  25
TORSDOF 3
ENDMDL
MODEL 7
REMARK VINA RESULT:      -8.6      2.643      6.149
REMARK  3 active torsions:
REMARK  status: ('A' for Active; 'I' for Inactive)
REMARK    1  A    between atoms: C_2  and  C_3 
REMARK    2  A    between atoms: C_10  and  O_11 
REMARK    3  A    between atoms: C_10  and  C_12 
ROOT
HETATM    1  C   UNL     1       7.559  24.366  55.082  1.00  0.00    -0.058 A 
HETATM    2  C   UNL     1       7.344  25.662  54.586  1.00  0.00     0.020 A 
HETATM    3  C   UNL     1       7.644  26.746  55.399  1.00  0.00     0.018 A 
HETATM    4  C   UNL     1       8.168  26.543  56.675  1.00  0.00     0.045 A 
HETATM    5  N   UNL     1       8.408  27.757  57.300  1.00  0.00    -0.323 N 
HETATM    6  C   UNL     1       8.047  28.832  56.485  1.00  0.00     0.266 A 
HETATM    7  O   UNL     1       8.178  30.005  56.803  1.00  0.00    -0.269 OA
HETATM    8  C   UNL     1       7.526  28.232  55.128  1.00  0.00     0.199 A 
HETATM    9  C   UNL     1       8.393  25.286  57.194  1.00  0.00     0.031 A 
HETATM   10  C   UNL     1       8.077  24.190  56.385  1.00  0.00     0.009 A 
HETATM   11  H   UNL     1       8.782  27.883  58.229  1.00  0.00     0.169 HD
ENDROOT
BRANCH   8  12
HETATM   12  O   UNL     1       8.397  28.590  54.059  1.00  0.00    -0.371 OA
HETATM   13  H   UNL     1       8.026  28.188  53.257  1.00  0.00     0.212 HD
ENDBRANCH   8  12
BRANCH   8  14
HETATM   14  C   UNL     1       6.060  28.499  54.853  1.00  0.00     0.025 A 
HETATM   15  C   UNL     1       5.441  28.547  53.544  1.00  0.00     0.003 A 
HETATM   16  C   UNL     1       4.078  28.772  53.723  1.00  0.00     0.043 A 
HETATM   17  C   UNL     1       5.913  28.405  52.219  1.00  0.00     0.014 A 
HETATM   18  C   UNL     1       3.168  28.859  52.661  1.00  0.00     0.030 A 
HETATM   19  N   UNL     1       3.861  28.879  55.072  1.00  0.00    -0.359 N 
HETATM   20  C   UNL     1       3.666  28.712  51.364  1.00  0.00     0.002 A 
HETATM   21  C   UNL     1       5.020  28.489  51.143  1.00  0.00     0.001 A 
HETATM   22  H   UNL     1       2.956  29.052  55.486  1.00  0.00     0.166 HD
HETATM   23  C   UNL     1       5.027  28.701  55.772  1.00  0.00     0.016 A 
HETATM   24  C   UNL     1       5.013  28.741  57.260  1.00  0.00     0.069 C 
ENDBRANCH   8  14
BRANCH   1  25
HETATM   25  C   UNL     1       7.201  23.168  54.237  1.00  0.00     0.034 C 
HETATM   26  C   UNL     1       7.904  23.200  52.888  1.00  0.00     0.010 C 
ENDBRANCH   1  25
TORSDOF 3
ENDMDL
MODEL 8
REMARK VINA RESULT:      -8.4     10.383     13.272
REMARK  3 active torsions:
REMARK  status: ('A' for Active; 'I' for Inactive)
REMARK    1  A    between atoms: C_2  and  C_3 
REMARK    2  A    between atoms: C_10  and  O_11 
REMARK    3  A    between atoms: C_10  and  C_12 
ROOT
HETATM    1  C   UNL     1       6.384  38.113  62.365  1.00  0.00    -0.058 A 
HETATM    2  C   UNL     1       6.057  36.758  62.196  1.00  0.00     0.020 A 
HETATM    3  C   UNL     1       5.379  36.103  63.215  1.00  0.00     0.018 A 
HETATM    4  C   UNL     1       5.014  36.791  64.371  1.00  0.00     0.045 A 
HETATM    5  N   UNL     1       4.333  35.952  65.241  1.00  0.00    -0.323 N 
HETATM    6  C   UNL     1       4.219  34.661  64.720  1.00  0.00     0.266 A 
HETATM    7  O   UNL     1       3.647  33.743  65.290  1.00  0.00    -0.269 OA
HETATM    8  C   UNL     1       4.895  34.669  63.301  1.00  0.00     0.199 A 
HETATM    9  C   UNL     1       5.317  38.121  64.570  1.00  0.00     0.031 A 
HETATM   10  C   UNL     1       6.015  38.780  63.555  1.00  0.00     0.009 A 
HETATM   11  H   UNL     1       3.967  36.206  66.145  1.00  0.00     0.169 HD
ENDROOT
BRANCH   8  12
HETATM   12  O   UNL     1       3.923  34.435  62.286  1.00  0.00    -0.371 OA
HETATM   13  H   UNL     1       4.056  35.124  61.614  1.00  0.00     0.212 HD
ENDBRANCH   8  12
BRANCH   8  14
HETATM   14  C   UNL     1       6.129  33.797  63.194  1.00  0.00     0.025 A 
HETATM   15  C   UNL     1       6.584  33.119  61.998  1.00  0.00     0.003 A 
HETATM   16  C   UNL     1       7.773  32.461  62.304  1.00  0.00     0.043 A 
HETATM   17  C   UNL     1       6.101  33.015  60.674  1.00  0.00     0.014 A 
HETATM   18  C   UNL     1       8.501  31.714  61.368  1.00  0.00     0.030 A 
HETATM   19  N   UNL     1       8.036  32.700  63.628  1.00  0.00    -0.359 N 
HETATM   20  C   UNL     1       7.998  31.634  60.068  1.00  0.00     0.002 A 
HETATM   21  C   UNL     1       6.813  32.273  59.723  1.00  0.00     0.001 A 
HETATM   22  H   UNL     1       8.839  32.333  64.119  1.00  0.00     0.166 HD
HETATM   23  C   UNL     1       7.078  33.511  64.180  1.00  0.00     0.016 A 
HETATM   24  C   UNL     1       7.188  33.928  65.605  1.00  0.00     0.069 C 
ENDBRANCH   8  14
BRANCH   1  25
HETATM   25  C   UNL     1       7.160  38.839  61.294  1.00  0.00     0.034 C 
HETATM   26  C   UNL     1       6.277  39.209  60.111  1.00  0.00     0.010 C 
ENDBRANCH   1  25
TORSDOF 3
ENDMDL
MODEL 9
REMARK VINA RESULT:      -8.4      2.353      6.082
REMARK  3 active torsions:
REMARK  status: ('A' for Active; 'I' for Inactive)
REMARK    1  A    between atoms: C_2  and  C_3 
REMARK    2  A    between atoms: C_10  and  O_11 
REMARK    3  A    between atoms: C_10  and  C_12 
ROOT
HETATM    1  C   UNL     1       7.140  23.946  54.505  1.00  0.00    -0.058 A 
HETATM    2  C   UNL     1       6.312  25.071  54.649  1.00  0.00     0.020 A 
HETATM    3  C   UNL     1       6.103  25.891  53.548  1.00  0.00     0.018 A 
HETATM    4  C   UNL     1       6.691  25.584  52.322  1.00  0.00     0.045 A 
HETATM    5  N   UNL     1       6.335  26.522  51.365  1.00  0.00    -0.323 N 
HETATM    6  C   UNL     1       5.505  27.509  51.900  1.00  0.00     0.266 A 
HETATM    7  O   UNL     1       5.042  28.437  51.253  1.00  0.00    -0.269 OA
HETATM    8  C   UNL     1       5.264  27.145  53.411  1.00  0.00     0.199 A 
HETATM    9  C   UNL     1       7.508  24.488  52.145  1.00  0.00     0.031 A 
HETATM   10  C   UNL     1       7.735  23.668  53.254  1.00  0.00     0.009 A 
HETATM   11  H   UNL     1       6.631  26.527  50.401  1.00  0.00     0.169 HD
ENDROOT
BRANCH   8  12
HETATM   12  O   UNL     1       3.894  26.825  53.633  1.00  0.00    -0.371 OA
HETATM   13  H   UNL     1       3.841  26.447  54.526  1.00  0.00     0.212 HD
ENDBRANCH   8  12
BRANCH   8  14
HETATM   14  C   UNL     1       5.836  28.149  54.391  1.00  0.00     0.025 A 
HETATM   15  C   UNL     1       5.074  28.930  55.343  1.00  0.00     0.003 A 
HETATM   16  C   UNL     1       5.970  29.696  56.085  1.00  0.00     0.043 A 
HETATM   17  C   UNL     1       3.699  29.045  55.655  1.00  0.00     0.014 A 
HETATM   18  C   UNL     1       5.573  30.561  57.113  1.00  0.00     0.030 A 
HETATM   19  N   UNL     1       7.224  29.423  55.606  1.00  0.00    -0.359 N 
HETATM   20  C   UNL     1       4.209  30.650  57.398  1.00  0.00     0.002 A 
HETATM   21  C   UNL     1       3.282  29.905  56.679  1.00  0.00     0.001 A 
HETATM   22  H   UNL     1       8.068  29.849  55.961  1.00  0.00     0.166 HD
HETATM   23  C   UNL     1       7.175  28.487  54.605  1.00  0.00     0.016 A 
HETATM   24  C   UNL     1       8.434  28.015  53.966  1.00  0.00     0.069 C 
ENDBRANCH   8  14
BRANCH   1  25
HETATM   25  C   UNL     1       7.421  23.062  55.695  1.00  0.00     0.034 C 
HETATM   26  C   UNL     1       8.565  23.600  56.541  1.00  0.00     0.010 C 
ENDBRANCH   1  25
TORSDOF 3
ENDMDL
MODEL 10
REMARK VINA RESULT:      -8.4      9.647     12.487
REMARK  3 active torsions:
REMARK  status: ('A' for Active; 'I' for Inactive)
REMARK    1  A    between atoms: C_2  and  C_3 
REMARK    2  A    between atoms: C_10  and  O_11 
REMARK    3  A    between atoms: C_10  and  C_12 
ROOT
HETATM    1  C   UNL     1       4.184  37.332  59.660  1.00  0.00    -0.058 A 
HETATM    2  C   UNL     1       3.982  35.950  59.804  1.00  0.00     0.020 A 
HETATM    3  C   UNL     1       3.499  35.469  61.014  1.00  0.00     0.018 A 
HETATM    4  C   UNL     1       3.204  36.351  62.053  1.00  0.00     0.045 A 
HETATM    5  N   UNL     1       2.721  35.660  63.154  1.00  0.00    -0.323 N 
HETATM    6  C   UNL     1       2.681  34.284  62.916  1.00  0.00     0.266 A 
HETATM    7  O   UNL     1       2.278  33.462  63.726  1.00  0.00    -0.269 OA
HETATM    8  C   UNL     1       3.180  34.051  61.443  1.00  0.00     0.199 A 
HETATM    9  C   UNL     1       3.389  37.712  61.946  1.00  0.00     0.031 A 
HETATM   10  C   UNL     1       3.891  38.200  60.736  1.00  0.00     0.009 A 
HETATM   11  H   UNL     1       2.440  36.066  64.033  1.00  0.00     0.169 HD
ENDROOT
BRANCH   8  12
HETATM   12  O   UNL     1       2.125  33.538  60.636  1.00  0.00    -0.371 OA
HETATM   13  H   UNL     1       2.303  32.591  60.520  1.00  0.00     0.212 HD
ENDBRANCH   8  12
BRANCH   8  14
HETATM   14  C   UNL     1       4.477  33.274  61.341  1.00  0.00     0.025 A 
HETATM   15  C   UNL     1       5.550  33.291  62.313  1.00  0.00     0.003 A 
HETATM   16  C   UNL     1       6.540  32.414  61.874  1.00  0.00     0.043 A 
HETATM   17  C   UNL     1       5.767  33.962  63.539  1.00  0.00     0.014 A 
HETATM   18  C   UNL     1       7.722  32.170  62.587  1.00  0.00     0.030 A 
HETATM   19  N   UNL     1       6.115  31.893  60.680  1.00  0.00    -0.359 N 
HETATM   20  C   UNL     1       7.904  32.847  63.795  1.00  0.00     0.002 A 
HETATM   21  C   UNL     1       6.941  33.733  64.266  1.00  0.00     0.001 A 
HETATM   22  H   UNL     1       6.646  31.231  60.133  1.00  0.00     0.166 HD
HETATM   23  C   UNL     1       4.876  32.377  60.347  1.00  0.00     0.016 A 
HETATM   24  C   UNL     1       4.207  31.912  59.101  1.00  0.00     0.069 C 
ENDBRANCH   8  14
BRANCH   1  25
HETATM   25  C   UNL     1       4.749  37.879  58.372  1.00  0.00     0.034 C 
HETATM   26  C   UNL     1       4.641  36.872  57.237  1.00  0.00     0.010 C 
ENDBRANCH   1  25
TORSDOF 3
ENDMDL
