MODEL 1
REMARK VINA RESULT:     -11.4      0.000      0.000
REMARK  5 active torsions:
REMARK  status: ('A' for Active; 'I' for Inactive)
REMARK    1  A    between atoms: C_5  and  C_6 
REMARK    2  A    between atoms: C_6  and  C_7 
REMARK       I    between atoms: C_7  and  N_8 
REMARK    3  A    between atoms: N_8  and  C_9 
REMARK    4  A    between atoms: N_10  and  C_11 
REMARK    5  A    between atoms: C_23  and  C_24 
ROOT
HETATM    1  C   UNL     1       5.073  27.408  50.625  1.00  0.00     0.152 C 
HETATM    2  N   UNL     1       4.222  28.203  51.389  1.00  0.00    -0.044 N 
HETATM    3  N   UNL     1       3.080  28.519  50.690  1.00  0.00    -0.148 NA
HETATM    4  C   UNL     1       3.302  28.033  49.463  1.00  0.00     0.115 C 
HETATM    5  C   UNL     1       4.561  27.412  49.348  1.00  0.00     0.087 C 
ENDROOT
BRANCH   1   6
HETATM    6  N   UNL     1       6.209  26.745  51.069  1.00  0.00    -0.311 N 
HETATM    7  C   UNL     1       6.067  25.514  51.699  1.00  0.00     0.227 C 
HETATM    8  O   UNL     1       4.985  24.958  51.901  1.00  0.00    -0.273 OA
HETATM    9  H   UNL     1       7.057  26.869  50.525  1.00  0.00     0.170 HD
BRANCH   7  10
HETATM   10  C   UNL     1       7.365  24.849  52.133  1.00  0.00     0.142 C 
BRANCH  10  11
HETATM   11  C   UNL     1       7.402  24.334  53.561  1.00  0.00    -0.038 A 
HETATM   12  C   UNL     1       7.645  22.966  53.876  1.00  0.00    -0.019 A 
HETATM   13  C   UNL     1       7.715  22.585  55.240  1.00  0.00    -0.025 A 
HETATM   14  C   UNL     1       7.835  21.954  52.905  1.00  0.00     0.013 A 
HETATM   15  C   UNL     1       7.991  21.252  55.586  1.00  0.00     0.012 A 
HETATM   16  C   UNL     1       7.513  23.540  56.246  1.00  0.00     0.012 A 
HETATM   17  C   UNL     1       8.197  20.284  54.605  1.00  0.00     0.001 A 
HETATM   18  C   UNL     1       8.117  20.634  53.265  1.00  0.00     0.001 A 
HETATM   19  C   UNL     1       7.250  24.869  55.927  1.00  0.00     0.001 A 
HETATM   20  C   UNL     1       7.199  25.265  54.596  1.00  0.00     0.008 A 
ENDBRANCH  10  11
ENDBRANCH   7  10
ENDBRANCH   1   6
BRANCH   2  21
HETATM   21  C   UNL     1       4.419  28.790  52.660  1.00  0.00     0.732 A 
HETATM   22  N   UNL     1       5.363  28.466  53.485  1.00  0.00    -0.067 NA
HETATM   23  C   UNL     1       5.368  29.117  54.699  1.00  0.00     0.065 A 
HETATM   24  C   UNL     1       4.524  30.113  55.028  1.00  0.00     0.036 A 
HETATM   25  C   UNL     1       6.394  28.606  55.686  1.00  0.00     0.060 C 
HETATM   26  C   UNL     1       4.491  30.790  56.365  1.00  0.00     0.046 C 
HETATM   27  C   UNL     1       3.528  30.537  54.015  1.00  0.00     0.268 A 
HETATM   28  C   UNL     1       5.238  29.999  57.440  1.00  0.00     0.005 C 
HETATM   29  C   UNL     1       6.578  29.499  56.915  1.00  0.00     0.006 C 
HETATM   30  O   UNL     1       2.782  31.494  54.188  1.00  0.00    -0.267 OA
HETATM   31  N   UNL     1       3.504  29.783  52.886  1.00  0.00    -0.152 N 
HETATM   32  H   UNL     1       2.843  30.015  52.152  1.00  0.00     0.188 HD
ENDBRANCH   2  21
BRANCH   4  33
HETATM   33  C   UNL     1       2.292  28.111  48.367  1.00  0.00     0.105 A 
HETATM   34  O   UNL     1       2.116  29.198  47.554  1.00  0.00    -0.320 OA
HETATM   35  C   UNL     1       1.145  28.880  46.659  1.00  0.00     0.142 A 
HETATM   36  C   UNL     1       0.681  27.606  46.884  1.00  0.00     0.027 A 
HETATM   37  C   UNL     1       1.417  27.111  47.988  1.00  0.00     0.041 A 
ENDBRANCH   4  33
TORSDOF 5
ENDMDL
MODEL 2
REMARK VINA RESULT:     -10.9      2.327      6.399
REMARK  5 active torsions:
REMARK  status: ('A' for Active; 'I' for Inactive)
REMARK    1  A    between atoms: C_5  and  C_6 
REMARK    2  A    between atoms: C_6  and  C_7 
REMARK       I    between atoms: C_7  and  N_8 
REMARK    3  A    between atoms: N_8  and  C_9 
REMARK    4  A    between atoms: N_10  and  C_11 
REMARK    5  A    between atoms: C_23  and  C_24 
ROOT
HETATM    1  C   UNL     1       5.595  27.777  56.307  1.00  0.00     0.152 C 
HETATM    2  N   UNL     1       5.318  28.489  55.142  1.00  0.00    -0.044 N 
HETATM    3  N   UNL     1       4.975  29.792  55.429  1.00  0.00    -0.148 NA
HETATM    4  C   UNL     1       4.913  29.828  56.765  1.00  0.00     0.115 C 
HETATM    5  C   UNL     1       5.204  28.581  57.352  1.00  0.00     0.087 C 
ENDROOT
BRANCH   1   6
HETATM    6  N   UNL     1       6.157  26.510  56.389  1.00  0.00    -0.311 N 
HETATM    7  C   UNL     1       7.540  26.391  56.464  1.00  0.00     0.227 C 
HETATM    8  O   UNL     1       8.321  27.345  56.456  1.00  0.00    -0.273 OA
HETATM    9  H   UNL     1       5.623  25.801  56.883  1.00  0.00     0.170 HD
BRANCH   7  10
HETATM   10  C   UNL     1       8.067  24.968  56.574  1.00  0.00     0.142 C 
BRANCH  10  11
HETATM   11  C   UNL     1       8.068  24.159  55.288  1.00  0.00    -0.038 A 
HETATM   12  C   UNL     1       8.189  22.740  55.277  1.00  0.00    -0.019 A 
HETATM   13  C   UNL     1       8.127  22.063  54.032  1.00  0.00    -0.025 A 
HETATM   14  C   UNL     1       8.353  21.951  56.441  1.00  0.00     0.013 A 
HETATM   15  C   UNL     1       8.203  20.661  53.988  1.00  0.00     0.012 A 
HETATM   16  C   UNL     1       7.987  22.792  52.844  1.00  0.00     0.012 A 
HETATM   17  C   UNL     1       8.341  19.912  55.155  1.00  0.00     0.001 A 
HETATM   18  C   UNL     1       8.419  20.557  56.380  1.00  0.00     0.001 A 
HETATM   19  C   UNL     1       7.897  24.182  52.864  1.00  0.00     0.001 A 
HETATM   20  C   UNL     1       7.934  24.860  54.076  1.00  0.00     0.008 A 
ENDBRANCH  10  11
ENDBRANCH   7  10
ENDBRANCH   1   6
BRANCH   2  21
HETATM   21  C   UNL     1       5.228  28.047  53.803  1.00  0.00     0.732 A 
HETATM   22  N   UNL     1       5.492  28.776  52.765  1.00  0.00    -0.067 NA
HETATM   23  C   UNL     1       5.303  28.186  51.536  1.00  0.00     0.065 A 
HETATM   24  C   UNL     1       4.958  26.897  51.359  1.00  0.00     0.036 A 
HETATM   25  C   UNL     1       5.481  29.115  50.355  1.00  0.00     0.060 C 
HETATM   26  C   UNL     1       4.700  26.264  50.025  1.00  0.00     0.046 C 
HETATM   27  C   UNL     1       4.773  26.060  52.567  1.00  0.00     0.268 A 
HETATM   28  C   UNL     1       4.494  27.297  48.916  1.00  0.00     0.005 C 
HETATM   29  C   UNL     1       5.538  28.403  49.002  1.00  0.00     0.006 C 
HETATM   30  O   UNL     1       4.551  24.856  52.504  1.00  0.00    -0.267 OA
HETATM   31  N   UNL     1       4.867  26.728  53.746  1.00  0.00    -0.152 N 
HETATM   32  H   UNL     1       4.746  26.217  54.614  1.00  0.00     0.188 HD
ENDBRANCH   2  21
BRANCH   4  33
HETATM   33  C   UNL     1       4.613  31.075  57.527  1.00  0.00     0.105 A 
HETATM   34  O   UNL     1       3.663  31.172  58.507  1.00  0.00    -0.320 OA
HETATM   35  C   UNL     1       3.714  32.439  58.994  1.00  0.00     0.142 A 
HETATM   36  C   UNL     1       4.676  33.169  58.339  1.00  0.00     0.027 A 
HETATM   37  C   UNL     1       5.254  32.292  57.390  1.00  0.00     0.041 A 
ENDBRANCH   4  33
TORSDOF 5
ENDMDL
MODEL 3
REMARK VINA RESULT:     -10.9      3.121      8.840
REMARK  5 active torsions:
REMARK  status: ('A' for Active; 'I' for Inactive)
REMARK    1  A    between atoms: C_5  and  C_6 
REMARK    2  A    between atoms: C_6  and  C_7 
REMARK       I    between atoms: C_7  and  N_8 
REMARK    3  A    between atoms: N_8  and  C_9 
REMARK    4  A    between atoms: N_10  and  C_11 
REMARK    5  A    between atoms: C_23  and  C_24 
ROOT
HETATM    1  C   UNL     1       6.922  28.947  56.016  1.00  0.00     0.152 C 
HETATM    2  N   UNL     1       7.545  27.850  56.606  1.00  0.00    -0.044 N 
HETATM    3  N   UNL     1       8.148  28.202  57.792  1.00  0.00    -0.148 NA
HETATM    4  C   UNL     1       8.008  29.531  57.849  1.00  0.00     0.115 C 
HETATM    5  C   UNL     1       7.331  30.051  56.728  1.00  0.00     0.087 C 
ENDROOT
BRANCH   1   6
HETATM    6  N   UNL     1       6.061  28.925  54.928  1.00  0.00    -0.311 N 
HETATM    7  C   UNL     1       4.710  28.676  55.144  1.00  0.00     0.227 C 
HETATM    8  O   UNL     1       4.211  28.464  56.252  1.00  0.00    -0.273 OA
HETATM    9  H   UNL     1       6.279  29.546  54.155  1.00  0.00     0.170 HD
BRANCH   7  10
HETATM   10  C   UNL     1       3.837  28.693  53.899  1.00  0.00     0.142 C 
BRANCH  10  11
HETATM   11  C   UNL     1       4.325  27.848  52.735  1.00  0.00    -0.038 A 
HETATM   12  C   UNL     1       4.601  28.401  51.451  1.00  0.00    -0.019 A 
HETATM   13  C   UNL     1       5.104  27.546  50.438  1.00  0.00    -0.025 A 
HETATM   14  C   UNL     1       4.418  29.765  51.122  1.00  0.00     0.013 A 
HETATM   15  C   UNL     1       5.424  28.066  49.172  1.00  0.00     0.012 A 
HETATM   16  C   UNL     1       5.285  26.181  50.698  1.00  0.00     0.012 A 
HETATM   17  C   UNL     1       5.255  29.419  48.888  1.00  0.00     0.001 A 
HETATM   18  C   UNL     1       4.749  30.268  49.861  1.00  0.00     0.001 A 
HETATM   19  C   UNL     1       4.987  25.646  51.948  1.00  0.00     0.001 A 
HETATM   20  C   UNL     1       4.514  26.473  52.960  1.00  0.00     0.008 A 
ENDBRANCH  10  11
ENDBRANCH   7  10
ENDBRANCH   1   6
BRANCH   2  21
HETATM   21  C   UNL     1       7.732  26.536  56.118  1.00  0.00     0.732 A 
HETATM   22  N   UNL     1       7.687  26.198  54.869  1.00  0.00    -0.067 NA
HETATM   23  C   UNL     1       7.847  24.860  54.588  1.00  0.00     0.065 A 
HETATM   24  C   UNL     1       8.136  23.922  55.510  1.00  0.00     0.036 A 
HETATM   25  C   UNL     1       7.641  24.489  53.136  1.00  0.00     0.060 C 
HETATM   26  C   UNL     1       8.261  22.457  55.218  1.00  0.00     0.046 C 
HETATM   27  C   UNL     1       8.294  24.361  56.916  1.00  0.00     0.268 A 
HETATM   28  C   UNL     1       7.662  22.076  53.863  1.00  0.00     0.005 C 
HETATM   29  C   UNL     1       8.082  23.067  52.785  1.00  0.00     0.006 C 
HETATM   30  O   UNL     1       8.648  23.597  57.807  1.00  0.00    -0.267 OA
HETATM   31  N   UNL     1       8.015  25.671  57.142  1.00  0.00    -0.152 N 
HETATM   32  H   UNL     1       8.098  26.039  58.083  1.00  0.00     0.188 HD
ENDBRANCH   2  21
BRANCH   4  33
HETATM   33  C   UNL     1       8.482  30.346  59.007  1.00  0.00     0.105 A 
HETATM   34  O   UNL     1       8.682  29.853  60.267  1.00  0.00    -0.320 OA
HETATM   35  C   UNL     1       9.152  30.874  61.030  1.00  0.00     0.142 A 
HETATM   36  C   UNL     1       9.252  32.025  60.285  1.00  0.00     0.027 A 
HETATM   37  C   UNL     1       8.815  31.686  58.981  1.00  0.00     0.041 A 
ENDBRANCH   4  33
TORSDOF 5
ENDMDL
MODEL 4
REMARK VINA RESULT:     -10.8      2.837      7.548
REMARK  5 active torsions:
REMARK  status: ('A' for Active; 'I' for Inactive)
REMARK    1  A    between atoms: C_5  and  C_6 
REMARK    2  A    between atoms: C_6  and  C_7 
REMARK       I    between atoms: C_7  and  N_8 
REMARK    3  A    between atoms: N_8  and  C_9 
REMARK    4  A    between atoms: N_10  and  C_11 
REMARK    5  A    between atoms: C_23  and  C_24 
ROOT
HETATM    1  C   UNL     1       6.074  26.403  53.901  1.00  0.00     0.152 C 
HETATM    2  N   UNL     1       6.520  25.236  53.285  1.00  0.00    -0.044 N 
HETATM    3  N   UNL     1       6.287  25.273  51.928  1.00  0.00    -0.148 NA
HETATM    4  C   UNL     1       5.582  26.396  51.747  1.00  0.00     0.115 C 
HETATM    5  C   UNL     1       5.349  27.086  52.953  1.00  0.00     0.087 C 
ENDROOT
BRANCH   1   6
HETATM    6  N   UNL     1       6.318  26.794  55.211  1.00  0.00    -0.311 N 
HETATM    7  C   UNL     1       7.287  27.761  55.455  1.00  0.00     0.227 C 
HETATM    8  O   UNL     1       7.961  28.305  54.578  1.00  0.00    -0.273 OA
HETATM    9  H   UNL     1       5.528  26.786  55.848  1.00  0.00     0.170 HD
BRANCH   7  10
HETATM   10  C   UNL     1       7.471  28.144  56.915  1.00  0.00     0.142 C 
BRANCH  10  11
HETATM   11  C   UNL     1       8.651  29.051  57.220  1.00  0.00    -0.038 A 
HETATM   12  C   UNL     1       8.562  30.145  58.129  1.00  0.00    -0.019 A 
HETATM   13  C   UNL     1       9.729  30.905  58.393  1.00  0.00    -0.025 A 
HETATM   14  C   UNL     1       7.374  30.517  58.803  1.00  0.00     0.013 A 
HETATM   15  C   UNL     1       9.686  31.966  59.312  1.00  0.00     0.012 A 
HETATM   16  C   UNL     1      10.929  30.598  57.738  1.00  0.00     0.012 A 
HETATM   17  C   UNL     1       8.505  32.292  59.978  1.00  0.00     0.001 A 
HETATM   18  C   UNL     1       7.350  31.569  59.721  1.00  0.00     0.001 A 
HETATM   19  C   UNL     1      10.999  29.544  56.831  1.00  0.00     0.001 A 
HETATM   20  C   UNL     1       9.871  28.774  56.577  1.00  0.00     0.008 A 
ENDBRANCH  10  11
ENDBRANCH   7  10
ENDBRANCH   1   6
BRANCH   2  21
HETATM   21  C   UNL     1       7.033  24.046  53.848  1.00  0.00     0.732 A 
HETATM   22  N   UNL     1       7.216  23.847  55.115  1.00  0.00    -0.067 NA
HETATM   23  C   UNL     1       7.771  22.639  55.473  1.00  0.00     0.065 A 
HETATM   24  C   UNL     1       8.039  21.642  54.609  1.00  0.00     0.036 A 
HETATM   25  C   UNL     1       8.102  22.507  56.943  1.00  0.00     0.060 C 
HETATM   26  C   UNL     1       8.690  20.346  54.986  1.00  0.00     0.046 C 
HETATM   27  C   UNL     1       7.712  21.860  53.180  1.00  0.00     0.268 A 
HETATM   28  C   UNL     1       9.364  20.405  56.358  1.00  0.00     0.005 C 
HETATM   29  C   UNL     1       8.459  21.084  57.379  1.00  0.00     0.006 C 
HETATM   30  O   UNL     1       7.833  20.979  52.337  1.00  0.00    -0.267 OA
HETATM   31  N   UNL     1       7.271  23.109  52.878  1.00  0.00    -0.152 N 
HETATM   32  H   UNL     1       7.033  23.330  51.917  1.00  0.00     0.188 HD
ENDBRANCH   2  21
BRANCH   4  33
HETATM   33  C   UNL     1       5.144  26.868  50.401  1.00  0.00     0.105 A 
HETATM   34  O   UNL     1       4.391  26.127  49.531  1.00  0.00    -0.320 OA
HETATM   35  C   UNL     1       4.158  26.902  48.439  1.00  0.00     0.142 A 
HETATM   36  C   UNL     1       4.756  28.130  48.584  1.00  0.00     0.027 A 
HETATM   37  C   UNL     1       5.396  28.108  49.847  1.00  0.00     0.041 A 
ENDBRANCH   4  33
TORSDOF 5
ENDMDL
MODEL 5
REMARK VINA RESULT:     -10.7      1.702      2.741
REMARK  5 active torsions:
REMARK  status: ('A' for Active; 'I' for Inactive)
REMARK    1  A    between atoms: C_5  and  C_6 
REMARK    2  A    between atoms: C_6  and  C_7 
REMARK       I    between atoms: C_7  and  N_8 
REMARK    3  A    between atoms: N_8  and  C_9 
REMARK    4  A    between atoms: N_10  and  C_11 
REMARK    5  A    between atoms: C_23  and  C_24 
ROOT
HETATM    1  C   UNL     1       4.859  27.029  51.401  1.00  0.00     0.152 C 
HETATM    2  N   UNL     1       4.976  28.249  52.062  1.00  0.00    -0.044 N 
HETATM    3  N   UNL     1       4.713  29.300  51.211  1.00  0.00    -0.148 NA
HETATM    4  C   UNL     1       4.575  28.723  50.012  1.00  0.00     0.115 C 
HETATM    5  C   UNL     1       4.743  27.325  50.063  1.00  0.00     0.087 C 
ENDROOT
BRANCH   1   6
HETATM    6  N   UNL     1       4.859  25.769  51.983  1.00  0.00    -0.311 N 
HETATM    7  C   UNL     1       6.075  25.130  52.204  1.00  0.00     0.227 C 
HETATM    8  O   UNL     1       7.173  25.607  51.911  1.00  0.00    -0.273 OA
HETATM    9  H   UNL     1       4.126  25.573  52.658  1.00  0.00     0.170 HD
BRANCH   7  10
HETATM   10  C   UNL     1       5.982  23.764  52.866  1.00  0.00     0.142 C 
BRANCH  10  11
HETATM   11  C   UNL     1       7.180  23.347  53.702  1.00  0.00    -0.038 A 
HETATM   12  C   UNL     1       7.468  23.929  54.970  1.00  0.00    -0.019 A 
HETATM   13  C   UNL     1       8.578  23.441  55.705  1.00  0.00    -0.025 A 
HETATM   14  C   UNL     1       6.701  24.964  55.557  1.00  0.00     0.013 A 
HETATM   15  C   UNL     1       8.867  23.965  56.976  1.00  0.00     0.012 A 
HETATM   16  C   UNL     1       9.387  22.432  55.165  1.00  0.00     0.012 A 
HETATM   17  C   UNL     1       8.078  24.968  57.536  1.00  0.00     0.001 A 
HETATM   18  C   UNL     1       6.997  25.469  56.826  1.00  0.00     0.001 A 
HETATM   19  C   UNL     1       9.112  21.889  53.913  1.00  0.00     0.001 A 
HETATM   20  C   UNL     1       8.016  22.339  53.188  1.00  0.00     0.008 A 
ENDBRANCH  10  11
ENDBRANCH   7  10
ENDBRANCH   1   6
BRANCH   2  21
HETATM   21  C   UNL     1       5.418  28.539  53.373  1.00  0.00     0.732 A 
HETATM   22  N   UNL     1       6.655  28.525  53.755  1.00  0.00    -0.067 NA
HETATM   23  C   UNL     1       6.890  28.789  55.086  1.00  0.00     0.065 A 
HETATM   24  C   UNL     1       5.937  29.144  55.968  1.00  0.00     0.036 A 
HETATM   25  C   UNL     1       8.329  28.617  55.520  1.00  0.00     0.060 C 
HETATM   26  C   UNL     1       6.179  29.383  57.427  1.00  0.00     0.046 C 
HETATM   27  C   UNL     1       4.546  29.262  55.471  1.00  0.00     0.268 A 
HETATM   28  C   UNL     1       7.522  28.820  57.898  1.00  0.00     0.005 C 
HETATM   29  C   UNL     1       8.632  29.168  56.915  1.00  0.00     0.006 C 
HETATM   30  O   UNL     1       3.630  29.670  56.175  1.00  0.00    -0.267 OA
HETATM   31  N   UNL     1       4.366  28.883  54.179  1.00  0.00    -0.152 N 
HETATM   32  H   UNL     1       3.437  28.933  53.775  1.00  0.00     0.188 HD
ENDBRANCH   2  21
BRANCH   4  33
HETATM   33  C   UNL     1       4.232  29.491  48.779  1.00  0.00     0.105 A 
HETATM   34  O   UNL     1       3.174  29.206  47.960  1.00  0.00    -0.320 OA
HETATM   35  C   UNL     1       3.161  30.141  46.976  1.00  0.00     0.142 A 
HETATM   36  C   UNL     1       4.199  31.026  47.139  1.00  0.00     0.027 A 
HETATM   37  C   UNL     1       4.894  30.605  48.299  1.00  0.00     0.041 A 
ENDBRANCH   4  33
TORSDOF 5
ENDMDL
MODEL 6
REMARK VINA RESULT:     -10.6      1.596      5.796
REMARK  5 active torsions:
REMARK  status: ('A' for Active; 'I' for Inactive)
REMARK    1  A    between atoms: C_5  and  C_6 
REMARK    2  A    between atoms: C_6  and  C_7 
REMARK       I    between atoms: C_7  and  N_8 
REMARK    3  A    between atoms: N_8  and  C_9 
REMARK    4  A    between atoms: N_10  and  C_11 
REMARK    5  A    between atoms: C_23  and  C_24 
ROOT
HETATM    1  C   UNL     1       4.950  27.692  54.311  1.00  0.00     0.152 C 
HETATM    2  N   UNL     1       4.388  28.627  53.445  1.00  0.00    -0.044 N 
HETATM    3  N   UNL     1       4.150  29.820  54.091  1.00  0.00    -0.148 NA
HETATM    4  C   UNL     1       4.439  29.561  55.372  1.00  0.00     0.115 C 
HETATM    5  C   UNL     1       4.856  28.231  55.573  1.00  0.00     0.087 C 
ENDROOT
BRANCH   1   6
HETATM    6  N   UNL     1       5.496  26.464  53.963  1.00  0.00    -0.311 N 
HETATM    7  C   UNL     1       6.843  26.399  53.623  1.00  0.00     0.227 C 
HETATM    8  O   UNL     1       7.601  27.370  53.602  1.00  0.00    -0.273 OA
HETATM    9  H   UNL     1       5.114  25.644  54.423  1.00  0.00     0.170 HD
BRANCH   7  10
HETATM   10  C   UNL     1       7.360  25.011  53.278  1.00  0.00     0.142 C 
BRANCH  10  11
HETATM   11  C   UNL     1       7.720  24.124  54.457  1.00  0.00    -0.038 A 
HETATM   12  C   UNL     1       7.996  22.733  54.313  1.00  0.00    -0.019 A 
HETATM   13  C   UNL     1       8.375  21.994  55.462  1.00  0.00    -0.025 A 
HETATM   14  C   UNL     1       7.928  22.037  53.083  1.00  0.00     0.013 A 
HETATM   15  C   UNL     1       8.692  20.630  55.350  1.00  0.00     0.012 A 
HETATM   16  C   UNL     1       8.438  22.624  56.712  1.00  0.00     0.012 A 
HETATM   17  C   UNL     1       8.639  19.980  54.118  1.00  0.00     0.001 A 
HETATM   18  C   UNL     1       8.255  20.683  52.986  1.00  0.00     0.001 A 
HETATM   19  C   UNL     1       8.140  23.978  56.846  1.00  0.00     0.001 A 
HETATM   20  C   UNL     1       7.788  24.723  55.728  1.00  0.00     0.008 A 
ENDBRANCH  10  11
ENDBRANCH   7  10
ENDBRANCH   1   6
BRANCH   2  21
HETATM   21  C   UNL     1       3.946  28.484  52.110  1.00  0.00     0.732 A 
HETATM   22  N   UNL     1       4.481  27.694  51.235  1.00  0.00    -0.067 NA
HETATM   23  C   UNL     1       3.941  27.724  49.969  1.00  0.00     0.065 A 
HETATM   24  C   UNL     1       2.855  28.441  49.625  1.00  0.00     0.036 A 
HETATM   25  C   UNL     1       4.688  26.899  48.944  1.00  0.00     0.060 C 
HETATM   26  C   UNL     1       2.294  28.517  48.237  1.00  0.00     0.046 C 
HETATM   27  C   UNL     1       2.197  29.247  50.680  1.00  0.00     0.268 A 
HETATM   28  C   UNL     1       3.279  28.018  47.178  1.00  0.00     0.005 C 
HETATM   29  C   UNL     1       3.940  26.718  47.621  1.00  0.00     0.006 C 
HETATM   30  O   UNL     1       1.152  29.856  50.485  1.00  0.00    -0.267 OA
HETATM   31  N   UNL     1       2.842  29.261  51.876  1.00  0.00    -0.152 N 
HETATM   32  H   UNL     1       2.450  29.796  52.642  1.00  0.00     0.188 HD
ENDBRANCH   2  21
BRANCH   4  33
HETATM   33  C   UNL     1       4.366  30.598  56.443  1.00  0.00     0.105 A 
HETATM   34  O   UNL     1       5.142  31.725  56.481  1.00  0.00    -0.320 OA
HETATM   35  C   UNL     1       4.762  32.440  57.571  1.00  0.00     0.142 A 
HETATM   36  C   UNL     1       3.756  31.792  58.246  1.00  0.00     0.027 A 
HETATM   37  C   UNL     1       3.503  30.601  57.522  1.00  0.00     0.041 A 
ENDBRANCH   4  33
TORSDOF 5
ENDMDL
MODEL 7
REMARK VINA RESULT:     -10.6      2.801      7.368
REMARK  5 active torsions:
REMARK  status: ('A' for Active; 'I' for Inactive)
REMARK    1  A    between atoms: C_5  and  C_6 
REMARK    2  A    between atoms: C_6  and  C_7 
REMARK       I    between atoms: C_7  and  N_8 
REMARK    3  A    between atoms: N_8  and  C_9 
REMARK    4  A    between atoms: N_10  and  C_11 
REMARK    5  A    between atoms: C_23  and  C_24 
ROOT
HETATM    1  C   UNL     1       5.618  26.745  53.909  1.00  0.00     0.152 C 
HETATM    2  N   UNL     1       6.138  25.616  53.281  1.00  0.00    -0.044 N 
HETATM    3  N   UNL     1       5.866  25.630  51.931  1.00  0.00    -0.148 NA
HETATM    4  C   UNL     1       5.068  26.691  51.770  1.00  0.00     0.115 C 
HETATM    5  C   UNL     1       4.813  27.365  52.981  1.00  0.00     0.087 C 
ENDROOT
BRANCH   1   6
HETATM    6  N   UNL     1       5.866  27.158  55.211  1.00  0.00    -0.311 N 
HETATM    7  C   UNL     1       6.872  28.090  55.441  1.00  0.00     0.227 C 
HETATM    8  O   UNL     1       7.577  28.582  54.558  1.00  0.00    -0.273 OA
HETATM    9  H   UNL     1       5.070  27.199  55.840  1.00  0.00     0.170 HD
BRANCH   7  10
HETATM   10  C   UNL     1       7.060  28.501  56.893  1.00  0.00     0.142 C 
BRANCH  10  11
HETATM   11  C   UNL     1       8.343  29.248  57.211  1.00  0.00    -0.038 A 
HETATM   12  C   UNL     1       8.395  30.316  58.153  1.00  0.00    -0.019 A 
HETATM   13  C   UNL     1       9.648  30.920  58.427  1.00  0.00    -0.025 A 
HETATM   14  C   UNL     1       7.266  30.808  58.852  1.00  0.00     0.013 A 
HETATM   15  C   UNL     1       9.741  31.949  59.379  1.00  0.00     0.012 A 
HETATM   16  C   UNL     1      10.796  30.490  57.749  1.00  0.00     0.012 A 
HETATM   17  C   UNL     1       8.614  32.395  60.067  1.00  0.00     0.001 A 
HETATM   18  C   UNL     1       7.377  31.826  59.802  1.00  0.00     0.001 A 
HETATM   19  C   UNL     1      10.731  29.464  56.811  1.00  0.00     0.001 A 
HETATM   20  C   UNL     1       9.515  28.845  56.546  1.00  0.00     0.008 A 
ENDBRANCH  10  11
ENDBRANCH   7  10
ENDBRANCH   1   6
BRANCH   2  21
HETATM   21  C   UNL     1       6.762  24.472  53.831  1.00  0.00     0.732 A 
HETATM   22  N   UNL     1       7.131  23.434  53.151  1.00  0.00    -0.067 NA
HETATM   23  C   UNL     1       7.682  22.395  53.867  1.00  0.00     0.065 A 
HETATM   24  C   UNL     1       7.937  22.437  55.188  1.00  0.00     0.036 A 
HETATM   25  C   UNL     1       7.962  21.148  53.058  1.00  0.00     0.060 C 
HETATM   26  C   UNL     1       8.489  21.291  55.982  1.00  0.00     0.046 C 
HETATM   27  C   UNL     1       7.607  23.685  55.916  1.00  0.00     0.268 A 
HETATM   28  C   UNL     1       8.379  19.958  55.240  1.00  0.00     0.005 C 
HETATM   29  C   UNL     1       8.814  20.106  53.787  1.00  0.00     0.006 C 
HETATM   30  O   UNL     1       7.889  23.850  57.097  1.00  0.00    -0.267 OA
HETATM   31  N   UNL     1       6.967  24.627  55.176  1.00  0.00    -0.152 N 
HETATM   32  H   UNL     1       6.707  25.505  55.612  1.00  0.00     0.188 HD
ENDBRANCH   2  21
BRANCH   4  33
HETATM   33  C   UNL     1       4.556  27.123  50.436  1.00  0.00     0.105 A 
HETATM   34  O   UNL     1       3.960  28.330  50.191  1.00  0.00    -0.320 OA
HETATM   35  C   UNL     1       3.671  28.375  48.865  1.00  0.00     0.142 A 
HETATM   36  C   UNL     1       4.061  27.213  48.246  1.00  0.00     0.027 A 
HETATM   37  C   UNL     1       4.628  26.402  49.260  1.00  0.00     0.041 A 
ENDBRANCH   4  33
TORSDOF 5
ENDMDL
MODEL 8
REMARK VINA RESULT:     -10.5      2.270      7.631
REMARK  5 active torsions:
REMARK  status: ('A' for Active; 'I' for Inactive)
REMARK    1  A    between atoms: C_5  and  C_6 
REMARK    2  A    between atoms: C_6  and  C_7 
REMARK       I    between atoms: C_7  and  N_8 
REMARK    3  A    between atoms: N_8  and  C_9 
REMARK    4  A    between atoms: N_10  and  C_11 
REMARK    5  A    between atoms: C_23  and  C_24 
ROOT
HETATM    1  C   UNL     1       7.110  25.116  53.206  1.00  0.00     0.152 C 
HETATM    2  N   UNL     1       7.160  25.476  54.551  1.00  0.00    -0.044 N 
HETATM    3  N   UNL     1       7.574  24.419  55.331  1.00  0.00    -0.148 NA
HETATM    4  C   UNL     1       7.641  23.390  54.479  1.00  0.00     0.115 C 
HETATM    5  C   UNL     1       7.278  23.751  53.166  1.00  0.00     0.087 C 
ENDROOT
BRANCH   1   6
HETATM    6  N   UNL     1       6.929  25.970  52.127  1.00  0.00    -0.311 N 
HETATM    7  C   UNL     1       5.685  26.015  51.507  1.00  0.00     0.227 C 
HETATM    8  O   UNL     1       4.714  25.337  51.848  1.00  0.00    -0.273 OA
HETATM    9  H   UNL     1       7.453  26.839  52.134  1.00  0.00     0.170 HD
BRANCH   7  10
HETATM   10  C   UNL     1       5.570  26.994  50.348  1.00  0.00     0.142 C 
BRANCH  10  11
HETATM   11  C   UNL     1       4.217  27.662  50.175  1.00  0.00    -0.038 A 
HETATM   12  C   UNL     1       3.346  27.359  49.089  1.00  0.00    -0.019 A 
HETATM   13  C   UNL     1       2.079  27.993  49.038  1.00  0.00    -0.025 A 
HETATM   14  C   UNL     1       3.661  26.445  48.055  1.00  0.00     0.013 A 
HETATM   15  C   UNL     1       1.180  27.688  48.002  1.00  0.00     0.012 A 
HETATM   16  C   UNL     1       1.720  28.924  50.022  1.00  0.00     0.012 A 
HETATM   17  C   UNL     1       1.511  26.765  47.012  1.00  0.00     0.001 A 
HETATM   18  C   UNL     1       2.752  26.146  47.037  1.00  0.00     0.001 A 
HETATM   19  C   UNL     1       2.590  29.234  51.064  1.00  0.00     0.001 A 
HETATM   20  C   UNL     1       3.826  28.606  51.143  1.00  0.00     0.008 A 
ENDBRANCH  10  11
ENDBRANCH   7  10
ENDBRANCH   1   6
BRANCH   2  21
HETATM   21  C   UNL     1       6.752  26.667  55.193  1.00  0.00     0.732 A 
HETATM   22  N   UNL     1       5.779  27.424  54.795  1.00  0.00    -0.067 NA
HETATM   23  C   UNL     1       5.556  28.571  55.523  1.00  0.00     0.065 A 
HETATM   24  C   UNL     1       6.216  28.893  56.651  1.00  0.00     0.036 A 
HETATM   25  C   UNL     1       4.512  29.497  54.940  1.00  0.00     0.060 C 
HETATM   26  C   UNL     1       6.014  30.164  57.419  1.00  0.00     0.046 C 
HETATM   27  C   UNL     1       7.246  27.947  57.142  1.00  0.00     0.268 A 
HETATM   28  C   UNL     1       5.273  31.228  56.606  1.00  0.00     0.005 C 
HETATM   29  C   UNL     1       4.077  30.623  55.881  1.00  0.00     0.006 C 
HETATM   30  O   UNL     1       7.831  28.108  58.207  1.00  0.00    -0.267 OA
HETATM   31  N   UNL     1       7.493  26.893  56.321  1.00  0.00    -0.152 N 
HETATM   32  H   UNL     1       8.190  26.209  56.593  1.00  0.00     0.188 HD
ENDBRANCH   2  21
BRANCH   4  33
HETATM   33  C   UNL     1       8.098  22.029  54.887  1.00  0.00     0.105 A 
HETATM   34  O   UNL     1       8.360  21.008  54.015  1.00  0.00    -0.320 OA
HETATM   35  C   UNL     1       8.791  19.950  54.750  1.00  0.00     0.142 A 
HETATM   36  C   UNL     1       8.805  20.266  56.087  1.00  0.00     0.027 A 
HETATM   37  C   UNL     1       8.354  21.606  56.177  1.00  0.00     0.041 A 
ENDBRANCH   4  33
TORSDOF 5
ENDMDL
MODEL 9
REMARK VINA RESULT:     -10.4      2.621      7.909
REMARK  5 active torsions:
REMARK  status: ('A' for Active; 'I' for Inactive)
REMARK    1  A    between atoms: C_5  and  C_6 
REMARK    2  A    between atoms: C_6  and  C_7 
REMARK       I    between atoms: C_7  and  N_8 
REMARK    3  A    between atoms: N_8  and  C_9 
REMARK    4  A    between atoms: N_10  and  C_11 
REMARK    5  A    between atoms: C_23  and  C_24 
ROOT
HETATM    1  C   UNL     1       6.845  26.412  54.069  1.00  0.00     0.152 C 
HETATM    2  N   UNL     1       6.012  25.980  53.039  1.00  0.00    -0.044 N 
HETATM    3  N   UNL     1       6.095  24.615  52.877  1.00  0.00    -0.148 NA
HETATM    4  C   UNL     1       7.073  24.244  53.711  1.00  0.00     0.115 C 
HETATM    5  C   UNL     1       7.629  25.335  54.408  1.00  0.00     0.087 C 
ENDROOT
BRANCH   1   6
HETATM    6  N   UNL     1       6.871  27.679  54.636  1.00  0.00    -0.311 N 
HETATM    7  C   UNL     1       6.643  27.810  56.002  1.00  0.00     0.227 C 
HETATM    8  O   UNL     1       6.409  26.866  56.760  1.00  0.00    -0.273 OA
HETATM    9  H   UNL     1       7.509  28.354  54.227  1.00  0.00     0.170 HD
BRANCH   7  10
HETATM   10  C   UNL     1       6.712  29.230  56.541  1.00  0.00     0.142 C 
BRANCH  10  11
HETATM   11  C   UNL     1       8.089  29.715  56.959  1.00  0.00    -0.038 A 
HETATM   12  C   UNL     1       8.289  30.601  58.057  1.00  0.00    -0.019 A 
HETATM   13  C   UNL     1       9.615  30.959  58.409  1.00  0.00    -0.025 A 
HETATM   14  C   UNL     1       7.238  31.143  58.836  1.00  0.00     0.013 A 
HETATM   15  C   UNL     1       9.849  31.800  59.509  1.00  0.00     0.012 A 
HETATM   16  C   UNL     1      10.694  30.472  57.660  1.00  0.00     0.012 A 
HETATM   17  C   UNL     1       8.793  32.297  60.271  1.00  0.00     0.001 A 
HETATM   18  C   UNL     1       7.489  31.971  59.933  1.00  0.00     0.001 A 
HETATM   19  C   UNL     1      10.487  29.627  56.573  1.00  0.00     0.001 A 
HETATM   20  C   UNL     1       9.196  29.248  56.227  1.00  0.00     0.008 A 
ENDBRANCH  10  11
ENDBRANCH   7  10
ENDBRANCH   1   6
BRANCH   2  21
HETATM   21  C   UNL     1       5.238  26.722  52.119  1.00  0.00     0.732 A 
HETATM   22  N   UNL     1       4.600  27.813  52.402  1.00  0.00    -0.067 NA
HETATM   23  C   UNL     1       3.859  28.373  51.384  1.00  0.00     0.065 A 
HETATM   24  C   UNL     1       3.839  27.912  50.120  1.00  0.00     0.036 A 
HETATM   25  C   UNL     1       3.015  29.559  51.796  1.00  0.00     0.060 C 
HETATM   26  C   UNL     1       2.995  28.485  49.022  1.00  0.00     0.046 C 
HETATM   27  C   UNL     1       4.671  26.727  49.803  1.00  0.00     0.268 A 
HETATM   28  C   UNL     1       1.883  29.392  49.550  1.00  0.00     0.005 C 
HETATM   29  C   UNL     1       2.413  30.336  50.623  1.00  0.00     0.006 C 
HETATM   30  O   UNL     1       4.790  26.293  48.663  1.00  0.00    -0.267 OA
HETATM   31  N   UNL     1       5.289  26.159  50.872  1.00  0.00    -0.152 N 
HETATM   32  H   UNL     1       5.871  25.341  50.728  1.00  0.00     0.188 HD
ENDBRANCH   2  21
BRANCH   4  33
HETATM   33  C   UNL     1       7.480  22.821  53.899  1.00  0.00     0.105 A 
HETATM   34  O   UNL     1       7.480  22.170  55.103  1.00  0.00    -0.320 OA
HETATM   35  C   UNL     1       7.866  20.890  54.870  1.00  0.00     0.142 A 
HETATM   36  C   UNL     1       8.125  20.700  53.534  1.00  0.00     0.027 A 
HETATM   37  C   UNL     1       7.881  21.946  52.908  1.00  0.00     0.041 A 
ENDBRANCH   4  33
TORSDOF 5
ENDMDL
MODEL 10
REMARK VINA RESULT:     -10.4      3.192      8.012
REMARK  5 active torsions:
REMARK  status: ('A' for Active; 'I' for Inactive)
REMARK    1  A    between atoms: C_5  and  C_6 
REMARK    2  A    between atoms: C_6  and  C_7 
REMARK       I    between atoms: C_7  and  N_8 
REMARK    3  A    between atoms: N_8  and  C_9 
REMARK    4  A    between atoms: N_10  and  C_11 
REMARK    5  A    between atoms: C_23  and  C_24 
ROOT
HETATM    1  C   UNL     1       6.659  27.534  54.806  1.00  0.00     0.152 C 
HETATM    2  N   UNL     1       6.978  26.371  54.110  1.00  0.00    -0.044 N 
HETATM    3  N   UNL     1       6.714  26.510  52.765  1.00  0.00    -0.148 NA
HETATM    4  C   UNL     1       6.111  27.701  52.672  1.00  0.00     0.115 C 
HETATM    5  C   UNL     1       5.974  28.336  53.922  1.00  0.00     0.087 C 
ENDROOT
BRANCH   1   6
HETATM    6  N   UNL     1       6.972  27.822  56.127  1.00  0.00    -0.311 N 
HETATM    7  C   UNL     1       7.999  28.721  56.394  1.00  0.00     0.227 C 
HETATM    8  O   UNL     1       8.667  29.289  55.528  1.00  0.00    -0.273 OA
HETATM    9  H   UNL     1       6.208  27.810  56.795  1.00  0.00     0.170 HD
BRANCH   7  10
HETATM   10  C   UNL     1       8.259  28.993  57.868  1.00  0.00     0.142 C 
BRANCH  10  11
HETATM   11  C   UNL     1       7.542  30.195  58.458  1.00  0.00    -0.038 A 
HETATM   12  C   UNL     1       7.959  30.818  59.670  1.00  0.00    -0.019 A 
HETATM   13  C   UNL     1       7.262  31.968  60.118  1.00  0.00    -0.025 A 
HETATM   14  C   UNL     1       9.046  30.366  60.456  1.00  0.00     0.013 A 
HETATM   15  C   UNL     1       7.672  32.629  61.288  1.00  0.00     0.012 A 
HETATM   16  C   UNL     1       6.164  32.449  59.392  1.00  0.00     0.012 A 
HETATM   17  C   UNL     1       8.761  32.172  62.027  1.00  0.00     0.001 A 
HETATM   18  C   UNL     1       9.446  31.039  61.613  1.00  0.00     0.001 A 
HETATM   19  C   UNL     1       5.747  31.818  58.223  1.00  0.00     0.001 A 
HETATM   20  C   UNL     1       6.432  30.702  57.757  1.00  0.00     0.008 A 
ENDBRANCH  10  11
ENDBRANCH   7  10
ENDBRANCH   1   6
BRANCH   2  21
HETATM   21  C   UNL     1       7.395  25.107  54.587  1.00  0.00     0.732 A 
HETATM   22  N   UNL     1       7.438  24.026  53.875  1.00  0.00    -0.067 NA
HETATM   23  C   UNL     1       7.827  22.877  54.527  1.00  0.00     0.065 A 
HETATM   24  C   UNL     1       8.246  22.836  55.805  1.00  0.00     0.036 A 
HETATM   25  C   UNL     1       7.722  21.615  53.699  1.00  0.00     0.060 C 
HETATM   26  C   UNL     1       8.622  21.581  56.534  1.00  0.00     0.046 C 
HETATM   27  C   UNL     1       8.293  24.111  56.558  1.00  0.00     0.268 A 
HETATM   28  C   UNL     1       8.129  20.320  55.822  1.00  0.00     0.005 C 
HETATM   29  C   UNL     1       8.404  20.397  54.326  1.00  0.00     0.006 C 
HETATM   30  O   UNL     1       8.747  24.187  57.694  1.00  0.00    -0.267 OA
HETATM   31  N   UNL     1       7.792  25.186  55.895  1.00  0.00    -0.152 N 
HETATM   32  H   UNL     1       7.789  26.091  56.353  1.00  0.00     0.188 HD
ENDBRANCH   2  21
BRANCH   4  33
HETATM   33  C   UNL     1       5.682  28.290  51.370  1.00  0.00     0.105 A 
HETATM   34  O   UNL     1       5.440  27.564  50.235  1.00  0.00    -0.320 OA
HETATM   35  C   UNL     1       5.033  28.436  49.277  1.00  0.00     0.142 A 
HETATM   36  C   UNL     1       5.014  29.719  49.769  1.00  0.00     0.027 A 
HETATM   37  C   UNL     1       5.437  29.626  51.118  1.00  0.00     0.041 A 
ENDBRANCH   4  33
TORSDOF 5
ENDMDL
