MODEL 1
REMARK VINA RESULT:     -10.2      0.000      0.000
REMARK  4 active torsions:
REMARK  status: ('A' for Active; 'I' for Inactive)
REMARK    1  A    between atoms: C_3  and  C_4 
REMARK    2  A    between atoms: C_5  and  C_6 
REMARK       I    between atoms: C_6  and  N_7 
REMARK    3  A    between atoms: N_7  and  C_8 
REMARK    4  A    between atoms: C_15  and  C_16 
REMARK       I    between atoms: C_16  and  N_17 
ROOT
HETATM    1  C   UNL     1       7.230  27.776  56.095  1.00  0.00     0.035 A 
HETATM    2  C   UNL     1       8.188  28.672  56.590  1.00  0.00     0.046 A 
HETATM    3  C   UNL     1       7.787  29.720  57.446  1.00  0.00     0.030 A 
HETATM    4  C   UNL     1       6.444  29.837  57.780  1.00  0.00     0.063 A 
HETATM    5  N   UNL     1       6.371  30.918  58.615  1.00  0.00    -0.277 N 
HETATM    6  H   UNL     1       5.542  31.294  59.059  1.00  0.00     0.189 HD
HETATM    7  N   UNL     1       7.548  31.521  58.849  1.00  0.00    -0.168 NA
HETATM    8  C   UNL     1       8.435  30.792  58.131  1.00  0.00     0.156 A 
HETATM    9  C   UNL     1       5.462  28.969  57.300  1.00  0.00     0.034 A 
HETATM   10  C   UNL     1       5.884  27.940  56.449  1.00  0.00     0.032 A 
ENDROOT
BRANCH   1  11
HETATM   11  N   UNL     1       7.543  26.680  55.261  1.00  0.00    -0.327 N 
HETATM   12  C   UNL     1       7.380  26.601  53.897  1.00  0.00     0.227 C 
HETATM   13  O   UNL     1       6.855  27.421  53.160  1.00  0.00    -0.273 OA
HETATM   14  H   UNL     1       7.973  25.886  55.711  1.00  0.00     0.169 HD
BRANCH  12  15
HETATM   15  C   UNL     1       7.932  25.372  53.263  1.00  0.00     0.087 A 
HETATM   16  C   UNL     1       6.975  24.183  53.188  1.00  0.00     0.034 A 
HETATM   17  C   UNL     1       7.558  24.783  51.934  1.00  0.00     0.025 A 
BRANCH  16  18
HETATM   18  C   UNL     1       7.417  22.849  53.747  1.00  0.00    -0.031 A 
HETATM   19  C   UNL     1       7.884  21.852  52.866  1.00  0.00     0.009 A 
HETATM   20  C   UNL     1       8.355  20.620  53.327  1.00  0.00     0.001 A 
HETATM   21  C   UNL     1       8.378  20.353  54.691  1.00  0.00     0.002 A 
HETATM   22  C   UNL     1       7.935  21.321  55.590  1.00  0.00     0.024 A 
HETATM   23  C   UNL     1       7.467  22.555  55.124  1.00  0.00     0.040 A 
HETATM   24 CL   UNL     1       6.985  23.722  56.306  1.00  0.00    -0.084 Cl
ENDBRANCH  16  18
ENDBRANCH  12  15
ENDBRANCH   1  11
BRANCH   8  25
HETATM   25  C   UNL     1       9.864  31.133  58.117  1.00  0.00     0.270 C 
HETATM   26  N   UNL     1      10.677  30.119  57.690  1.00  0.00    -0.365 N 
HETATM   27  H   UNL     1      10.255  29.236  57.427  1.00  0.00     0.159 HD
HETATM   28  H   UNL     1      11.674  30.262  57.652  1.00  0.00     0.159 HD
HETATM   29  O   UNL     1      10.329  32.218  58.450  1.00  0.00    -0.266 OA
ENDBRANCH   8  25
TORSDOF 4
ENDMDL
MODEL 2
REMARK VINA RESULT:     -10.2      1.842      2.916
REMARK  4 active torsions:
REMARK  status: ('A' for Active; 'I' for Inactive)
REMARK    1  A    between atoms: C_3  and  C_4 
REMARK    2  A    between atoms: C_5  and  C_6 
REMARK       I    between atoms: C_6  and  N_7 
REMARK    3  A    between atoms: N_7  and  C_8 
REMARK    4  A    between atoms: C_15  and  C_16 
REMARK       I    between atoms: C_16  and  N_17 
ROOT
HETATM    1  C   UNL     1       8.288  28.293  57.425  1.00  0.00     0.035 A 
HETATM    2  C   UNL     1       7.782  29.245  58.321  1.00  0.00     0.046 A 
HETATM    3  C   UNL     1       8.536  30.403  58.611  1.00  0.00     0.030 A 
HETATM    4  C   UNL     1       9.770  30.570  57.996  1.00  0.00     0.063 A 
HETATM    5  N   UNL     1      10.245  31.766  58.458  1.00  0.00    -0.277 N 
HETATM    6  H   UNL     1      11.122  32.212  58.216  1.00  0.00     0.189 HD
HETATM    7  N   UNL     1       9.434  32.389  59.327  1.00  0.00    -0.168 NA
HETATM    8  C   UNL     1       8.371  31.557  59.433  1.00  0.00     0.156 A 
HETATM    9  C   UNL     1      10.309  29.640  57.105  1.00  0.00     0.034 A 
HETATM   10  C   UNL     1       9.543  28.498  56.837  1.00  0.00     0.032 A 
ENDROOT
BRANCH   1  11
HETATM   11  N   UNL     1       7.590  27.124  57.050  1.00  0.00    -0.327 N 
HETATM   12  C   UNL     1       7.337  26.682  55.772  1.00  0.00     0.227 C 
HETATM   13  O   UNL     1       7.583  27.256  54.722  1.00  0.00    -0.273 OA
HETATM   14  H   UNL     1       7.283  26.526  57.803  1.00  0.00     0.169 HD
BRANCH  12  15
HETATM   15  C   UNL     1       6.702  25.339  55.680  1.00  0.00     0.087 A 
HETATM   16  C   UNL     1       7.595  24.160  56.063  1.00  0.00     0.034 A 
HETATM   17  C   UNL     1       6.315  24.431  56.812  1.00  0.00     0.025 A 
BRANCH  16  18
HETATM   18  C   UNL     1       7.755  23.013  55.090  1.00  0.00    -0.031 A 
HETATM   19  C   UNL     1       7.674  23.267  53.706  1.00  0.00     0.009 A 
HETATM   20  C   UNL     1       7.866  22.260  52.757  1.00  0.00     0.001 A 
HETATM   21  C   UNL     1       8.154  20.964  53.170  1.00  0.00     0.002 A 
HETATM   22  C   UNL     1       8.254  20.681  54.530  1.00  0.00     0.024 A 
HETATM   23  C   UNL     1       8.063  21.694  55.477  1.00  0.00     0.040 A 
HETATM   24 CL   UNL     1       8.257  21.273  57.144  1.00  0.00    -0.084 Cl
ENDBRANCH  16  18
ENDBRANCH  12  15
ENDBRANCH   1  11
BRANCH   8  25
HETATM   25  C   UNL     1       7.236  31.881  60.309  1.00  0.00     0.270 C 
HETATM   26  N   UNL     1       7.192  31.149  61.463  1.00  0.00    -0.365 N 
HETATM   27  H   UNL     1       7.915  30.458  61.627  1.00  0.00     0.159 HD
HETATM   28  H   UNL     1       6.444  31.301  62.121  1.00  0.00     0.159 HD
HETATM   29  O   UNL     1       6.381  32.725  60.063  1.00  0.00    -0.266 OA
ENDBRANCH   8  25
TORSDOF 4
ENDMDL
MODEL 3
REMARK VINA RESULT:      -9.9      4.774      9.927
REMARK  4 active torsions:
REMARK  status: ('A' for Active; 'I' for Inactive)
REMARK    1  A    between atoms: C_3  and  C_4 
REMARK    2  A    between atoms: C_5  and  C_6 
REMARK       I    between atoms: C_6  and  N_7 
REMARK    3  A    between atoms: N_7  and  C_8 
REMARK    4  A    between atoms: C_15  and  C_16 
REMARK       I    between atoms: C_16  and  N_17 
ROOT
HETATM    1  C   UNL     1       8.554  29.861  58.206  1.00  0.00     0.035 A 
HETATM    2  C   UNL     1       7.328  29.411  57.695  1.00  0.00     0.046 A 
HETATM    3  C   UNL     1       7.252  28.953  56.362  1.00  0.00     0.030 A 
HETATM    4  C   UNL     1       8.404  28.958  55.585  1.00  0.00     0.063 A 
HETATM    5  N   UNL     1       8.024  28.457  54.371  1.00  0.00    -0.277 N 
HETATM    6  H   UNL     1       8.609  28.311  53.557  1.00  0.00     0.189 HD
HETATM    7  N   UNL     1       6.724  28.133  54.285  1.00  0.00    -0.168 NA
HETATM    8  C   UNL     1       6.232  28.435  55.509  1.00  0.00     0.156 A 
HETATM    9  C   UNL     1       9.639  29.405  56.058  1.00  0.00     0.034 A 
HETATM   10  C   UNL     1       9.687  29.859  57.382  1.00  0.00     0.032 A 
ENDROOT
BRANCH   1  11
HETATM   11  N   UNL     1       8.730  30.305  59.535  1.00  0.00    -0.327 N 
HETATM   12  C   UNL     1       8.961  31.595  59.955  1.00  0.00     0.227 C 
HETATM   13  O   UNL     1       9.148  32.583  59.263  1.00  0.00    -0.273 OA
HETATM   14  H   UNL     1       8.632  29.606  60.256  1.00  0.00     0.169 HD
BRANCH  12  15
HETATM   15  C   UNL     1       8.964  31.789  61.432  1.00  0.00     0.087 A 
HETATM   16  C   UNL     1       7.613  31.608  62.123  1.00  0.00     0.034 A 
HETATM   17  C   UNL     1       8.789  30.739  62.492  1.00  0.00     0.025 A 
BRANCH  16  18
HETATM   18  C   UNL     1       7.091  32.712  63.014  1.00  0.00    -0.031 A 
HETATM   19  C   UNL     1       7.606  32.847  64.320  1.00  0.00     0.009 A 
HETATM   20  C   UNL     1       7.202  33.878  65.170  1.00  0.00     0.001 A 
HETATM   21  C   UNL     1       6.272  34.814  64.733  1.00  0.00     0.002 A 
HETATM   22  C   UNL     1       5.752  34.718  63.445  1.00  0.00     0.024 A 
HETATM   23  C   UNL     1       6.162  33.684  62.594  1.00  0.00     0.040 A 
HETATM   24 CL   UNL     1       5.510  33.665  60.991  1.00  0.00    -0.084 Cl
ENDBRANCH  16  18
ENDBRANCH  12  15
ENDBRANCH   1  11
BRANCH   8  25
HETATM   25  C   UNL     1       4.813  28.225  55.833  1.00  0.00     0.270 C 
HETATM   26  N   UNL     1       4.573  27.123  56.607  1.00  0.00    -0.365 N 
HETATM   27  H   UNL     1       5.358  26.548  56.890  1.00  0.00     0.159 HD
HETATM   28  H   UNL     1       3.628  26.899  56.875  1.00  0.00     0.159 HD
HETATM   29  O   UNL     1       3.896  28.949  55.461  1.00  0.00    -0.266 OA
ENDBRANCH   8  25
TORSDOF 4
ENDMDL
MODEL 4
REMARK VINA RESULT:      -9.7      1.766      2.728
REMARK  4 active torsions:
REMARK  status: ('A' for Active; 'I' for Inactive)
REMARK    1  A    between atoms: C_3  and  C_4 
REMARK    2  A    between atoms: C_5  and  C_6 
REMARK       I    between atoms: C_6  and  N_7 
REMARK    3  A    between atoms: N_7  and  C_8 
REMARK    4  A    between atoms: C_15  and  C_16 
REMARK       I    between atoms: C_16  and  N_17 
ROOT
HETATM    1  C   UNL     1       7.654  28.213  56.220  1.00  0.00     0.035 A 
HETATM    2  C   UNL     1       6.454  28.848  56.569  1.00  0.00     0.046 A 
HETATM    3  C   UNL     1       6.476  29.943  57.460  1.00  0.00     0.030 A 
HETATM    4  C   UNL     1       7.696  30.367  57.971  1.00  0.00     0.063 A 
HETATM    5  N   UNL     1       7.400  31.430  58.778  1.00  0.00    -0.277 N 
HETATM    6  H   UNL     1       8.050  31.993  59.313  1.00  0.00     0.189 HD
HETATM    7  N   UNL     1       6.093  31.732  58.846  1.00  0.00    -0.168 NA
HETATM    8  C   UNL     1       5.507  30.819  58.036  1.00  0.00     0.156 A 
HETATM    9  C   UNL     1       8.909  29.755  57.652  1.00  0.00     0.034 A 
HETATM   10  C   UNL     1       8.860  28.668  56.769  1.00  0.00     0.032 A 
ENDROOT
BRANCH   1  11
HETATM   11  N   UNL     1       7.732  27.134  55.312  1.00  0.00    -0.327 N 
HETATM   12  C   UNL     1       7.465  27.164  53.962  1.00  0.00     0.227 C 
HETATM   13  O   UNL     1       7.024  28.098  53.310  1.00  0.00    -0.273 OA
HETATM   14  H   UNL     1       8.063  26.258  55.687  1.00  0.00     0.169 HD
BRANCH  12  15
HETATM   15  C   UNL     1       7.771  25.906  53.228  1.00  0.00     0.087 A 
HETATM   16  C   UNL     1       6.747  24.783  53.387  1.00  0.00     0.034 A 
HETATM   17  C   UNL     1       7.059  25.352  52.027  1.00  0.00     0.025 A 
BRANCH  16  18
HETATM   18  C   UNL     1       7.217  23.419  53.840  1.00  0.00    -0.031 A 
HETATM   19  C   UNL     1       7.662  22.489  52.879  1.00  0.00     0.009 A 
HETATM   20  C   UNL     1       8.158  21.233  53.239  1.00  0.00     0.001 A 
HETATM   21  C   UNL     1       8.231  20.875  54.580  1.00  0.00     0.002 A 
HETATM   22  C   UNL     1       7.812  21.775  55.557  1.00  0.00     0.024 A 
HETATM   23  C   UNL     1       7.318  23.033  55.191  1.00  0.00     0.040 A 
HETATM   24 CL   UNL     1       6.868  24.114  56.466  1.00  0.00    -0.084 Cl
ENDBRANCH  16  18
ENDBRANCH  12  15
ENDBRANCH   1  11
BRANCH   8  25
HETATM   25  C   UNL     1       4.052  30.805  57.832  1.00  0.00     0.270 C 
HETATM   26  N   UNL     1       3.340  30.363  58.913  1.00  0.00    -0.365 N 
HETATM   27  H   UNL     1       3.845  30.083  59.746  1.00  0.00     0.159 HD
HETATM   28  H   UNL     1       2.334  30.316  58.862  1.00  0.00     0.159 HD
HETATM   29  O   UNL     1       3.486  31.151  56.801  1.00  0.00    -0.266 OA
ENDBRANCH   8  25
TORSDOF 4
ENDMDL
MODEL 5
REMARK VINA RESULT:      -9.6      4.387      6.764
REMARK  4 active torsions:
REMARK  status: ('A' for Active; 'I' for Inactive)
REMARK    1  A    between atoms: C_3  and  C_4 
REMARK    2  A    between atoms: C_5  and  C_6 
REMARK       I    between atoms: C_6  and  N_7 
REMARK    3  A    between atoms: N_7  and  C_8 
REMARK    4  A    between atoms: C_15  and  C_16 
REMARK       I    between atoms: C_16  and  N_17 
ROOT
HETATM    1  C   UNL     1       4.784  26.833  52.408  1.00  0.00     0.035 A 
HETATM    2  C   UNL     1       4.932  26.713  51.019  1.00  0.00     0.046 A 
HETATM    3  C   UNL     1       4.449  27.734  50.173  1.00  0.00     0.030 A 
HETATM    4  C   UNL     1       3.835  28.843  50.743  1.00  0.00     0.063 A 
HETATM    5  N   UNL     1       3.491  29.646  49.692  1.00  0.00    -0.277 N 
HETATM    6  H   UNL     1       3.028  30.546  49.734  1.00  0.00     0.189 HD
HETATM    7  N   UNL     1       3.819  29.156  48.485  1.00  0.00    -0.168 NA
HETATM    8  C   UNL     1       4.412  27.972  48.766  1.00  0.00     0.156 A 
HETATM    9  C   UNL     1       3.663  28.993  52.120  1.00  0.00     0.034 A 
HETATM   10  C   UNL     1       4.147  27.964  52.938  1.00  0.00     0.032 A 
ENDROOT
BRANCH   1  11
HETATM   11  N   UNL     1       5.265  25.879  53.331  1.00  0.00    -0.327 N 
HETATM   12  C   UNL     1       5.858  26.127  54.548  1.00  0.00     0.227 C 
HETATM   13  O   UNL     1       6.164  27.210  55.022  1.00  0.00    -0.273 OA
HETATM   14  H   UNL     1       5.116  24.911  53.090  1.00  0.00     0.169 HD
BRANCH  12  15
HETATM   15  C   UNL     1       6.135  24.920  55.375  1.00  0.00     0.087 A 
HETATM   16  C   UNL     1       7.584  24.434  55.366  1.00  0.00     0.034 A 
HETATM   17  C   UNL     1       6.919  24.849  56.653  1.00  0.00     0.025 A 
BRANCH  16  18
HETATM   18  C   UNL     1       7.872  22.992  55.013  1.00  0.00    -0.031 A 
HETATM   19  C   UNL     1       7.982  22.038  56.045  1.00  0.00     0.009 A 
HETATM   20  C   UNL     1       8.194  20.683  55.780  1.00  0.00     0.001 A 
HETATM   21  C   UNL     1       8.295  20.241  54.466  1.00  0.00     0.002 A 
HETATM   22  C   UNL     1       8.178  21.155  53.422  1.00  0.00     0.024 A 
HETATM   23  C   UNL     1       7.963  22.512  53.692  1.00  0.00     0.040 A 
HETATM   24 CL   UNL     1       7.777  23.574  52.339  1.00  0.00    -0.084 Cl
ENDBRANCH  16  18
ENDBRANCH  12  15
ENDBRANCH   1  11
BRANCH   8  25
HETATM   25  C   UNL     1       4.924  27.105  47.696  1.00  0.00     0.270 C 
HETATM   26  N   UNL     1       6.138  27.489  47.196  1.00  0.00    -0.365 N 
HETATM   27  H   UNL     1       6.581  28.316  47.579  1.00  0.00     0.159 HD
HETATM   28  H   UNL     1       6.564  26.955  46.455  1.00  0.00     0.159 HD
HETATM   29  O   UNL     1       4.346  26.115  47.261  1.00  0.00    -0.266 OA
ENDBRANCH   8  25
TORSDOF 4
ENDMDL
MODEL 6
REMARK VINA RESULT:      -9.5      3.345      8.628
REMARK  4 active torsions:
REMARK  status: ('A' for Active; 'I' for Inactive)
REMARK    1  A    between atoms: C_3  and  C_4 
REMARK    2  A    between atoms: C_5  and  C_6 
REMARK       I    between atoms: C_6  and  N_7 
REMARK    3  A    between atoms: N_7  and  C_8 
REMARK    4  A    between atoms: C_15  and  C_16 
REMARK       I    between atoms: C_16  and  N_17 
ROOT
HETATM    1  C   UNL     1       6.906  25.190  55.478  1.00  0.00     0.035 A 
HETATM    2  C   UNL     1       7.438  23.975  55.930  1.00  0.00     0.046 A 
HETATM    3  C   UNL     1       7.733  22.953  55.002  1.00  0.00     0.030 A 
HETATM    4  C   UNL     1       7.486  23.180  53.653  1.00  0.00     0.063 A 
HETATM    5  N   UNL     1       7.876  22.035  53.017  1.00  0.00    -0.277 N 
HETATM    6  H   UNL     1       7.844  21.845  52.022  1.00  0.00     0.189 HD
HETATM    7  N   UNL     1       8.347  21.077  53.831  1.00  0.00    -0.168 NA
HETATM    8  C   UNL     1       8.264  21.630  55.064  1.00  0.00     0.156 A 
HETATM    9  C   UNL     1       6.950  24.374  53.169  1.00  0.00     0.034 A 
HETATM   10  C   UNL     1       6.662  25.371  54.109  1.00  0.00     0.032 A 
ENDROOT
BRANCH   1  11
HETATM   11  N   UNL     1       6.612  26.279  56.328  1.00  0.00    -0.327 N 
HETATM   12  C   UNL     1       7.498  26.984  57.111  1.00  0.00     0.227 C 
HETATM   13  O   UNL     1       8.683  26.749  57.292  1.00  0.00    -0.273 OA
HETATM   14  H   UNL     1       5.656  26.602  56.325  1.00  0.00     0.169 HD
BRANCH  12  15
HETATM   15  C   UNL     1       6.928  28.177  57.795  1.00  0.00     0.087 A 
HETATM   16  C   UNL     1       7.374  29.530  57.243  1.00  0.00     0.034 A 
HETATM   17  C   UNL     1       5.917  29.146  57.253  1.00  0.00     0.025 A 
BRANCH  16  18
HETATM   18  C   UNL     1       7.966  30.550  58.190  1.00  0.00    -0.031 A 
HETATM   19  C   UNL     1       7.108  31.303  59.017  1.00  0.00     0.009 A 
HETATM   20  C   UNL     1       7.597  32.222  59.948  1.00  0.00     0.001 A 
HETATM   21  C   UNL     1       8.968  32.408  60.085  1.00  0.00     0.002 A 
HETATM   22  C   UNL     1       9.845  31.671  59.292  1.00  0.00     0.024 A 
HETATM   23  C   UNL     1       9.350  30.749  58.362  1.00  0.00     0.040 A 
HETATM   24 CL   UNL     1      10.505  29.835  57.454  1.00  0.00    -0.084 Cl
ENDBRANCH  16  18
ENDBRANCH  12  15
ENDBRANCH   1  11
BRANCH   8  25
HETATM   25  C   UNL     1       8.690  20.889  56.260  1.00  0.00     0.270 C 
HETATM   26  N   UNL     1       9.647  19.942  56.022  1.00  0.00    -0.365 N 
HETATM   27  H   UNL     1       9.982  19.818  55.073  1.00  0.00     0.159 HD
HETATM   28  H   UNL     1       9.995  19.382  56.784  1.00  0.00     0.159 HD
HETATM   29  O   UNL     1       8.249  21.072  57.390  1.00  0.00    -0.266 OA
ENDBRANCH   8  25
TORSDOF 4
ENDMDL
MODEL 7
REMARK VINA RESULT:      -9.4      4.913      7.644
REMARK  4 active torsions:
REMARK  status: ('A' for Active; 'I' for Inactive)
REMARK    1  A    between atoms: C_3  and  C_4 
REMARK    2  A    between atoms: C_5  and  C_6 
REMARK       I    between atoms: C_6  and  N_7 
REMARK    3  A    between atoms: N_7  and  C_8 
REMARK    4  A    between atoms: C_15  and  C_16 
REMARK       I    between atoms: C_16  and  N_17 
ROOT
HETATM    1  C   UNL     1       7.128  31.828  62.088  1.00  0.00     0.035 A 
HETATM    2  C   UNL     1       5.816  32.321  62.120  1.00  0.00     0.046 A 
HETATM    3  C   UNL     1       5.419  33.184  63.164  1.00  0.00     0.030 A 
HETATM    4  C   UNL     1       6.346  33.526  64.141  1.00  0.00     0.063 A 
HETATM    5  N   UNL     1       5.682  34.365  64.991  1.00  0.00    -0.277 N 
HETATM    6  H   UNL     1       6.052  34.816  65.820  1.00  0.00     0.189 HD
HETATM    7  N   UNL     1       4.401  34.594  64.661  1.00  0.00    -0.168 NA
HETATM    8  C   UNL     1       4.222  33.869  63.532  1.00  0.00     0.156 A 
HETATM    9  C   UNL     1       7.657  33.049  64.145  1.00  0.00     0.034 A 
HETATM   10  C   UNL     1       8.026  32.191  63.101  1.00  0.00     0.032 A 
ENDROOT
BRANCH   1  11
HETATM   11  N   UNL     1       7.623  30.988  61.066  1.00  0.00    -0.327 N 
HETATM   12  C   UNL     1       8.369  31.363  59.972  1.00  0.00     0.227 C 
HETATM   13  O   UNL     1       8.669  32.495  59.626  1.00  0.00    -0.273 OA
HETATM   14  H   UNL     1       7.447  30.001  61.176  1.00  0.00     0.169 HD
BRANCH  12  15
HETATM   15  C   UNL     1       8.874  30.240  59.136  1.00  0.00     0.087 A 
HETATM   16  C   UNL     1       8.195  30.072  57.777  1.00  0.00     0.034 A 
HETATM   17  C   UNL     1       9.677  30.332  57.869  1.00  0.00     0.025 A 
BRANCH  16  18
HETATM   18  C   UNL     1       7.614  28.725  57.407  1.00  0.00    -0.031 A 
HETATM   19  C   UNL     1       8.480  27.626  57.232  1.00  0.00     0.009 A 
HETATM   20  C   UNL     1       7.999  26.347  56.943  1.00  0.00     0.001 A 
HETATM   21  C   UNL     1       6.631  26.129  56.828  1.00  0.00     0.002 A 
HETATM   22  C   UNL     1       5.748  27.190  57.008  1.00  0.00     0.024 A 
HETATM   23  C   UNL     1       6.233  28.471  57.301  1.00  0.00     0.040 A 
HETATM   24 CL   UNL     1       5.069  29.724  57.562  1.00  0.00    -0.084 Cl
ENDBRANCH  16  18
ENDBRANCH  12  15
ENDBRANCH   1  11
BRANCH   8  25
HETATM   25  C   UNL     1       2.926  33.847  62.839  1.00  0.00     0.270 C 
HETATM   26  N   UNL     1       1.845  33.788  63.674  1.00  0.00    -0.365 N 
HETATM   27  H   UNL     1       2.005  33.761  64.674  1.00  0.00     0.159 HD
HETATM   28  H   UNL     1       0.916  33.764  63.286  1.00  0.00     0.159 HD
HETATM   29  O   UNL     1       2.783  33.876  61.621  1.00  0.00    -0.266 OA
ENDBRANCH   8  25
TORSDOF 4
ENDMDL
MODEL 8
REMARK VINA RESULT:      -9.1      4.859      6.535
REMARK  4 active torsions:
REMARK  status: ('A' for Active; 'I' for Inactive)
REMARK    1  A    between atoms: C_3  and  C_4 
REMARK    2  A    between atoms: C_5  and  C_6 
REMARK       I    between atoms: C_6  and  N_7 
REMARK    3  A    between atoms: N_7  and  C_8 
REMARK    4  A    between atoms: C_15  and  C_16 
REMARK       I    between atoms: C_16  and  N_17 
ROOT
HETATM    1  C   UNL     1       4.867  26.537  50.464  1.00  0.00     0.035 A 
HETATM    2  C   UNL     1       5.219  27.892  50.514  1.00  0.00     0.046 A 
HETATM    3  C   UNL     1       4.990  28.716  49.390  1.00  0.00     0.030 A 
HETATM    4  C   UNL     1       4.415  28.157  48.256  1.00  0.00     0.063 A 
HETATM    5  N   UNL     1       4.311  29.184  47.359  1.00  0.00    -0.277 N 
HETATM    6  H   UNL     1       3.931  29.143  46.421  1.00  0.00     0.189 HD
HETATM    7  N   UNL     1       4.775  30.362  47.806  1.00  0.00    -0.168 NA
HETATM    8  C   UNL     1       5.200  30.089  49.062  1.00  0.00     0.156 A 
HETATM    9  C   UNL     1       4.059  26.810  48.168  1.00  0.00     0.034 A 
HETATM   10  C   UNL     1       4.300  26.014  49.294  1.00  0.00     0.032 A 
ENDROOT
BRANCH   1  11
HETATM   11  N   UNL     1       5.027  25.647  51.550  1.00  0.00    -0.327 N 
HETATM   12  C   UNL     1       6.210  25.154  52.050  1.00  0.00     0.227 C 
HETATM   13  O   UNL     1       7.335  25.315  51.602  1.00  0.00    -0.273 OA
HETATM   14  H   UNL     1       4.185  25.381  52.037  1.00  0.00     0.169 HD
BRANCH  12  15
HETATM   15  C   UNL     1       6.083  24.346  53.294  1.00  0.00     0.087 A 
HETATM   16  C   UNL     1       7.381  24.121  54.070  1.00  0.00     0.034 A 
HETATM   17  C   UNL     1       6.213  24.824  54.712  1.00  0.00     0.025 A 
BRANCH  16  18
HETATM   18  C   UNL     1       7.790  22.709  54.423  1.00  0.00    -0.031 A 
HETATM   19  C   UNL     1       7.828  21.729  53.410  1.00  0.00     0.009 A 
HETATM   20  C   UNL     1       8.248  20.421  53.663  1.00  0.00     0.001 A 
HETATM   21  C   UNL     1       8.653  20.057  54.942  1.00  0.00     0.002 A 
HETATM   22  C   UNL     1       8.640  21.004  55.963  1.00  0.00     0.024 A 
HETATM   23  C   UNL     1       8.220  22.315  55.705  1.00  0.00     0.040 A 
HETATM   24 CL   UNL     1       8.283  23.445  57.014  1.00  0.00    -0.084 Cl
ENDBRANCH  16  18
ENDBRANCH  12  15
ENDBRANCH   1  11
BRANCH   8  25
HETATM   25  C   UNL     1       5.790  31.134  49.910  1.00  0.00     0.270 C 
HETATM   26  N   UNL     1       5.154  31.309  51.108  1.00  0.00    -0.365 N 
HETATM   27  H   UNL     1       4.349  30.731  51.319  1.00  0.00     0.159 HD
HETATM   28  H   UNL     1       5.488  32.008  51.753  1.00  0.00     0.159 HD
HETATM   29  O   UNL     1       6.766  31.813  49.608  1.00  0.00    -0.266 OA
ENDBRANCH   8  25
TORSDOF 4
ENDMDL
MODEL 9
REMARK VINA RESULT:      -9.1      3.805      5.602
REMARK  4 active torsions:
REMARK  status: ('A' for Active; 'I' for Inactive)
REMARK    1  A    between atoms: C_3  and  C_4 
REMARK    2  A    between atoms: C_5  and  C_6 
REMARK       I    between atoms: C_6  and  N_7 
REMARK    3  A    between atoms: N_7  and  C_8 
REMARK    4  A    between atoms: C_15  and  C_16 
REMARK       I    between atoms: C_16  and  N_17 
ROOT
HETATM    1  C   UNL     1       5.035  27.043  54.401  1.00  0.00     0.035 A 
HETATM    2  C   UNL     1       4.721  27.221  53.047  1.00  0.00     0.046 A 
HETATM    3  C   UNL     1       4.051  28.393  52.633  1.00  0.00     0.030 A 
HETATM    4  C   UNL     1       3.720  29.348  53.586  1.00  0.00     0.063 A 
HETATM    5  N   UNL     1       3.104  30.352  52.893  1.00  0.00    -0.277 N 
HETATM    6  H   UNL     1       2.733  31.217  53.267  1.00  0.00     0.189 HD
HETATM    7  N   UNL     1       2.996  30.133  51.573  1.00  0.00    -0.168 NA
HETATM    8  C   UNL     1       3.577  28.923  51.396  1.00  0.00     0.156 A 
HETATM    9  C   UNL     1       4.011  29.201  54.943  1.00  0.00     0.034 A 
HETATM   10  C   UNL     1       4.671  28.028  55.329  1.00  0.00     0.032 A 
ENDROOT
BRANCH   1  11
HETATM   11  N   UNL     1       5.732  25.920  54.901  1.00  0.00    -0.327 N 
HETATM   12  C   UNL     1       6.851  25.926  55.701  1.00  0.00     0.227 C 
HETATM   13  O   UNL     1       7.509  26.892  56.056  1.00  0.00    -0.273 OA
HETATM   14  H   UNL     1       5.338  25.017  54.683  1.00  0.00     0.169 HD
BRANCH  12  15
HETATM   15  C   UNL     1       7.285  24.590  56.193  1.00  0.00     0.087 A 
HETATM   16  C   UNL     1       8.583  24.054  55.589  1.00  0.00     0.034 A 
HETATM   17  C   UNL     1       8.461  24.278  57.074  1.00  0.00     0.025 A 
BRANCH  16  18
HETATM   18  C   UNL     1       8.586  22.680  54.958  1.00  0.00    -0.031 A 
HETATM   19  C   UNL     1       8.869  21.554  55.759  1.00  0.00     0.009 A 
HETATM   20  C   UNL     1       8.835  20.255  55.246  1.00  0.00     0.001 A 
HETATM   21  C   UNL     1       8.508  20.044  53.912  1.00  0.00     0.002 A 
HETATM   22  C   UNL     1       8.210  21.133  53.096  1.00  0.00     0.024 A 
HETATM   23  C   UNL     1       8.243  22.433  53.615  1.00  0.00     0.040 A 
HETATM   24 CL   UNL     1       7.809  23.727  52.550  1.00  0.00    -0.084 Cl
ENDBRANCH  16  18
ENDBRANCH  12  15
ENDBRANCH   1  11
BRANCH   8  25
HETATM   25  C   UNL     1       3.665  28.308  50.064  1.00  0.00     0.270 C 
HETATM   26  N   UNL     1       2.454  27.987  49.515  1.00  0.00    -0.365 N 
HETATM   27  H   UNL     1       1.613  28.184  50.044  1.00  0.00     0.159 HD
HETATM   28  H   UNL     1       2.418  27.556  48.604  1.00  0.00     0.159 HD
HETATM   29  O   UNL     1       4.710  28.085  49.463  1.00  0.00    -0.266 OA
ENDBRANCH   8  25
TORSDOF 4
ENDMDL
MODEL 10
REMARK VINA RESULT:      -9.0      4.812      7.314
REMARK  4 active torsions:
REMARK  status: ('A' for Active; 'I' for Inactive)
REMARK    1  A    between atoms: C_3  and  C_4 
REMARK    2  A    between atoms: C_5  and  C_6 
REMARK       I    between atoms: C_6  and  N_7 
REMARK    3  A    between atoms: N_7  and  C_8 
REMARK    4  A    between atoms: C_15  and  C_16 
REMARK       I    between atoms: C_16  and  N_17 
ROOT
HETATM    1  C   UNL     1       5.064  27.333  51.412  1.00  0.00     0.035 A 
HETATM    2  C   UNL     1       4.390  27.123  50.201  1.00  0.00     0.046 A 
HETATM    3  C   UNL     1       4.284  28.176  49.267  1.00  0.00     0.030 A 
HETATM    4  C   UNL     1       4.858  29.403  49.574  1.00  0.00     0.063 A 
HETATM    5  N   UNL     1       4.606  30.201  48.492  1.00  0.00    -0.277 N 
HETATM    6  H   UNL     1       4.883  31.167  48.365  1.00  0.00     0.189 HD
HETATM    7  N   UNL     1       3.910  29.604  47.510  1.00  0.00    -0.168 NA
HETATM    8  C   UNL     1       3.703  28.350  47.975  1.00  0.00     0.156 A 
HETATM    9  C   UNL     1       5.530  29.651  50.772  1.00  0.00     0.034 A 
HETATM   10  C   UNL     1       5.617  28.592  51.684  1.00  0.00     0.032 A 
ENDROOT
BRANCH   1  11
HETATM   11  N   UNL     1       5.247  26.330  52.389  1.00  0.00    -0.327 N 
HETATM   12  C   UNL     1       6.245  25.384  52.431  1.00  0.00     0.227 C 
HETATM   13  O   UNL     1       7.105  25.170  51.591  1.00  0.00    -0.273 OA
HETATM   14  H   UNL     1       4.600  26.339  53.164  1.00  0.00     0.169 HD
BRANCH  12  15
HETATM   15  C   UNL     1       6.270  24.544  53.660  1.00  0.00     0.087 A 
HETATM   16  C   UNL     1       7.660  24.192  54.190  1.00  0.00     0.034 A 
HETATM   17  C   UNL     1       6.683  24.960  55.043  1.00  0.00     0.025 A 
BRANCH  16  18
HETATM   18  C   UNL     1       8.006  22.740  54.434  1.00  0.00    -0.031 A 
HETATM   19  C   UNL     1       8.005  21.839  53.349  1.00  0.00     0.009 A 
HETATM   20  C   UNL     1       8.367  20.499  53.502  1.00  0.00     0.001 A 
HETATM   21  C   UNL     1       8.752  20.022  54.750  1.00  0.00     0.002 A 
HETATM   22  C   UNL     1       8.777  20.888  55.840  1.00  0.00     0.024 A 
HETATM   23  C   UNL     1       8.415  22.231  55.682  1.00  0.00     0.040 A 
HETATM   24 CL   UNL     1       8.523  23.255  57.073  1.00  0.00    -0.084 Cl
ENDBRANCH  16  18
ENDBRANCH  12  15
ENDBRANCH   1  11
BRANCH   8  25
HETATM   25  C   UNL     1       2.962  27.357  47.184  1.00  0.00     0.270 C 
HETATM   26  N   UNL     1       1.675  27.719  46.895  1.00  0.00    -0.365 N 
HETATM   27  H   UNL     1       1.333  28.610  47.236  1.00  0.00     0.159 HD
HETATM   28  H   UNL     1       1.090  27.097  46.360  1.00  0.00     0.159 HD
HETATM   29  O   UNL     1       3.420  26.287  46.797  1.00  0.00    -0.266 OA
ENDBRANCH   8  25
TORSDOF 4
ENDMDL
