MODEL 1
REMARK VINA RESULT:      -7.9      0.000      0.000
REMARK  9 active torsions:
REMARK  status: ('A' for Active; 'I' for Inactive)
REMARK    1  A    between atoms: C_2  and  C_3 
REMARK    2  A    between atoms: C_6  and  N_7 
REMARK    3  A    between atoms: C_8  and  C_10 
REMARK    4  A    between atoms: C_8  and  O_9 
REMARK       I    between atoms: C_10  and  N_11 
REMARK    5  A    between atoms: N_11  and  C_12 
REMARK    6  A    between atoms: C_12  and  C_13 
REMARK    7  A    between atoms: C_13  and  N_14 
REMARK    8  A    between atoms: N_14  and  C_16 
REMARK    9  A    between atoms: N_14  and  C_18 
ROOT
HETATM    1  N   UNL     1       6.471  27.314  55.987  1.00  0.00    -0.254 N 
HETATM    2  C   UNL     1       5.112  27.895  55.962  1.00  0.00     0.256 C 
HETATM    3  C   UNL     1       4.968  29.241  56.641  1.00  0.00     0.034 A 
HETATM    4  C   UNL     1       6.035  29.755  57.358  1.00  0.00     0.048 A 
HETATM    5  N   UNL     1       7.199  29.014  57.446  1.00  0.00    -0.308 N 
HETATM    6  C   UNL     1       7.447  27.828  56.832  1.00  0.00     0.330 C 
HETATM    7  O   UNL     1       8.538  27.306  57.059  1.00  0.00    -0.246 OA
HETATM    8  C   UNL     1       3.767  29.975  56.617  1.00  0.00     0.015 A 
HETATM    9  C   UNL     1       3.672  31.213  57.257  1.00  0.00     0.001 A 
HETATM   10  C   UNL     1       4.766  31.721  57.950  1.00  0.00     0.002 A 
HETATM   11  C   UNL     1       5.948  30.987  58.012  1.00  0.00     0.030 A 
HETATM   12  H   UNL     1       7.960  29.343  58.031  1.00  0.00     0.170 HD
ENDROOT
BRANCH   2  13
HETATM   13  C   UNL     1       4.642  28.103  54.432  1.00  0.00     0.279 C 
HETATM   14  N   UNL     1       5.323  29.066  53.708  1.00  0.00    -0.355 N 
HETATM   15  H   UNL     1       6.059  29.559  54.211  1.00  0.00     0.162 HD
HETATM   16  O   UNL     1       3.682  27.509  53.934  1.00  0.00    -0.268 OA
BRANCH  14  17
HETATM   17  C   UNL     1       5.133  29.427  52.309  1.00  0.00     0.150 C 
BRANCH  17  18
HETATM   18  C   UNL     1       5.632  28.446  51.223  1.00  0.00     0.254 C 
BRANCH  18  19
HETATM   19  N   UNL     1       4.633  27.355  50.868  1.00  0.00    -0.070 N 
HETATM   20  H   UNL     1       3.996  27.335  51.695  1.00  0.00     0.279 HD
BRANCH  19  21
HETATM   21  C   UNL     1       3.707  27.644  49.710  1.00  0.00     0.230 C 
HETATM   22  C   UNL     1       3.861  26.635  48.587  1.00  0.00     0.034 C 
ENDBRANCH  19  21
BRANCH  19  23
HETATM   23  C   UNL     1       5.244  25.973  50.793  1.00  0.00     0.230 C 
HETATM   24  C   UNL     1       4.664  25.056  51.855  1.00  0.00     0.034 C 
ENDBRANCH  19  23
ENDBRANCH  18  19
ENDBRANCH  17  18
ENDBRANCH  14  17
ENDBRANCH   2  13
BRANCH   2  25
HETATM   25  O   UNL     1       4.267  27.020  56.689  1.00  0.00    -0.359 OA
HETATM   26  H   UNL     1       4.225  27.400  57.583  1.00  0.00     0.213 HD
ENDBRANCH   2  25
BRANCH   1  27
HETATM   27  C   UNL     1       6.777  26.183  55.122  1.00  0.00     0.043 A 
HETATM   28  C   UNL     1       7.517  26.327  53.935  1.00  0.00     0.030 A 
HETATM   29  C   UNL     1       7.932  25.212  53.193  1.00  0.00     0.009 A 
HETATM   30  C   UNL     1       7.620  23.919  53.616  1.00  0.00    -0.058 A 
HETATM   31  C   UNL     1       6.867  23.760  54.779  1.00  0.00     0.009 A 
HETATM   32  C   UNL     1       6.448  24.875  55.515  1.00  0.00     0.030 A 
BRANCH  30  33
HETATM   33  C   UNL     1       8.113  22.715  52.854  1.00  0.00     0.034 C 
HETATM   34  C   UNL     1       8.813  21.725  53.775  1.00  0.00     0.010 C 
ENDBRANCH  30  33
ENDBRANCH   1  27
TORSDOF 9
ENDMDL
MODEL 2
REMARK VINA RESULT:      -7.9      1.274      1.883
REMARK  9 active torsions:
REMARK  status: ('A' for Active; 'I' for Inactive)
REMARK    1  A    between atoms: C_2  and  C_3 
REMARK    2  A    between atoms: C_6  and  N_7 
REMARK    3  A    between atoms: C_8  and  C_10 
REMARK    4  A    between atoms: C_8  and  O_9 
REMARK       I    between atoms: C_10  and  N_11 
REMARK    5  A    between atoms: N_11  and  C_12 
REMARK    6  A    between atoms: C_12  and  C_13 
REMARK    7  A    between atoms: C_13  and  N_14 
REMARK    8  A    between atoms: N_14  and  C_16 
REMARK    9  A    between atoms: N_14  and  C_18 
ROOT
HETATM    1  N   UNL     1       6.868  25.956  56.011  1.00  0.00    -0.254 N 
HETATM    2  C   UNL     1       5.522  26.496  55.724  1.00  0.00     0.256 C 
HETATM    3  C   UNL     1       5.249  27.883  56.264  1.00  0.00     0.034 A 
HETATM    4  C   UNL     1       6.178  28.479  57.100  1.00  0.00     0.048 A 
HETATM    5  N   UNL     1       7.323  27.780  57.431  1.00  0.00    -0.308 N 
HETATM    6  C   UNL     1       7.687  26.559  56.959  1.00  0.00     0.330 C 
HETATM    7  O   UNL     1       8.734  26.086  57.398  1.00  0.00    -0.246 OA
HETATM    8  C   UNL     1       4.056  28.579  55.991  1.00  0.00     0.015 A 
HETATM    9  C   UNL     1       3.839  29.858  56.509  1.00  0.00     0.001 A 
HETATM   10  C   UNL     1       4.798  30.447  57.327  1.00  0.00     0.002 A 
HETATM   11  C   UNL     1       5.967  29.753  57.634  1.00  0.00     0.030 A 
HETATM   12  H   UNL     1       7.974  28.172  58.103  1.00  0.00     0.170 HD
ENDROOT
BRANCH   2  13
HETATM   13  C   UNL     1       5.304  26.576  54.126  1.00  0.00     0.279 C 
HETATM   14  N   UNL     1       5.890  27.650  53.482  1.00  0.00    -0.355 N 
HETATM   15  H   UNL     1       6.406  28.296  54.078  1.00  0.00     0.162 HD
HETATM   16  O   UNL     1       4.592  25.785  53.501  1.00  0.00    -0.268 OA
BRANCH  14  17
HETATM   17  C   UNL     1       5.886  27.942  52.053  1.00  0.00     0.150 C 
BRANCH  17  18
HETATM   18  C   UNL     1       4.662  28.675  51.457  1.00  0.00     0.254 C 
BRANCH  18  19
HETATM   19  N   UNL     1       3.823  27.817  50.522  1.00  0.00    -0.070 N 
HETATM   20  H   UNL     1       3.119  27.385  51.160  1.00  0.00     0.279 HD
BRANCH  19  21
HETATM   21  C   UNL     1       2.981  28.557  49.508  1.00  0.00     0.230 C 
HETATM   22  C   UNL     1       1.599  28.885  50.042  1.00  0.00     0.034 C 
ENDBRANCH  19  21
BRANCH  19  23
HETATM   23  C   UNL     1       4.583  26.660  49.912  1.00  0.00     0.230 C 
HETATM   24  C   UNL     1       3.907  26.161  48.648  1.00  0.00     0.034 C 
ENDBRANCH  19  23
ENDBRANCH  18  19
ENDBRANCH  17  18
ENDBRANCH  14  17
ENDBRANCH   2  13
BRANCH   2  25
HETATM   25  O   UNL     1       4.584  25.653  56.372  1.00  0.00    -0.359 OA
HETATM   26  H   UNL     1       5.075  24.835  56.561  1.00  0.00     0.213 HD
ENDBRANCH   2  25
BRANCH   1  27
HETATM   27  C   UNL     1       7.329  24.774  55.297  1.00  0.00     0.043 A 
HETATM   28  C   UNL     1       7.173  23.477  55.817  1.00  0.00     0.030 A 
HETATM   29  C   UNL     1       7.483  22.341  55.055  1.00  0.00     0.009 A 
HETATM   30  C   UNL     1       7.959  22.469  53.749  1.00  0.00    -0.058 A 
HETATM   31  C   UNL     1       8.141  23.749  53.227  1.00  0.00     0.009 A 
HETATM   32  C   UNL     1       7.837  24.881  53.992  1.00  0.00     0.030 A 
BRANCH  30  33
HETATM   33  C   UNL     1       8.239  21.251  52.905  1.00  0.00     0.034 C 
HETATM   34  C   UNL     1       8.691  20.076  53.761  1.00  0.00     0.010 C 
ENDBRANCH  30  33
ENDBRANCH   1  27
TORSDOF 9
ENDMDL
MODEL 3
REMARK VINA RESULT:      -7.8      1.909      6.097
REMARK  9 active torsions:
REMARK  status: ('A' for Active; 'I' for Inactive)
REMARK    1  A    between atoms: C_2  and  C_3 
REMARK    2  A    between atoms: C_6  and  N_7 
REMARK    3  A    between atoms: C_8  and  C_10 
REMARK    4  A    between atoms: C_8  and  O_9 
REMARK       I    between atoms: C_10  and  N_11 
REMARK    5  A    between atoms: N_11  and  C_12 
REMARK    6  A    between atoms: C_12  and  C_13 
REMARK    7  A    between atoms: C_13  and  N_14 
REMARK    8  A    between atoms: N_14  and  C_16 
REMARK    9  A    between atoms: N_14  and  C_18 
ROOT
HETATM    1  N   UNL     1       6.770  25.546  55.342  1.00  0.00    -0.254 N 
HETATM    2  C   UNL     1       7.072  24.923  54.035  1.00  0.00     0.256 C 
HETATM    3  C   UNL     1       7.390  23.444  54.078  1.00  0.00     0.034 A 
HETATM    4  C   UNL     1       7.534  22.817  55.304  1.00  0.00     0.048 A 
HETATM    5  N   UNL     1       7.398  23.568  56.457  1.00  0.00    -0.308 N 
HETATM    6  C   UNL     1       7.060  24.882  56.528  1.00  0.00     0.330 C 
HETATM    7  O   UNL     1       7.020  25.381  57.651  1.00  0.00    -0.246 OA
HETATM    8  C   UNL     1       7.599  22.682  52.912  1.00  0.00     0.015 A 
HETATM    9  C   UNL     1       7.893  21.319  52.991  1.00  0.00     0.001 A 
HETATM   10  C   UNL     1       8.008  20.705  54.235  1.00  0.00     0.002 A 
HETATM   11  C   UNL     1       7.839  21.457  55.396  1.00  0.00     0.030 A 
HETATM   12  H   UNL     1       7.577  23.139  57.358  1.00  0.00     0.170 HD
ENDROOT
BRANCH   2  13
HETATM   13  C   UNL     1       5.801  25.089  53.053  1.00  0.00     0.279 C 
HETATM   14  N   UNL     1       6.026  25.776  51.874  1.00  0.00    -0.355 N 
HETATM   15  H   UNL     1       6.975  26.118  51.734  1.00  0.00     0.162 HD
HETATM   16  O   UNL     1       4.665  24.706  53.347  1.00  0.00    -0.268 OA
BRANCH  14  17
HETATM   17  C   UNL     1       5.075  26.033  50.798  1.00  0.00     0.150 C 
BRANCH  17  18
HETATM   18  C   UNL     1       4.855  27.494  50.345  1.00  0.00     0.254 C 
BRANCH  18  19
HETATM   19  N   UNL     1       3.393  27.873  50.164  1.00  0.00    -0.070 N 
HETATM   20  H   UNL     1       2.883  27.046  50.546  1.00  0.00     0.279 HD
BRANCH  19  21
HETATM   21  C   UNL     1       2.889  29.025  51.002  1.00  0.00     0.230 C 
HETATM   22  C   UNL     1       3.192  28.835  52.477  1.00  0.00     0.034 C 
ENDBRANCH  19  21
BRANCH  19  23
HETATM   23  C   UNL     1       2.969  27.978  48.716  1.00  0.00     0.230 C 
HETATM   24  C   UNL     1       1.489  27.678  48.552  1.00  0.00     0.034 C 
ENDBRANCH  19  23
ENDBRANCH  18  19
ENDBRANCH  17  18
ENDBRANCH  14  17
ENDBRANCH   2  13
BRANCH   2  25
HETATM   25  O   UNL     1       8.245  25.543  53.536  1.00  0.00    -0.359 OA
HETATM   26  H   UNL     1       8.032  25.774  52.616  1.00  0.00     0.213 HD
ENDBRANCH   2  25
BRANCH   1  27
HETATM   27  C   UNL     1       6.172  26.873  55.377  1.00  0.00     0.043 A 
HETATM   28  C   UNL     1       4.843  27.085  55.785  1.00  0.00     0.030 A 
HETATM   29  C   UNL     1       4.329  28.378  55.958  1.00  0.00     0.009 A 
HETATM   30  C   UNL     1       5.129  29.498  55.728  1.00  0.00    -0.058 A 
HETATM   31  C   UNL     1       6.443  29.305  55.301  1.00  0.00     0.009 A 
HETATM   32  C   UNL     1       6.951  28.013  55.122  1.00  0.00     0.030 A 
BRANCH  30  33
HETATM   33  C   UNL     1       4.600  30.890  55.968  1.00  0.00     0.034 C 
HETATM   34  C   UNL     1       3.265  30.857  56.699  1.00  0.00     0.010 C 
ENDBRANCH  30  33
ENDBRANCH   1  27
TORSDOF 9
ENDMDL
MODEL 4
REMARK VINA RESULT:      -7.5      2.043      5.803
REMARK  9 active torsions:
REMARK  status: ('A' for Active; 'I' for Inactive)
REMARK    1  A    between atoms: C_2  and  C_3 
REMARK    2  A    between atoms: C_6  and  N_7 
REMARK    3  A    between atoms: C_8  and  C_10 
REMARK    4  A    between atoms: C_8  and  O_9 
REMARK       I    between atoms: C_10  and  N_11 
REMARK    5  A    between atoms: N_11  and  C_12 
REMARK    6  A    between atoms: C_12  and  C_13 
REMARK    7  A    between atoms: C_13  and  N_14 
REMARK    8  A    between atoms: N_14  and  C_16 
REMARK    9  A    between atoms: N_14  and  C_18 
ROOT
HETATM    1  N   UNL     1       5.075  27.308  51.625  1.00  0.00    -0.254 N 
HETATM    2  C   UNL     1       5.020  28.696  52.131  1.00  0.00     0.256 C 
HETATM    3  C   UNL     1       3.945  29.569  51.518  1.00  0.00     0.034 A 
HETATM    4  C   UNL     1       3.211  29.088  50.447  1.00  0.00     0.048 A 
HETATM    5  N   UNL     1       3.493  27.826  49.958  1.00  0.00    -0.308 N 
HETATM    6  C   UNL     1       4.394  26.946  50.469  1.00  0.00     0.330 C 
HETATM    7  O   UNL     1       4.524  25.879  49.871  1.00  0.00    -0.246 OA
HETATM    8  C   UNL     1       3.694  30.882  51.961  1.00  0.00     0.015 A 
HETATM    9  C   UNL     1       2.695  31.657  51.369  1.00  0.00     0.001 A 
HETATM   10  C   UNL     1       1.953  31.143  50.311  1.00  0.00     0.002 A 
HETATM   11  C   UNL     1       2.217  29.859  49.839  1.00  0.00     0.030 A 
HETATM   12  H   UNL     1       3.017  27.492  49.127  1.00  0.00     0.170 HD
ENDROOT
BRANCH   2  13
HETATM   13  C   UNL     1       4.743  28.679  53.721  1.00  0.00     0.279 C 
HETATM   14  N   UNL     1       5.792  29.077  54.529  1.00  0.00    -0.355 N 
HETATM   15  H   UNL     1       6.648  29.342  54.044  1.00  0.00     0.162 HD
HETATM   16  O   UNL     1       3.693  28.264  54.219  1.00  0.00    -0.268 OA
BRANCH  14  17
HETATM   17  C   UNL     1       5.802  29.195  55.982  1.00  0.00     0.150 C 
BRANCH  17  18
HETATM   18  C   UNL     1       7.010  29.887  56.655  1.00  0.00     0.254 C 
BRANCH  18  19
HETATM   19  N   UNL     1       8.165  28.948  56.970  1.00  0.00    -0.070 N 
HETATM   20  H   UNL     1       8.512  28.670  56.026  1.00  0.00     0.279 HD
BRANCH  19  21
HETATM   21  C   UNL     1       9.374  29.569  57.629  1.00  0.00     0.230 C 
HETATM   22  C   UNL     1      10.626  29.419  56.786  1.00  0.00     0.034 C 
ENDBRANCH  19  21
BRANCH  19  23
HETATM   23  C   UNL     1       7.735  27.661  57.639  1.00  0.00     0.230 C 
HETATM   24  C   UNL     1       8.025  26.458  56.758  1.00  0.00     0.034 C 
ENDBRANCH  19  23
ENDBRANCH  18  19
ENDBRANCH  17  18
ENDBRANCH  14  17
ENDBRANCH   2  13
BRANCH   2  25
HETATM   25  O   UNL     1       6.246  29.318  51.786  1.00  0.00    -0.359 OA
HETATM   26  H   UNL     1       6.932  28.715  52.120  1.00  0.00     0.213 HD
ENDBRANCH   2  25
BRANCH   1  27
HETATM   27  C   UNL     1       5.863  26.318  52.346  1.00  0.00     0.043 A 
HETATM   28  C   UNL     1       5.284  25.423  53.262  1.00  0.00     0.030 A 
HETATM   29  C   UNL     1       6.027  24.380  53.834  1.00  0.00     0.009 A 
HETATM   30  C   UNL     1       7.371  24.201  53.506  1.00  0.00    -0.058 A 
HETATM   31  C   UNL     1       7.967  25.095  52.617  1.00  0.00     0.009 A 
HETATM   32  C   UNL     1       7.225  26.139  52.052  1.00  0.00     0.030 A 
BRANCH  30  33
HETATM   33  C   UNL     1       8.160  23.047  54.073  1.00  0.00     0.034 C 
HETATM   34  C   UNL     1       8.092  21.829  53.163  1.00  0.00     0.010 C 
ENDBRANCH  30  33
ENDBRANCH   1  27
TORSDOF 9
ENDMDL
MODEL 5
REMARK VINA RESULT:      -7.3      2.406      7.397
REMARK  9 active torsions:
REMARK  status: ('A' for Active; 'I' for Inactive)
REMARK    1  A    between atoms: C_2  and  C_3 
REMARK    2  A    between atoms: C_6  and  N_7 
REMARK    3  A    between atoms: C_8  and  C_10 
REMARK    4  A    between atoms: C_8  and  O_9 
REMARK       I    between atoms: C_10  and  N_11 
REMARK    5  A    between atoms: N_11  and  C_12 
REMARK    6  A    between atoms: C_12  and  C_13 
REMARK    7  A    between atoms: C_13  and  N_14 
REMARK    8  A    between atoms: N_14  and  C_16 
REMARK    9  A    between atoms: N_14  and  C_18 
ROOT
HETATM    1  N   UNL     1       5.544  26.391  53.316  1.00  0.00    -0.254 N 
HETATM    2  C   UNL     1       6.078  26.258  54.688  1.00  0.00     0.256 C 
HETATM    3  C   UNL     1       6.877  25.000  54.956  1.00  0.00     0.034 A 
HETATM    4  C   UNL     1       6.923  24.009  53.990  1.00  0.00     0.048 A 
HETATM    5  N   UNL     1       6.223  24.193  52.812  1.00  0.00    -0.308 N 
HETATM    6  C   UNL     1       5.526  25.302  52.453  1.00  0.00     0.330 C 
HETATM    7  O   UNL     1       4.943  25.261  51.371  1.00  0.00    -0.246 OA
HETATM    8  C   UNL     1       7.537  24.769  56.178  1.00  0.00     0.015 A 
HETATM    9  C   UNL     1       8.262  23.595  56.389  1.00  0.00     0.001 A 
HETATM   10  C   UNL     1       8.316  22.624  55.394  1.00  0.00     0.002 A 
HETATM   11  C   UNL     1       7.636  22.825  54.194  1.00  0.00     0.030 A 
HETATM   12  H   UNL     1       6.186  23.443  52.129  1.00  0.00     0.170 HD
ENDROOT
BRANCH   2  13
HETATM   13  C   UNL     1       7.061  27.499  55.007  1.00  0.00     0.279 C 
HETATM   14  N   UNL     1       6.697  28.311  56.066  1.00  0.00    -0.355 N 
HETATM   15  H   UNL     1       5.837  28.052  56.547  1.00  0.00     0.162 HD
HETATM   16  O   UNL     1       8.042  27.778  54.313  1.00  0.00    -0.268 OA
BRANCH  14  17
HETATM   17  C   UNL     1       7.416  29.465  56.591  1.00  0.00     0.150 C 
BRANCH  17  18
HETATM   18  C   UNL     1       8.520  29.224  57.646  1.00  0.00     0.254 C 
BRANCH  18  19
HETATM   19  N   UNL     1       9.089  30.499  58.250  1.00  0.00    -0.070 N 
HETATM   20  H   UNL     1       8.477  31.245  57.852  1.00  0.00     0.279 HD
BRANCH  19  21
HETATM   21  C   UNL     1       8.931  30.664  59.743  1.00  0.00     0.230 C 
HETATM   22  C   UNL     1       8.968  32.120  60.166  1.00  0.00     0.034 C 
ENDBRANCH  19  21
BRANCH  19  23
HETATM   23  C   UNL     1      10.488  30.824  57.773  1.00  0.00     0.230 C 
HETATM   24  C   UNL     1      11.053  29.704  56.919  1.00  0.00     0.034 C 
ENDBRANCH  19  23
ENDBRANCH  18  19
ENDBRANCH  17  18
ENDBRANCH  14  17
ENDBRANCH   2  13
BRANCH   2  25
HETATM   25  O   UNL     1       4.967  26.188  55.566  1.00  0.00    -0.359 OA
HETATM   26  H   UNL     1       4.210  26.482  55.032  1.00  0.00     0.213 HD
ENDBRANCH   2  25
BRANCH   1  27
HETATM   27  C   UNL     1       5.023  27.678  52.876  1.00  0.00     0.043 A 
HETATM   28  C   UNL     1       5.702  28.481  51.942  1.00  0.00     0.030 A 
HETATM   29  C   UNL     1       5.118  29.642  51.416  1.00  0.00     0.009 A 
HETATM   30  C   UNL     1       3.838  30.035  51.808  1.00  0.00    -0.058 A 
HETATM   31  C   UNL     1       3.161  29.262  52.751  1.00  0.00     0.009 A 
HETATM   32  C   UNL     1       3.748  28.107  53.280  1.00  0.00     0.030 A 
BRANCH  30  33
HETATM   33  C   UNL     1       3.182  31.251  51.203  1.00  0.00     0.034 C 
HETATM   34  C   UNL     1       3.742  31.552  49.819  1.00  0.00     0.010 C 
ENDBRANCH  30  33
ENDBRANCH   1  27
TORSDOF 9
ENDMDL
MODEL 6
REMARK VINA RESULT:      -7.1      1.558      2.674
REMARK  9 active torsions:
REMARK  status: ('A' for Active; 'I' for Inactive)
REMARK    1  A    between atoms: C_2  and  C_3 
REMARK    2  A    between atoms: C_6  and  N_7 
REMARK    3  A    between atoms: C_8  and  C_10 
REMARK    4  A    between atoms: C_8  and  O_9 
REMARK       I    between atoms: C_10  and  N_11 
REMARK    5  A    between atoms: N_11  and  C_12 
REMARK    6  A    between atoms: C_12  and  C_13 
REMARK    7  A    between atoms: C_13  and  N_14 
REMARK    8  A    between atoms: N_14  and  C_16 
REMARK    9  A    between atoms: N_14  and  C_18 
ROOT
HETATM    1  N   UNL     1       6.669  26.743  56.205  1.00  0.00    -0.254 N 
HETATM    2  C   UNL     1       5.323  27.306  55.966  1.00  0.00     0.256 C 
HETATM    3  C   UNL     1       5.088  28.691  56.531  1.00  0.00     0.034 A 
HETATM    4  C   UNL     1       6.050  29.262  57.346  1.00  0.00     0.048 A 
HETATM    5  N   UNL     1       7.194  28.542  57.633  1.00  0.00    -0.308 N 
HETATM    6  C   UNL     1       7.525  27.322  57.135  1.00  0.00     0.330 C 
HETATM    7  O   UNL     1       8.577  26.828  57.537  1.00  0.00    -0.246 OA
HETATM    8  C   UNL     1       3.897  29.408  56.303  1.00  0.00     0.015 A 
HETATM    9  C   UNL     1       3.716  30.683  56.843  1.00  0.00     0.001 A 
HETATM   10  C   UNL     1       4.708  31.247  57.638  1.00  0.00     0.002 A 
HETATM   11  C   UNL     1       5.875  30.532  57.901  1.00  0.00     0.030 A 
HETATM   12  H   UNL     1       7.871  28.916  58.290  1.00  0.00     0.170 HD
ENDROOT
BRANCH   2  13
HETATM   13  C   UNL     1       5.057  27.410  54.377  1.00  0.00     0.279 C 
HETATM   14  N   UNL     1       5.651  28.476  53.726  1.00  0.00    -0.355 N 
HETATM   15  H   UNL     1       6.201  29.102  54.312  1.00  0.00     0.162 HD
HETATM   16  O   UNL     1       4.307  26.644  53.766  1.00  0.00    -0.268 OA
BRANCH  14  17
HETATM   17  C   UNL     1       5.610  28.784  52.301  1.00  0.00     0.150 C 
BRANCH  17  18
HETATM   18  C   UNL     1       4.394  29.565  51.753  1.00  0.00     0.254 C 
BRANCH  18  19
HETATM   19  N   UNL     1       4.526  31.077  51.872  1.00  0.00    -0.070 N 
HETATM   20  H   UNL     1       5.502  31.205  52.217  1.00  0.00     0.279 HD
BRANCH  19  21
HETATM   21  C   UNL     1       4.497  31.856  50.577  1.00  0.00     0.230 C 
HETATM   22  C   UNL     1       5.824  32.531  50.286  1.00  0.00     0.034 C 
ENDBRANCH  19  21
BRANCH  19  23
HETATM   23  C   UNL     1       3.635  31.682  52.935  1.00  0.00     0.230 C 
HETATM   24  C   UNL     1       4.400  32.673  53.795  1.00  0.00     0.034 C 
ENDBRANCH  19  23
ENDBRANCH  18  19
ENDBRANCH  17  18
ENDBRANCH  14  17
ENDBRANCH   2  13
BRANCH   2  25
HETATM   25  O   UNL     1       4.393  26.469  56.632  1.00  0.00    -0.359 OA
HETATM   26  H   UNL     1       4.920  25.989  57.293  1.00  0.00     0.213 HD
ENDBRANCH   2  25
BRANCH   1  27
HETATM   27  C   UNL     1       7.090  25.563  55.463  1.00  0.00     0.043 A 
HETATM   28  C   UNL     1       6.837  24.259  55.924  1.00  0.00     0.030 A 
HETATM   29  C   UNL     1       7.112  23.136  55.130  1.00  0.00     0.009 A 
HETATM   30  C   UNL     1       7.649  23.285  53.851  1.00  0.00    -0.058 A 
HETATM   31  C   UNL     1       7.928  24.571  53.388  1.00  0.00     0.009 A 
HETATM   32  C   UNL     1       7.658  25.689  54.185  1.00  0.00     0.030 A 
BRANCH  30  33
HETATM   33  C   UNL     1       7.893  22.085  52.970  1.00  0.00     0.034 C 
HETATM   34  C   UNL     1       8.536  20.947  53.751  1.00  0.00     0.010 C 
ENDBRANCH  30  33
ENDBRANCH   1  27
TORSDOF 9
ENDMDL
MODEL 7
REMARK VINA RESULT:      -7.0      2.520      6.671
REMARK  9 active torsions:
REMARK  status: ('A' for Active; 'I' for Inactive)
REMARK    1  A    between atoms: C_2  and  C_3 
REMARK    2  A    between atoms: C_6  and  N_7 
REMARK    3  A    between atoms: C_8  and  C_10 
REMARK    4  A    between atoms: C_8  and  O_9 
REMARK       I    between atoms: C_10  and  N_11 
REMARK    5  A    between atoms: N_11  and  C_12 
REMARK    6  A    between atoms: C_12  and  C_13 
REMARK    7  A    between atoms: C_13  and  N_14 
REMARK    8  A    between atoms: N_14  and  C_16 
REMARK    9  A    between atoms: N_14  and  C_18 
ROOT
HETATM    1  N   UNL     1       5.450  28.390  51.915  1.00  0.00    -0.254 N 
HETATM    2  C   UNL     1       4.709  27.193  51.465  1.00  0.00     0.256 C 
HETATM    3  C   UNL     1       4.547  27.054  49.966  1.00  0.00     0.034 A 
HETATM    4  C   UNL     1       4.941  28.094  49.143  1.00  0.00     0.048 A 
HETATM    5  N   UNL     1       5.460  29.240  49.718  1.00  0.00    -0.308 N 
HETATM    6  C   UNL     1       5.698  29.441  51.040  1.00  0.00     0.330 C 
HETATM    7  O   UNL     1       6.136  30.545  51.360  1.00  0.00    -0.246 OA
HETATM    8  C   UNL     1       3.956  25.922  49.372  1.00  0.00     0.015 A 
HETATM    9  C   UNL     1       3.821  25.831  47.985  1.00  0.00     0.001 A 
HETATM   10  C   UNL     1       4.249  26.879  47.176  1.00  0.00     0.002 A 
HETATM   11  C   UNL     1       4.801  28.019  47.755  1.00  0.00     0.030 A 
HETATM   12  H   UNL     1       5.681  30.038  49.132  1.00  0.00     0.170 HD
ENDROOT
BRANCH   2  13
HETATM   13  C   UNL     1       5.478  25.864  51.966  1.00  0.00     0.279 C 
HETATM   14  N   UNL     1       6.776  25.702  51.518  1.00  0.00    -0.355 N 
HETATM   15  H   UNL     1       7.128  26.438  50.907  1.00  0.00     0.162 HD
HETATM   16  O   UNL     1       4.936  24.986  52.644  1.00  0.00    -0.268 OA
BRANCH  14  17
HETATM   17  C   UNL     1       7.703  24.626  51.845  1.00  0.00     0.150 C 
BRANCH  17  18
HETATM   18  C   UNL     1       8.091  24.416  53.327  1.00  0.00     0.254 C 
BRANCH  18  19
HETATM   19  N   UNL     1       7.704  23.053  53.881  1.00  0.00    -0.070 N 
HETATM   20  H   UNL     1       6.846  22.809  53.339  1.00  0.00     0.279 HD
BRANCH  19  21
HETATM   21  C   UNL     1       8.651  21.914  53.583  1.00  0.00     0.230 C 
HETATM   22  C   UNL     1       7.923  20.595  53.404  1.00  0.00     0.034 C 
ENDBRANCH  19  21
BRANCH  19  23
HETATM   23  C   UNL     1       7.272  23.087  55.330  1.00  0.00     0.230 C 
HETATM   24  C   UNL     1       6.746  24.458  55.716  1.00  0.00     0.034 C 
ENDBRANCH  19  23
ENDBRANCH  18  19
ENDBRANCH  17  18
ENDBRANCH  14  17
ENDBRANCH   2  13
BRANCH   2  25
HETATM   25  O   UNL     1       3.391  27.298  51.975  1.00  0.00    -0.359 OA
HETATM   26  H   UNL     1       3.278  28.242  52.177  1.00  0.00     0.213 HD
ENDBRANCH   2  25
BRANCH   1  27
HETATM   27  C   UNL     1       5.912  28.466  53.294  1.00  0.00     0.043 A 
HETATM   28  C   UNL     1       5.036  28.719  54.364  1.00  0.00     0.030 A 
HETATM   29  C   UNL     1       5.466  28.640  55.696  1.00  0.00     0.009 A 
HETATM   30  C   UNL     1       6.787  28.305  55.997  1.00  0.00    -0.058 A 
HETATM   31  C   UNL     1       7.675  28.075  54.947  1.00  0.00     0.009 A 
HETATM   32  C   UNL     1       7.244  28.161  53.618  1.00  0.00     0.030 A 
BRANCH  30  33
HETATM   33  C   UNL     1       7.242  28.162  57.428  1.00  0.00     0.034 C 
HETATM   34  C   UNL     1       8.379  29.125  57.747  1.00  0.00     0.010 C 
ENDBRANCH  30  33
ENDBRANCH   1  27
TORSDOF 9
ENDMDL
MODEL 8
REMARK VINA RESULT:      -7.0      1.516      5.804
REMARK  9 active torsions:
REMARK  status: ('A' for Active; 'I' for Inactive)
REMARK    1  A    between atoms: C_2  and  C_3 
REMARK    2  A    between atoms: C_6  and  N_7 
REMARK    3  A    between atoms: C_8  and  C_10 
REMARK    4  A    between atoms: C_8  and  O_9 
REMARK       I    between atoms: C_10  and  N_11 
REMARK    5  A    between atoms: N_11  and  C_12 
REMARK    6  A    between atoms: C_12  and  C_13 
REMARK    7  A    between atoms: C_13  and  N_14 
REMARK    8  A    between atoms: N_14  and  C_16 
REMARK    9  A    between atoms: N_14  and  C_18 
ROOT
HETATM    1  N   UNL     1       6.456  27.412  55.497  1.00  0.00    -0.254 N 
HETATM    2  C   UNL     1       6.896  27.256  54.094  1.00  0.00     0.256 C 
HETATM    3  C   UNL     1       7.287  25.850  53.688  1.00  0.00     0.034 A 
HETATM    4  C   UNL     1       7.363  24.862  54.655  1.00  0.00     0.048 A 
HETATM    5  N   UNL     1       7.093  25.194  55.970  1.00  0.00    -0.308 N 
HETATM    6  C   UNL     1       6.683  26.405  56.428  1.00  0.00     0.330 C 
HETATM    7  O   UNL     1       6.524  26.511  57.643  1.00  0.00    -0.246 OA
HETATM    8  C   UNL     1       7.631  25.514  52.364  1.00  0.00     0.015 A 
HETATM    9  C   UNL     1       7.988  24.207  52.028  1.00  0.00     0.001 A 
HETATM   10  C   UNL     1       8.033  23.225  53.013  1.00  0.00     0.002 A 
HETATM   11  C   UNL     1       7.730  23.554  54.333  1.00  0.00     0.030 A 
HETATM   12  H   UNL     1       7.220  24.499  56.698  1.00  0.00     0.170 HD
ENDROOT
BRANCH   2  13
HETATM   13  C   UNL     1       5.704  27.703  53.102  1.00  0.00     0.279 C 
HETATM   14  N   UNL     1       5.922  28.850  52.362  1.00  0.00    -0.355 N 
HETATM   15  H   UNL     1       6.818  29.311  52.514  1.00  0.00     0.162 HD
HETATM   16  O   UNL     1       4.617  27.120  53.046  1.00  0.00    -0.268 OA
BRANCH  14  17
HETATM   17  C   UNL     1       5.039  29.451  51.369  1.00  0.00     0.150 C 
BRANCH  17  18
HETATM   18  C   UNL     1       5.180  29.005  49.896  1.00  0.00     0.254 C 
BRANCH  18  19
HETATM   19  N   UNL     1       4.079  28.066  49.426  1.00  0.00    -0.070 N 
HETATM   20  H   UNL     1       3.733  27.640  50.313  1.00  0.00     0.279 HD
BRANCH  19  21
HETATM   21  C   UNL     1       2.849  28.716  48.836  1.00  0.00     0.230 C 
HETATM   22  C   UNL     1       1.714  28.810  49.839  1.00  0.00     0.034 C 
ENDBRANCH  19  21
BRANCH  19  23
HETATM   23  C   UNL     1       4.583  26.910  48.590  1.00  0.00     0.230 C 
HETATM   24  C   UNL     1       3.512  25.848  48.415  1.00  0.00     0.034 C 
ENDBRANCH  19  23
ENDBRANCH  18  19
ENDBRANCH  17  18
ENDBRANCH  14  17
ENDBRANCH   2  13
BRANCH   2  25
HETATM   25  O   UNL     1       8.073  28.030  53.934  1.00  0.00    -0.359 OA
HETATM   26  H   UNL     1       8.178  28.500  54.779  1.00  0.00     0.213 HD
ENDBRANCH   2  25
BRANCH   1  27
HETATM   27  C   UNL     1       5.788  28.641  55.901  1.00  0.00     0.043 A 
HETATM   28  C   UNL     1       4.396  28.712  56.086  1.00  0.00     0.030 A 
HETATM   29  C   UNL     1       3.787  29.856  56.619  1.00  0.00     0.009 A 
HETATM   30  C   UNL     1       4.552  30.965  56.984  1.00  0.00    -0.058 A 
HETATM   31  C   UNL     1       5.931  30.920  56.785  1.00  0.00     0.009 A 
HETATM   32  C   UNL     1       6.537  29.778  56.247  1.00  0.00     0.030 A 
BRANCH  30  33
HETATM   33  C   UNL     1       3.909  32.177  57.611  1.00  0.00     0.034 C 
HETATM   34  C   UNL     1       4.941  33.054  58.306  1.00  0.00     0.010 C 
ENDBRANCH  30  33
ENDBRANCH   1  27
TORSDOF 9
ENDMDL
MODEL 9
REMARK VINA RESULT:      -6.7      2.080      6.071
REMARK  9 active torsions:
REMARK  status: ('A' for Active; 'I' for Inactive)
REMARK    1  A    between atoms: C_2  and  C_3 
REMARK    2  A    between atoms: C_6  and  N_7 
REMARK    3  A    between atoms: C_8  and  C_10 
REMARK    4  A    between atoms: C_8  and  O_9 
REMARK       I    between atoms: C_10  and  N_11 
REMARK    5  A    between atoms: N_11  and  C_12 
REMARK    6  A    between atoms: C_12  and  C_13 
REMARK    7  A    between atoms: C_13  and  N_14 
REMARK    8  A    between atoms: N_14  and  C_16 
REMARK    9  A    between atoms: N_14  and  C_18 
ROOT
HETATM    1  N   UNL     1       5.542  26.802  53.218  1.00  0.00    -0.254 N 
HETATM    2  C   UNL     1       5.594  28.239  53.563  1.00  0.00     0.256 C 
HETATM    3  C   UNL     1       4.610  29.121  52.825  1.00  0.00     0.034 A 
HETATM    4  C   UNL     1       3.859  28.583  51.794  1.00  0.00     0.048 A 
HETATM    5  N   UNL     1       4.043  27.254  51.458  1.00  0.00    -0.308 N 
HETATM    6  C   UNL     1       4.855  26.368  52.090  1.00  0.00     0.330 C 
HETATM    7  O   UNL     1       4.905  25.233  51.620  1.00  0.00    -0.246 OA
HETATM    8  C   UNL     1       4.463  30.492  53.110  1.00  0.00     0.015 A 
HETATM    9  C   UNL     1       3.545  31.275  52.405  1.00  0.00     0.001 A 
HETATM   10  C   UNL     1       2.783  30.705  51.390  1.00  0.00     0.002 A 
HETATM   11  C   UNL     1       2.947  29.358  51.074  1.00  0.00     0.030 A 
HETATM   12  H   UNL     1       3.556  26.868  50.656  1.00  0.00     0.170 HD
ENDROOT
BRANCH   2  13
HETATM   13  C   UNL     1       5.286  28.428  55.136  1.00  0.00     0.279 C 
HETATM   14  N   UNL     1       6.366  28.747  55.938  1.00  0.00    -0.355 N 
HETATM   15  H   UNL     1       7.262  28.831  55.460  1.00  0.00     0.162 HD
HETATM   16  O   UNL     1       4.175  28.226  55.635  1.00  0.00    -0.268 OA
BRANCH  14  17
HETATM   17  C   UNL     1       6.364  29.011  57.372  1.00  0.00     0.150 C 
BRANCH  17  18
HETATM   18  C   UNL     1       6.183  30.470  57.849  1.00  0.00     0.254 C 
BRANCH  18  19
HETATM   19  N   UNL     1       6.946  30.803  59.123  1.00  0.00    -0.070 N 
HETATM   20  H   UNL     1       6.464  30.228  59.848  1.00  0.00     0.279 HD
BRANCH  19  21
HETATM   21  C   UNL     1       8.381  30.334  59.187  1.00  0.00     0.230 C 
HETATM   22  C   UNL     1       9.361  31.439  58.843  1.00  0.00     0.034 C 
ENDBRANCH  19  21
BRANCH  19  23
HETATM   23  C   UNL     1       6.783  32.240  59.569  1.00  0.00     0.230 C 
HETATM   24  C   UNL     1       6.205  32.319  60.971  1.00  0.00     0.034 C 
ENDBRANCH  19  23
ENDBRANCH  18  19
ENDBRANCH  17  18
ENDBRANCH  14  17
ENDBRANCH   2  13
BRANCH   2  25
HETATM   25  O   UNL     1       6.876  28.715  53.187  1.00  0.00    -0.359 OA
HETATM   26  H   UNL     1       7.214  29.168  53.977  1.00  0.00     0.213 HD
ENDBRANCH   2  25
BRANCH   1  27
HETATM   27  C   UNL     1       6.228  25.840  54.069  1.00  0.00     0.043 A 
HETATM   28  C   UNL     1       7.570  25.476  53.856  1.00  0.00     0.030 A 
HETATM   29  C   UNL     1       8.261  24.666  54.769  1.00  0.00     0.009 A 
HETATM   30  C   UNL     1       7.630  24.197  55.922  1.00  0.00    -0.058 A 
HETATM   31  C   UNL     1       6.293  24.529  56.135  1.00  0.00     0.009 A 
HETATM   32  C   UNL     1       5.603  25.332  55.220  1.00  0.00     0.030 A 
BRANCH  30  33
HETATM   33  C   UNL     1       8.385  23.373  56.936  1.00  0.00     0.034 C 
HETATM   34  C   UNL     1       8.437  21.906  56.530  1.00  0.00     0.010 C 
ENDBRANCH  30  33
ENDBRANCH   1  27
TORSDOF 9
ENDMDL
MODEL 10
REMARK VINA RESULT:      -6.5      2.593      5.915
REMARK  9 active torsions:
REMARK  status: ('A' for Active; 'I' for Inactive)
REMARK    1  A    between atoms: C_2  and  C_3 
REMARK    2  A    between atoms: C_6  and  N_7 
REMARK    3  A    between atoms: C_8  and  C_10 
REMARK    4  A    between atoms: C_8  and  O_9 
REMARK       I    between atoms: C_10  and  N_11 
REMARK    5  A    between atoms: N_11  and  C_12 
REMARK    6  A    between atoms: C_12  and  C_13 
REMARK    7  A    between atoms: C_13  and  N_14 
REMARK    8  A    between atoms: N_14  and  C_16 
REMARK    9  A    between atoms: N_14  and  C_18 
ROOT
HETATM    1  N   UNL     1       8.348  28.752  56.097  1.00  0.00    -0.254 N 
HETATM    2  C   UNL     1       7.795  28.912  57.459  1.00  0.00     0.256 C 
HETATM    3  C   UNL     1       8.457  29.977  58.308  1.00  0.00     0.034 A 
HETATM    4  C   UNL     1       9.599  30.604  57.839  1.00  0.00     0.048 A 
HETATM    5  N   UNL     1      10.113  30.225  56.613  1.00  0.00    -0.308 N 
HETATM    6  C   UNL     1       9.567  29.324  55.754  1.00  0.00     0.330 C 
HETATM    7  O   UNL     1      10.193  29.099  54.720  1.00  0.00    -0.246 OA
HETATM    8  C   UNL     1       7.985  30.324  59.588  1.00  0.00     0.015 A 
HETATM    9  C   UNL     1       8.623  31.311  60.343  1.00  0.00     0.001 A 
HETATM   10  C   UNL     1       9.756  31.944  59.840  1.00  0.00     0.002 A 
HETATM   11  C   UNL     1      10.253  31.584  58.590  1.00  0.00     0.030 A 
HETATM   12  H   UNL     1      10.991  30.620  56.293  1.00  0.00     0.170 HD
ENDROOT
BRANCH   2  13
HETATM   13  C   UNL     1       6.233  29.309  57.363  1.00  0.00     0.279 C 
HETATM   14  N   UNL     1       5.955  30.607  56.974  1.00  0.00    -0.355 N 
HETATM   15  H   UNL     1       6.764  31.196  56.786  1.00  0.00     0.162 HD
HETATM   16  O   UNL     1       5.321  28.545  57.691  1.00  0.00    -0.268 OA
BRANCH  14  17
HETATM   17  C   UNL     1       4.644  31.212  56.769  1.00  0.00     0.150 C 
BRANCH  17  18
HETATM   18  C   UNL     1       3.801  31.577  58.012  1.00  0.00     0.254 C 
BRANCH  18  19
HETATM   19  N   UNL     1       4.394  32.696  58.856  1.00  0.00    -0.070 N 
HETATM   20  H   UNL     1       5.374  32.767  58.504  1.00  0.00     0.279 HD
BRANCH  19  21
HETATM   21  C   UNL     1       3.830  34.079  58.627  1.00  0.00     0.230 C 
HETATM   22  C   UNL     1       4.592  34.838  57.557  1.00  0.00     0.034 C 
ENDBRANCH  19  21
BRANCH  19  23
HETATM   23  C   UNL     1       4.512  32.352  60.324  1.00  0.00     0.230 C 
HETATM   24  C   UNL     1       5.560  33.212  61.009  1.00  0.00     0.034 C 
ENDBRANCH  19  23
ENDBRANCH  18  19
ENDBRANCH  17  18
ENDBRANCH  14  17
ENDBRANCH   2  13
BRANCH   2  25
HETATM   25  O   UNL     1       8.019  27.694  58.149  1.00  0.00    -0.359 OA
HETATM   26  H   UNL     1       7.539  27.793  58.989  1.00  0.00     0.213 HD
ENDBRANCH   2  25
BRANCH   1  27
HETATM   27  C   UNL     1       7.606  27.975  55.114  1.00  0.00     0.043 A 
HETATM   28  C   UNL     1       6.963  28.574  54.016  1.00  0.00     0.030 A 
HETATM   29  C   UNL     1       6.382  27.803  52.999  1.00  0.00     0.009 A 
HETATM   30  C   UNL     1       6.426  26.409  53.050  1.00  0.00    -0.058 A 
HETATM   31  C   UNL     1       7.039  25.800  54.145  1.00  0.00     0.009 A 
HETATM   32  C   UNL     1       7.613  26.571  55.162  1.00  0.00     0.030 A 
BRANCH  30  33
HETATM   33  C   UNL     1       5.854  25.575  51.932  1.00  0.00     0.034 C 
HETATM   34  C   UNL     1       4.651  24.768  52.402  1.00  0.00     0.010 C 
ENDBRANCH  30  33
ENDBRANCH   1  27
TORSDOF 9
ENDMDL
