MODEL 1
REMARK VINA RESULT:      -8.6      0.000      0.000
REMARK  5 active torsions:
REMARK  status: ('A' for Active; 'I' for Inactive)
REMARK    1  A    between atoms: C_2  and  O_3 
REMARK    2  A    between atoms: O_3  and  C_4 
REMARK    3  A    between atoms: C_5  and  C_6 
REMARK       I    between atoms: C_6  and  N_7 
REMARK    4  A    between atoms: N_7  and  N_8 
REMARK    5  A    between atoms: C_9  and  C_10 
ROOT
HETATM    1  C   UNL     1       8.418  24.174  56.045  1.00  0.00     0.274 C 
HETATM    2  N   UNL     1       7.693  25.305  55.705  1.00  0.00    -0.243 N 
HETATM    3  O   UNL     1       9.100  24.049  57.059  1.00  0.00    -0.266 OA
HETATM    4  H   UNL     1       7.154  25.316  54.844  1.00  0.00     0.192 HD
ENDROOT
BRANCH   2   5
HETATM    5  N   UNL     1       7.569  26.318  56.612  1.00  0.00    -0.183 NA
HETATM    6  C   UNL     1       7.732  27.516  56.157  1.00  0.00     0.152 C 
BRANCH   6   7
HETATM    7  C   UNL     1       7.545  28.640  57.053  1.00  0.00     0.011 A 
HETATM    8  C   UNL     1       8.533  29.564  57.524  1.00  0.00     0.004 A 
HETATM    9  C   UNL     1       7.879  30.502  58.327  1.00  0.00     0.043 A 
HETATM   10  C   UNL     1       9.923  29.707  57.330  1.00  0.00     0.014 A 
HETATM   11  C   UNL     1       8.541  31.572  58.941  1.00  0.00     0.030 A 
HETATM   12  N   UNL     1       6.549  30.153  58.358  1.00  0.00    -0.364 N 
HETATM   13  C   UNL     1       9.916  31.691  58.729  1.00  0.00     0.002 A 
HETATM   14  C   UNL     1      10.600  30.773  57.937  1.00  0.00     0.001 A 
HETATM   15  H   UNL     1       5.832  30.659  58.860  1.00  0.00     0.165 HD
HETATM   16  C   UNL     1       6.336  29.041  57.594  1.00  0.00     0.102 A 
ENDBRANCH   6   7
ENDBRANCH   2   5
BRANCH   1  17
HETATM   17  C   UNL     1       8.254  23.004  55.135  1.00  0.00     0.067 A 
HETATM   18  C   UNL     1       8.191  23.097  53.737  1.00  0.00     0.084 A 
HETATM   19  C   UNL     1       7.951  21.941  52.980  1.00  0.00     0.038 A 
HETATM   20  C   UNL     1       7.823  20.697  53.605  1.00  0.00     0.003 A 
HETATM   21  C   UNL     1       7.927  20.597  54.988  1.00  0.00     0.001 A 
HETATM   22  C   UNL     1       8.141  21.745  55.750  1.00  0.00     0.020 A 
BRANCH  18  23
HETATM   23  O   UNL     1       8.329  24.330  53.146  1.00  0.00    -0.350 OA
BRANCH  23  24
HETATM   24  C   UNL     1       7.536  24.500  51.963  1.00  0.00     0.171 C 
HETATM   25  C   UNL     1       6.213  25.126  52.361  1.00  0.00     0.034 C 
ENDBRANCH  23  24
ENDBRANCH  18  23
ENDBRANCH   1  17
TORSDOF 5
ENDMDL
MODEL 2
REMARK VINA RESULT:      -8.4      1.717      2.962
REMARK  5 active torsions:
REMARK  status: ('A' for Active; 'I' for Inactive)
REMARK    1  A    between atoms: C_2  and  O_3 
REMARK    2  A    between atoms: O_3  and  C_4 
REMARK    3  A    between atoms: C_5  and  C_6 
REMARK       I    between atoms: C_6  and  N_7 
REMARK    4  A    between atoms: N_7  and  N_8 
REMARK    5  A    between atoms: C_9  and  C_10 
ROOT
HETATM    1  C   UNL     1       7.177  24.442  54.065  1.00  0.00     0.274 C 
HETATM    2  N   UNL     1       5.998  24.802  54.698  1.00  0.00    -0.243 N 
HETATM    3  O   UNL     1       7.964  25.223  53.536  1.00  0.00    -0.266 OA
HETATM    4  H   UNL     1       5.409  24.085  55.110  1.00  0.00     0.192 HD
ENDROOT
BRANCH   2   5
HETATM    5  N   UNL     1       5.732  26.124  54.914  1.00  0.00    -0.183 NA
HETATM    6  C   UNL     1       5.567  26.481  56.145  1.00  0.00     0.152 C 
BRANCH   6   7
HETATM    7  C   UNL     1       5.351  27.882  56.448  1.00  0.00     0.011 A 
HETATM    8  C   UNL     1       6.192  28.757  57.208  1.00  0.00     0.004 A 
HETATM    9  C   UNL     1       5.600  30.022  57.193  1.00  0.00     0.043 A 
HETATM   10  C   UNL     1       7.416  28.602  57.894  1.00  0.00     0.014 A 
HETATM   11  C   UNL     1       6.168  31.136  57.825  1.00  0.00     0.030 A 
HETATM   12  N   UNL     1       4.437  29.918  56.468  1.00  0.00    -0.364 N 
HETATM   13  C   UNL     1       7.381  30.954  58.493  1.00  0.00     0.002 A 
HETATM   14  C   UNL     1       7.997  29.706  58.531  1.00  0.00     0.001 A 
HETATM   15  H   UNL     1       3.801  30.682  56.285  1.00  0.00     0.165 HD
HETATM   16  C   UNL     1       4.279  28.640  56.012  1.00  0.00     0.102 A 
ENDBRANCH   6   7
ENDBRANCH   2   5
BRANCH   1  17
HETATM   17  C   UNL     1       7.533  22.996  54.139  1.00  0.00     0.067 A 
HETATM   18  C   UNL     1       7.664  22.278  55.337  1.00  0.00     0.084 A 
HETATM   19  C   UNL     1       8.086  20.941  55.295  1.00  0.00     0.038 A 
HETATM   20  C   UNL     1       8.329  20.311  54.071  1.00  0.00     0.003 A 
HETATM   21  C   UNL     1       8.159  21.009  52.881  1.00  0.00     0.001 A 
HETATM   22  C   UNL     1       7.763  22.346  52.914  1.00  0.00     0.020 A 
BRANCH  18  23
HETATM   23  O   UNL     1       7.412  22.917  56.526  1.00  0.00    -0.350 OA
BRANCH  23  24
HETATM   24  C   UNL     1       8.593  23.294  57.247  1.00  0.00     0.171 C 
HETATM   25  C   UNL     1       8.604  24.803  57.391  1.00  0.00     0.034 C 
ENDBRANCH  23  24
ENDBRANCH  18  23
ENDBRANCH   1  17
TORSDOF 5
ENDMDL
MODEL 3
REMARK VINA RESULT:      -8.4      1.933      8.153
REMARK  5 active torsions:
REMARK  status: ('A' for Active; 'I' for Inactive)
REMARK    1  A    between atoms: C_2  and  O_3 
REMARK    2  A    between atoms: O_3  and  C_4 
REMARK    3  A    between atoms: C_5  and  C_6 
REMARK       I    between atoms: C_6  and  N_7 
REMARK    4  A    between atoms: N_7  and  N_8 
REMARK    5  A    between atoms: C_9  and  C_10 
ROOT
HETATM    1  C   UNL     1       7.056  27.438  56.635  1.00  0.00     0.274 C 
HETATM    2  N   UNL     1       7.160  26.379  57.522  1.00  0.00    -0.243 N 
HETATM    3  O   UNL     1       7.075  27.341  55.410  1.00  0.00    -0.266 OA
HETATM    4  H   UNL     1       7.133  26.556  58.522  1.00  0.00     0.192 HD
ENDROOT
BRANCH   2   5
HETATM    5  N   UNL     1       7.120  25.100  57.044  1.00  0.00    -0.183 NA
HETATM    6  C   UNL     1       8.233  24.444  57.073  1.00  0.00     0.152 C 
BRANCH   6   7
HETATM    7  C   UNL     1       8.244  23.059  56.646  1.00  0.00     0.011 A 
HETATM    8  C   UNL     1       8.124  22.548  55.313  1.00  0.00     0.004 A 
HETATM    9  C   UNL     1       8.235  21.157  55.387  1.00  0.00     0.043 A 
HETATM   10  C   UNL     1       7.949  23.136  54.042  1.00  0.00     0.014 A 
HETATM   11  C   UNL     1       8.184  20.328  54.259  1.00  0.00     0.030 A 
HETATM   12  N   UNL     1       8.400  20.833  56.713  1.00  0.00    -0.364 N 
HETATM   13  C   UNL     1       8.014  20.938  53.014  1.00  0.00     0.002 A 
HETATM   14  C   UNL     1       7.896  22.320  52.904  1.00  0.00     0.001 A 
HETATM   15  H   UNL     1       8.513  19.893  57.067  1.00  0.00     0.165 HD
HETATM   16  C   UNL     1       8.411  21.966  57.477  1.00  0.00     0.102 A 
ENDBRANCH   6   7
ENDBRANCH   2   5
BRANCH   1  17
HETATM   17  C   UNL     1       6.804  28.773  57.249  1.00  0.00     0.067 A 
HETATM   18  C   UNL     1       7.769  29.511  57.951  1.00  0.00     0.084 A 
HETATM   19  C   UNL     1       7.402  30.719  58.562  1.00  0.00     0.038 A 
HETATM   20  C   UNL     1       6.100  31.212  58.435  1.00  0.00     0.003 A 
HETATM   21  C   UNL     1       5.153  30.503  57.703  1.00  0.00     0.001 A 
HETATM   22  C   UNL     1       5.504  29.289  57.114  1.00  0.00     0.020 A 
BRANCH  18  23
HETATM   23  O   UNL     1       9.043  29.009  58.055  1.00  0.00    -0.350 OA
BRANCH  23  24
HETATM   24  C   UNL     1      10.064  29.916  57.616  1.00  0.00     0.171 C 
HETATM   25  C   UNL     1      10.280  29.709  56.129  1.00  0.00     0.034 C 
ENDBRANCH  23  24
ENDBRANCH  18  23
ENDBRANCH   1  17
TORSDOF 5
ENDMDL
MODEL 4
REMARK VINA RESULT:      -8.3      4.606      8.141
REMARK  5 active torsions:
REMARK  status: ('A' for Active; 'I' for Inactive)
REMARK    1  A    between atoms: C_2  and  O_3 
REMARK    2  A    between atoms: O_3  and  C_4 
REMARK    3  A    between atoms: C_5  and  C_6 
REMARK       I    between atoms: C_6  and  N_7 
REMARK    4  A    between atoms: N_7  and  N_8 
REMARK    5  A    between atoms: C_9  and  C_10 
ROOT
HETATM    1  C   UNL     1       5.205  26.940  51.553  1.00  0.00     0.274 C 
HETATM    2  N   UNL     1       6.054  25.879  51.281  1.00  0.00    -0.243 N 
HETATM    3  O   UNL     1       4.554  27.079  52.585  1.00  0.00    -0.266 OA
HETATM    4  H   UNL     1       6.554  25.849  50.397  1.00  0.00     0.192 HD
ENDROOT
BRANCH   2   5
HETATM    5  N   UNL     1       6.343  24.983  52.270  1.00  0.00    -0.183 NA
HETATM    6  C   UNL     1       7.506  25.096  52.823  1.00  0.00     0.152 C 
BRANCH   6   7
HETATM    7  C   UNL     1       7.848  24.222  53.927  1.00  0.00     0.011 A 
HETATM    8  C   UNL     1       8.039  22.803  53.899  1.00  0.00     0.004 A 
HETATM    9  C   UNL     1       8.400  22.404  55.188  1.00  0.00     0.043 A 
HETATM   10  C   UNL     1       7.958  21.815  52.894  1.00  0.00     0.014 A 
HETATM   11  C   UNL     1       8.687  21.074  55.522  1.00  0.00     0.030 A 
HETATM   12  N   UNL     1       8.413  23.533  55.974  1.00  0.00    -0.364 N 
HETATM   13  C   UNL     1       8.602  20.119  54.507  1.00  0.00     0.002 A 
HETATM   14  C   UNL     1       8.242  20.480  53.212  1.00  0.00     0.001 A 
HETATM   15  H   UNL     1       8.646  23.548  56.957  1.00  0.00     0.165 HD
HETATM   16  C   UNL     1       8.087  24.629  55.227  1.00  0.00     0.102 A 
ENDBRANCH   6   7
ENDBRANCH   2   5
BRANCH   1  17
HETATM   17  C   UNL     1       5.180  28.026  50.532  1.00  0.00     0.067 A 
HETATM   18  C   UNL     1       4.831  27.834  49.186  1.00  0.00     0.084 A 
HETATM   19  C   UNL     1       4.923  28.910  48.291  1.00  0.00     0.038 A 
HETATM   20  C   UNL     1       5.311  30.175  48.739  1.00  0.00     0.003 A 
HETATM   21  C   UNL     1       5.617  30.377  50.081  1.00  0.00     0.001 A 
HETATM   22  C   UNL     1       5.552  29.307  50.973  1.00  0.00     0.020 A 
BRANCH  18  23
HETATM   23  O   UNL     1       4.444  26.582  48.773  1.00  0.00    -0.350 OA
BRANCH  23  24
HETATM   24  C   UNL     1       3.091  26.517  48.302  1.00  0.00     0.171 C 
HETATM   25  C   UNL     1       2.986  25.379  47.306  1.00  0.00     0.034 C 
ENDBRANCH  23  24
ENDBRANCH  18  23
ENDBRANCH   1  17
TORSDOF 5
ENDMDL
MODEL 5
REMARK VINA RESULT:      -8.2      2.261      8.036
REMARK  5 active torsions:
REMARK  status: ('A' for Active; 'I' for Inactive)
REMARK    1  A    between atoms: C_2  and  O_3 
REMARK    2  A    between atoms: O_3  and  C_4 
REMARK    3  A    between atoms: C_5  and  C_6 
REMARK       I    between atoms: C_6  and  N_7 
REMARK    4  A    between atoms: N_7  and  N_8 
REMARK    5  A    between atoms: C_9  and  C_10 
ROOT
HETATM    1  C   UNL     1       8.370  28.500  57.445  1.00  0.00     0.274 C 
HETATM    2  N   UNL     1       7.507  27.444  57.200  1.00  0.00    -0.243 N 
HETATM    3  O   UNL     1       9.532  28.570  57.052  1.00  0.00    -0.266 OA
HETATM    4  H   UNL     1       6.559  27.474  57.565  1.00  0.00     0.192 HD
ENDROOT
BRANCH   2   5
HETATM    5  N   UNL     1       7.882  26.462  56.329  1.00  0.00    -0.183 NA
HETATM    6  C   UNL     1       7.054  26.199  55.372  1.00  0.00     0.152 C 
BRANCH   6   7
HETATM    7  C   UNL     1       7.423  25.217  54.372  1.00  0.00     0.011 A 
HETATM    8  C   UNL     1       7.576  23.803  54.541  1.00  0.00     0.004 A 
HETATM    9  C   UNL     1       7.894  23.265  53.292  1.00  0.00     0.043 A 
HETATM   10  C   UNL     1       7.456  22.921  55.637  1.00  0.00     0.014 A 
HETATM   11  C   UNL     1       8.095  21.894  53.083  1.00  0.00     0.030 A 
HETATM   12  N   UNL     1       7.949  24.310  52.401  1.00  0.00    -0.364 N 
HETATM   13  C   UNL     1       7.966  21.045  54.184  1.00  0.00     0.002 A 
HETATM   14  C   UNL     1       7.653  21.548  55.443  1.00  0.00     0.001 A 
HETATM   15  H   UNL     1       8.154  24.218  51.416  1.00  0.00     0.165 HD
HETATM   16  C   UNL     1       7.663  25.485  53.036  1.00  0.00     0.102 A 
ENDBRANCH   6   7
ENDBRANCH   2   5
BRANCH   1  17
HETATM   17  C   UNL     1       7.776  29.667  58.158  1.00  0.00     0.067 A 
HETATM   18  C   UNL     1       6.627  30.349  57.731  1.00  0.00     0.084 A 
HETATM   19  C   UNL     1       6.202  31.488  58.431  1.00  0.00     0.038 A 
HETATM   20  C   UNL     1       6.885  31.915  59.573  1.00  0.00     0.003 A 
HETATM   21  C   UNL     1       8.000  31.215  60.022  1.00  0.00     0.001 A 
HETATM   22  C   UNL     1       8.444  30.097  59.318  1.00  0.00     0.020 A 
BRANCH  18  23
HETATM   23  O   UNL     1       5.969  29.904  56.610  1.00  0.00    -0.350 OA
BRANCH  23  24
HETATM   24  C   UNL     1       4.584  29.601  56.831  1.00  0.00     0.171 C 
HETATM   25  C   UNL     1       4.172  28.515  55.856  1.00  0.00     0.034 C 
ENDBRANCH  23  24
ENDBRANCH  18  23
ENDBRANCH   1  17
TORSDOF 5
ENDMDL
MODEL 6
REMARK VINA RESULT:      -8.2      3.717      7.189
REMARK  5 active torsions:
REMARK  status: ('A' for Active; 'I' for Inactive)
REMARK    1  A    between atoms: C_2  and  O_3 
REMARK    2  A    between atoms: O_3  and  C_4 
REMARK    3  A    between atoms: C_5  and  C_6 
REMARK       I    between atoms: C_6  and  N_7 
REMARK    4  A    between atoms: N_7  and  N_8 
REMARK    5  A    between atoms: C_9  and  C_10 
ROOT
HETATM    1  C   UNL     1       7.351  23.873  52.988  1.00  0.00     0.274 C 
HETATM    2  N   UNL     1       6.038  24.316  52.980  1.00  0.00    -0.243 N 
HETATM    3  O   UNL     1       8.292  24.439  52.437  1.00  0.00    -0.266 OA
HETATM    4  H   UNL     1       5.324  23.781  53.467  1.00  0.00     0.192 HD
ENDROOT
BRANCH   2   5
HETATM    5  N   UNL     1       5.752  25.551  52.471  1.00  0.00    -0.183 NA
HETATM    6  C   UNL     1       5.326  25.581  51.251  1.00  0.00     0.152 C 
BRANCH   6   7
HETATM    7  C   UNL     1       4.937  26.853  50.675  1.00  0.00     0.011 A 
HETATM    8  C   UNL     1       4.259  27.087  49.435  1.00  0.00     0.004 A 
HETATM    9  C   UNL     1       4.058  28.465  49.322  1.00  0.00     0.043 A 
HETATM   10  C   UNL     1       3.777  26.256  48.401  1.00  0.00     0.014 A 
HETATM   11  C   UNL     1       3.400  29.051  48.233  1.00  0.00     0.030 A 
HETATM   12  N   UNL     1       4.606  29.048  50.440  1.00  0.00    -0.364 N 
HETATM   13  C   UNL     1       2.930  28.204  47.227  1.00  0.00     0.002 A 
HETATM   14  C   UNL     1       3.116  26.827  47.306  1.00  0.00     0.001 A 
HETATM   15  H   UNL     1       4.604  30.041  50.631  1.00  0.00     0.165 HD
HETATM   16  C   UNL     1       5.132  28.091  51.260  1.00  0.00     0.102 A 
ENDBRANCH   6   7
ENDBRANCH   2   5
BRANCH   1  17
HETATM   17  C   UNL     1       7.621  22.667  53.823  1.00  0.00     0.067 A 
HETATM   18  C   UNL     1       7.510  22.637  55.221  1.00  0.00     0.084 A 
HETATM   19  C   UNL     1       7.869  21.473  55.915  1.00  0.00     0.038 A 
HETATM   20  C   UNL     1       8.289  20.334  55.222  1.00  0.00     0.003 A 
HETATM   21  C   UNL     1       8.359  20.349  53.833  1.00  0.00     0.001 A 
HETATM   22  C   UNL     1       8.027  21.510  53.136  1.00  0.00     0.020 A 
BRANCH  18  23
HETATM   23  O   UNL     1       7.086  23.767  55.878  1.00  0.00    -0.350 OA
BRANCH  23  24
HETATM   24  C   UNL     1       8.094  24.376  56.696  1.00  0.00     0.171 C 
HETATM   25  C   UNL     1       7.468  25.541  57.438  1.00  0.00     0.034 C 
ENDBRANCH  23  24
ENDBRANCH  18  23
ENDBRANCH   1  17
TORSDOF 5
ENDMDL
MODEL 7
REMARK VINA RESULT:      -8.2      1.462      1.693
REMARK  5 active torsions:
REMARK  status: ('A' for Active; 'I' for Inactive)
REMARK    1  A    between atoms: C_2  and  O_3 
REMARK    2  A    between atoms: O_3  and  C_4 
REMARK    3  A    between atoms: C_5  and  C_6 
REMARK       I    between atoms: C_6  and  N_7 
REMARK    4  A    between atoms: N_7  and  N_8 
REMARK    5  A    between atoms: C_9  and  C_10 
ROOT
HETATM    1  C   UNL     1       7.373  25.026  56.571  1.00  0.00     0.274 C 
HETATM    2  N   UNL     1       8.272  25.992  56.992  1.00  0.00    -0.243 N 
HETATM    3  O   UNL     1       6.198  24.952  56.921  1.00  0.00    -0.266 OA
HETATM    4  H   UNL     1       9.228  25.975  56.647  1.00  0.00     0.192 HD
ENDROOT
BRANCH   2   5
HETATM    5  N   UNL     1       7.820  27.053  57.725  1.00  0.00    -0.183 NA
HETATM    6  C   UNL     1       7.707  28.175  57.095  1.00  0.00     0.152 C 
BRANCH   6   7
HETATM    7  C   UNL     1       7.166  29.323  57.796  1.00  0.00     0.011 A 
HETATM    8  C   UNL     1       7.865  30.257  58.627  1.00  0.00     0.004 A 
HETATM    9  C   UNL     1       6.941  31.217  59.046  1.00  0.00     0.043 A 
HETATM   10  C   UNL     1       9.205  30.391  59.051  1.00  0.00     0.014 A 
HETATM   11  C   UNL     1       7.287  32.301  59.862  1.00  0.00     0.030 A 
HETATM   12  N   UNL     1       5.724  30.873  58.505  1.00  0.00    -0.364 N 
HETATM   13  C   UNL     1       8.620  32.411  60.263  1.00  0.00     0.002 A 
HETATM   14  C   UNL     1       9.567  31.471  59.867  1.00  0.00     0.001 A 
HETATM   15  H   UNL     1       4.868  31.393  58.636  1.00  0.00     0.165 HD
HETATM   16  C   UNL     1       5.848  29.741  57.750  1.00  0.00     0.102 A 
ENDBRANCH   6   7
ENDBRANCH   2   5
BRANCH   1  17
HETATM   17  C   UNL     1       7.880  24.079  55.536  1.00  0.00     0.067 A 
HETATM   18  C   UNL     1       7.557  24.156  54.173  1.00  0.00     0.084 A 
HETATM   19  C   UNL     1       8.022  23.163  53.299  1.00  0.00     0.038 A 
HETATM   20  C   UNL     1       8.840  22.131  53.766  1.00  0.00     0.003 A 
HETATM   21  C   UNL     1       9.197  22.077  55.110  1.00  0.00     0.001 A 
HETATM   22  C   UNL     1       8.718  23.047  55.991  1.00  0.00     0.020 A 
BRANCH  18  23
HETATM   23  O   UNL     1       6.757  25.184  53.737  1.00  0.00    -0.350 OA
BRANCH  23  24
HETATM   24  C   UNL     1       5.439  24.773  53.351  1.00  0.00     0.171 C 
HETATM   25  C   UNL     1       5.155  25.320  51.965  1.00  0.00     0.034 C 
ENDBRANCH  23  24
ENDBRANCH  18  23
ENDBRANCH   1  17
TORSDOF 5
ENDMDL
MODEL 8
REMARK VINA RESULT:      -8.1      2.096      8.071
REMARK  5 active torsions:
REMARK  status: ('A' for Active; 'I' for Inactive)
REMARK    1  A    between atoms: C_2  and  O_3 
REMARK    2  A    between atoms: O_3  and  C_4 
REMARK    3  A    between atoms: C_5  and  C_6 
REMARK       I    between atoms: C_6  and  N_7 
REMARK    4  A    between atoms: N_7  and  N_8 
REMARK    5  A    between atoms: C_9  and  C_10 
ROOT
HETATM    1  C   UNL     1       8.078  27.618  56.707  1.00  0.00     0.274 C 
HETATM    2  N   UNL     1       8.209  26.470  57.472  1.00  0.00    -0.243 N 
HETATM    3  O   UNL     1       7.853  27.642  55.500  1.00  0.00    -0.266 OA
HETATM    4  H   UNL     1       8.393  26.548  58.469  1.00  0.00     0.192 HD
ENDROOT
BRANCH   2   5
HETATM    5  N   UNL     1       7.915  25.258  56.916  1.00  0.00    -0.183 NA
HETATM    6  C   UNL     1       8.767  24.309  57.129  1.00  0.00     0.152 C 
BRANCH   6   7
HETATM    7  C   UNL     1       8.480  22.981  56.626  1.00  0.00     0.011 A 
HETATM    8  C   UNL     1       8.278  22.580  55.266  1.00  0.00     0.004 A 
HETATM    9  C   UNL     1       8.077  21.197  55.263  1.00  0.00     0.043 A 
HETATM   10  C   UNL     1       8.265  23.258  54.028  1.00  0.00     0.014 A 
HETATM   11  C   UNL     1       7.868  20.460  54.090  1.00  0.00     0.030 A 
HETATM   12  N   UNL     1       8.139  20.775  56.570  1.00  0.00    -0.364 N 
HETATM   13  C   UNL     1       7.864  21.157  52.880  1.00  0.00     0.002 A 
HETATM   14  C   UNL     1       8.057  22.535  52.846  1.00  0.00     0.001 A 
HETATM   15  H   UNL     1       8.034  19.816  56.872  1.00  0.00     0.165 HD
HETATM   16  C   UNL     1       8.384  21.835  57.396  1.00  0.00     0.102 A 
ENDBRANCH   6   7
ENDBRANCH   2   5
BRANCH   1  17
HETATM   17  C   UNL     1       8.119  28.904  57.460  1.00  0.00     0.067 A 
HETATM   18  C   UNL     1       6.981  29.606  57.882  1.00  0.00     0.084 A 
HETATM   19  C   UNL     1       7.133  30.851  58.511  1.00  0.00     0.038 A 
HETATM   20  C   UNL     1       8.407  31.369  58.760  1.00  0.00     0.003 A 
HETATM   21  C   UNL     1       9.538  30.654  58.381  1.00  0.00     0.001 A 
HETATM   22  C   UNL     1       9.395  29.428  57.733  1.00  0.00     0.020 A 
BRANCH  18  23
HETATM   23  O   UNL     1       5.740  29.072  57.632  1.00  0.00    -0.350 OA
BRANCH  23  24
HETATM   24  C   UNL     1       5.053  29.684  56.532  1.00  0.00     0.171 C 
HETATM   25  C   UNL     1       4.121  28.657  55.919  1.00  0.00     0.034 C 
ENDBRANCH  23  24
ENDBRANCH  18  23
ENDBRANCH   1  17
TORSDOF 5
ENDMDL
MODEL 9
REMARK VINA RESULT:      -8.1      4.548      8.132
REMARK  5 active torsions:
REMARK  status: ('A' for Active; 'I' for Inactive)
REMARK    1  A    between atoms: C_2  and  O_3 
REMARK    2  A    between atoms: O_3  and  C_4 
REMARK    3  A    between atoms: C_5  and  C_6 
REMARK       I    between atoms: C_6  and  N_7 
REMARK    4  A    between atoms: N_7  and  N_8 
REMARK    5  A    between atoms: C_9  and  C_10 
ROOT
HETATM    1  C   UNL     1       4.690  26.732  50.143  1.00  0.00     0.274 C 
HETATM    2  N   UNL     1       4.597  25.639  50.989  1.00  0.00    -0.243 N 
HETATM    3  O   UNL     1       5.545  27.611  50.213  1.00  0.00    -0.266 OA
HETATM    4  H   UNL     1       3.854  24.959  50.853  1.00  0.00     0.192 HD
ENDROOT
BRANCH   2   5
HETATM    5  N   UNL     1       5.603  25.395  51.880  1.00  0.00    -0.183 NA
HETATM    6  C   UNL     1       5.241  25.054  53.072  1.00  0.00     0.152 C 
BRANCH   6   7
HETATM    7  C   UNL     1       6.259  24.713  54.046  1.00  0.00     0.011 A 
HETATM    8  C   UNL     1       7.197  23.632  53.997  1.00  0.00     0.004 A 
HETATM    9  C   UNL     1       8.008  23.730  55.130  1.00  0.00     0.043 A 
HETATM   10  C   UNL     1       7.449  22.584  53.086  1.00  0.00     0.014 A 
HETATM   11  C   UNL     1       9.057  22.840  55.396  1.00  0.00     0.030 A 
HETATM   12  N   UNL     1       7.572  24.819  55.849  1.00  0.00    -0.364 N 
HETATM   13  C   UNL     1       9.285  21.816  54.475  1.00  0.00     0.002 A 
HETATM   14  C   UNL     1       8.494  21.685  53.337  1.00  0.00     0.001 A 
HETATM   15  H   UNL     1       7.978  25.136  56.718  1.00  0.00     0.165 HD
HETATM   16  C   UNL     1       6.526  25.418  55.206  1.00  0.00     0.102 A 
ENDBRANCH   6   7
ENDBRANCH   2   5
BRANCH   1  17
HETATM   17  C   UNL     1       3.720  26.757  49.011  1.00  0.00     0.067 A 
HETATM   18  C   UNL     1       2.780  27.777  48.802  1.00  0.00     0.084 A 
HETATM   19  C   UNL     1       1.858  27.660  47.752  1.00  0.00     0.038 A 
HETATM   20  C   UNL     1       1.901  26.562  46.889  1.00  0.00     0.003 A 
HETATM   21  C   UNL     1       2.860  25.570  47.068  1.00  0.00     0.001 A 
HETATM   22  C   UNL     1       3.765  25.667  48.125  1.00  0.00     0.020 A 
BRANCH  18  23
HETATM   23  O   UNL     1       2.763  28.850  49.660  1.00  0.00    -0.350 OA
BRANCH  23  24
HETATM   24  C   UNL     1       2.770  30.123  49.000  1.00  0.00     0.171 C 
HETATM   25  C   UNL     1       4.201  30.459  48.624  1.00  0.00     0.034 C 
ENDBRANCH  23  24
ENDBRANCH  18  23
ENDBRANCH   1  17
TORSDOF 5
ENDMDL
MODEL 10
REMARK VINA RESULT:      -8.1      1.379      2.366
REMARK  5 active torsions:
REMARK  status: ('A' for Active; 'I' for Inactive)
REMARK    1  A    between atoms: C_2  and  O_3 
REMARK    2  A    between atoms: O_3  and  C_4 
REMARK    3  A    between atoms: C_5  and  C_6 
REMARK       I    between atoms: C_6  and  N_7 
REMARK    4  A    between atoms: N_7  and  N_8 
REMARK    5  A    between atoms: C_9  and  C_10 
ROOT
HETATM    1  C   UNL     1       7.346  24.545  56.463  1.00  0.00     0.274 C 
HETATM    2  N   UNL     1       8.422  25.315  56.875  1.00  0.00    -0.243 N 
HETATM    3  O   UNL     1       6.173  24.748  56.768  1.00  0.00    -0.266 OA
HETATM    4  H   UNL     1       9.360  25.071  56.570  1.00  0.00     0.192 HD
ENDROOT
BRANCH   2   5
HETATM    5  N   UNL     1       8.192  26.487  57.537  1.00  0.00    -0.183 NA
HETATM    6  C   UNL     1       8.358  27.571  56.854  1.00  0.00     0.152 C 
BRANCH   6   7
HETATM    7  C   UNL     1       8.062  28.846  57.477  1.00  0.00     0.011 A 
HETATM    8  C   UNL     1       6.793  29.500  57.583  1.00  0.00     0.004 A 
HETATM    9  C   UNL     1       6.989  30.680  58.304  1.00  0.00     0.043 A 
HETATM   10  C   UNL     1       5.484  29.193  57.151  1.00  0.00     0.014 A 
HETATM   11  C   UNL     1       5.948  31.565  58.616  1.00  0.00     0.030 A 
HETATM   12  N   UNL     1       8.328  30.751  58.610  1.00  0.00    -0.364 N 
HETATM   13  C   UNL     1       4.664  31.233  58.179  1.00  0.00     0.002 A 
HETATM   14  C   UNL     1       4.433  30.067  57.455  1.00  0.00     0.001 A 
HETATM   15  H   UNL     1       8.760  31.499  59.134  1.00  0.00     0.165 HD
HETATM   16  C   UNL     1       8.980  29.654  58.123  1.00  0.00     0.102 A 
ENDBRANCH   6   7
ENDBRANCH   2   5
BRANCH   1  17
HETATM   17  C   UNL     1       7.664  23.455  55.496  1.00  0.00     0.067 A 
HETATM   18  C   UNL     1       7.944  23.665  54.137  1.00  0.00     0.084 A 
HETATM   19  C   UNL     1       8.147  22.561  53.298  1.00  0.00     0.038 A 
HETATM   20  C   UNL     1       8.120  21.262  53.813  1.00  0.00     0.003 A 
HETATM   21  C   UNL     1       7.884  21.054  55.168  1.00  0.00     0.001 A 
HETATM   22  C   UNL     1       7.656  22.146  56.005  1.00  0.00     0.020 A 
BRANCH  18  23
HETATM   23  O   UNL     1       7.974  24.952  53.657  1.00  0.00    -0.350 OA
BRANCH  23  24
HETATM   24  C   UNL     1       7.922  25.040  52.226  1.00  0.00     0.171 C 
HETATM   25  C   UNL     1       6.570  25.599  51.830  1.00  0.00     0.034 C 
ENDBRANCH  23  24
ENDBRANCH  18  23
ENDBRANCH   1  17
TORSDOF 5
ENDMDL
