MODEL 1
REMARK VINA RESULT:     -10.9      0.000      0.000
REMARK  9 active torsions:
REMARK  status: ('A' for Active; 'I' for Inactive)
REMARK    1  A    between atoms: C_7  and  C_8 
REMARK    2  A    between atoms: C_9  and  O_10 
REMARK    3  A    between atoms: C_13  and  N_14 
REMARK    4  A    between atoms: N_14  and  C_15 
REMARK    5  A    between atoms: C_15  and  N_16 
REMARK       I    between atoms: N_16  and  C_17 
REMARK    6  A    between atoms: C_17  and  C_18 
REMARK    7  A    between atoms: C_20  and  O_21 
REMARK    8  A    between atoms: O_21  and  C_22 
REMARK    9  A    between atoms: C_22  and  C_23 
ROOT
HETATM    1  C   UNL     1       6.802  26.790  55.924  1.00  0.00     0.052 A 
HETATM    2  C   UNL     1       5.556  27.326  55.574  1.00  0.00     0.080 A 
HETATM    3  C   UNL     1       5.026  28.422  56.263  1.00  0.00     0.040 A 
HETATM    4  C   UNL     1       5.741  29.000  57.316  1.00  0.00     0.032 A 
HETATM    5  C   UNL     1       7.015  28.533  57.634  1.00  0.00     0.035 A 
HETATM    6  C   UNL     1       7.532  27.437  56.940  1.00  0.00     0.048 A 
ENDROOT
BRANCH   5   7
HETATM    7  N   UNL     1       7.686  29.091  58.739  1.00  0.00    -0.333 N 
HETATM    8  H   UNL     1       7.503  28.655  59.643  1.00  0.00     0.168 HD
BRANCH   7   9
HETATM    9  C   UNL     1       8.648  30.067  58.737  1.00  0.00     0.179 C 
HETATM   10  S   UNL     1       9.957  30.191  57.698  1.00  0.00    -0.040 SA
BRANCH   9  11
HETATM   11  N   UNL     1       8.520  31.046  59.692  1.00  0.00    -0.299 N 
HETATM   12  C   UNL     1       7.476  31.950  59.830  1.00  0.00     0.257 C 
HETATM   13  O   UNL     1       6.769  32.352  58.915  1.00  0.00    -0.267 OA
HETATM   14  H   UNL     1       9.067  30.830  60.515  1.00  0.00     0.171 HD
BRANCH  12  15
HETATM   15  C   UNL     1       7.260  32.418  61.221  1.00  0.00     0.035 A 
HETATM   16  C   UNL     1       6.169  33.237  61.542  1.00  0.00     0.053 A 
HETATM   17  C   UNL     1       6.063  33.779  62.823  1.00  0.00     0.069 A 
HETATM   18  C   UNL     1       7.038  33.473  63.778  1.00  0.00     0.037 A 
HETATM   19  C   UNL     1       8.106  32.629  63.468  1.00  0.00     0.004 A 
HETATM   20  C   UNL     1       8.218  32.096  62.185  1.00  0.00     0.017 A 
BRANCH  17  21
HETATM   21  O   UNL     1       5.086  34.631  63.254  1.00  0.00    -0.351 OA
BRANCH  21  22
HETATM   22  C   UNL     1       4.063  34.090  64.091  1.00  0.00     0.179 C 
BRANCH  22  23
HETATM   23  C   UNL     1       3.868  34.980  65.329  1.00  0.00     0.002 C 
HETATM   24  C   UNL     1       4.336  34.282  66.604  1.00  0.00     0.011 C 
HETATM   25  C   UNL     1       4.594  36.316  65.163  1.00  0.00     0.011 C 
ENDBRANCH  22  23
ENDBRANCH  21  22
ENDBRANCH  17  21
ENDBRANCH  12  15
ENDBRANCH   9  11
ENDBRANCH   7   9
ENDBRANCH   5   7
BRANCH   1  26
HETATM   26  C   UNL     1       7.316  25.537  55.368  1.00  0.00     0.183 A 
HETATM   27  O   UNL     1       7.623  24.562  56.292  1.00  0.00    -0.288 OA
HETATM   28  C   UNL     1       7.871  23.449  55.545  1.00  0.00     0.112 A 
HETATM   29  C   UNL     1       7.732  23.803  54.214  1.00  0.00     0.094 A 
HETATM   30  C   UNL     1       8.171  22.170  56.013  1.00  0.00    -0.025 A 
HETATM   31  C   UNL     1       7.894  22.820  53.230  1.00  0.00     0.041 A 
HETATM   32  N   UNL     1       7.400  25.129  54.113  1.00  0.00    -0.221 NA
HETATM   33  C   UNL     1       8.186  21.504  53.635  1.00  0.00    -0.059 A 
HETATM   34  C   UNL     1       8.288  20.410  52.612  1.00  0.00     0.048 C 
HETATM   35  C   UNL     1       8.308  21.197  55.004  1.00  0.00     0.016 A 
HETATM   36  C   UNL     1       8.273  21.812  57.460  1.00  0.00     0.051 C 
ENDBRANCH   1  26
BRANCH   2  37
HETATM   37  O   UNL     1       4.836  26.777  54.549  1.00  0.00    -0.360 OA
HETATM   38  H   UNL     1       4.552  25.881  54.788  1.00  0.00     0.217 HD
ENDBRANCH   2  37
TORSDOF 9
ENDMDL
MODEL 2
REMARK VINA RESULT:     -10.9      1.768      2.498
REMARK  9 active torsions:
REMARK  status: ('A' for Active; 'I' for Inactive)
REMARK    1  A    between atoms: C_7  and  C_8 
REMARK    2  A    between atoms: C_9  and  O_10 
REMARK    3  A    between atoms: C_13  and  N_14 
REMARK    4  A    between atoms: N_14  and  C_15 
REMARK    5  A    between atoms: C_15  and  N_16 
REMARK       I    between atoms: N_16  and  C_17 
REMARK    6  A    between atoms: C_17  and  C_18 
REMARK    7  A    between atoms: C_20  and  O_21 
REMARK    8  A    between atoms: O_21  and  C_22 
REMARK    9  A    between atoms: C_22  and  C_23 
ROOT
HETATM    1  C   UNL     1       7.040  27.593  56.279  1.00  0.00     0.052 A 
HETATM    2  C   UNL     1       6.312  28.596  55.626  1.00  0.00     0.080 A 
HETATM    3  C   UNL     1       6.171  29.867  56.195  1.00  0.00     0.040 A 
HETATM    4  C   UNL     1       6.760  30.150  57.430  1.00  0.00     0.032 A 
HETATM    5  C   UNL     1       7.550  29.194  58.063  1.00  0.00     0.035 A 
HETATM    6  C   UNL     1       7.683  27.929  57.486  1.00  0.00     0.048 A 
ENDROOT
BRANCH   5   7
HETATM    7  N   UNL     1       8.079  29.483  59.336  1.00  0.00    -0.333 N 
HETATM    8  H   UNL     1       8.399  28.685  59.882  1.00  0.00     0.168 HD
BRANCH   7   9
HETATM    9  C   UNL     1       8.330  30.714  59.885  1.00  0.00     0.179 C 
HETATM   10  S   UNL     1       9.485  31.823  59.390  1.00  0.00    -0.040 SA
BRANCH   9  11
HETATM   11  N   UNL     1       7.548  31.071  60.956  1.00  0.00    -0.299 N 
HETATM   12  C   UNL     1       7.900  31.035  62.298  1.00  0.00     0.257 C 
HETATM   13  O   UNL     1       8.723  30.273  62.788  1.00  0.00    -0.267 OA
HETATM   14  H   UNL     1       6.814  31.711  60.679  1.00  0.00     0.171 HD
BRANCH  12  15
HETATM   15  C   UNL     1       7.184  32.025  63.139  1.00  0.00     0.035 A 
HETATM   16  C   UNL     1       5.793  32.171  63.053  1.00  0.00     0.053 A 
HETATM   17  C   UNL     1       5.159  33.201  63.747  1.00  0.00     0.069 A 
HETATM   18  C   UNL     1       5.923  34.058  64.546  1.00  0.00     0.037 A 
HETATM   19  C   UNL     1       7.305  33.891  64.660  1.00  0.00     0.004 A 
HETATM   20  C   UNL     1       7.940  32.869  63.957  1.00  0.00     0.017 A 
BRANCH  17  21
HETATM   21  O   UNL     1       3.824  33.489  63.710  1.00  0.00    -0.351 OA
BRANCH  21  22
HETATM   22  C   UNL     1       3.175  33.441  62.439  1.00  0.00     0.179 C 
BRANCH  22  23
HETATM   23  C   UNL     1       3.141  34.843  61.809  1.00  0.00     0.002 C 
HETATM   24  C   UNL     1       3.152  35.938  62.874  1.00  0.00     0.011 C 
HETATM   25  C   UNL     1       4.309  35.037  60.841  1.00  0.00     0.011 C 
ENDBRANCH  22  23
ENDBRANCH  21  22
ENDBRANCH  17  21
ENDBRANCH  12  15
ENDBRANCH   9  11
ENDBRANCH   7   9
ENDBRANCH   5   7
BRANCH   1  26
HETATM   26  C   UNL     1       7.062  26.201  55.826  1.00  0.00     0.183 A 
HETATM   27  O   UNL     1       7.240  26.022  54.471  1.00  0.00    -0.288 OA
HETATM   28  C   UNL     1       7.436  24.681  54.326  1.00  0.00     0.112 A 
HETATM   29  C   UNL     1       7.342  24.110  55.583  1.00  0.00     0.094 A 
HETATM   30  C   UNL     1       7.720  23.994  53.146  1.00  0.00    -0.025 A 
HETATM   31  C   UNL     1       7.548  22.731  55.719  1.00  0.00     0.041 A 
HETATM   32  N   UNL     1       7.086  25.076  56.521  1.00  0.00    -0.221 NA
HETATM   33  C   UNL     1       7.851  21.980  54.568  1.00  0.00    -0.059 A 
HETATM   34  C   UNL     1       8.156  20.515  54.688  1.00  0.00     0.048 C 
HETATM   35  C   UNL     1       7.943  22.614  53.314  1.00  0.00     0.016 A 
HETATM   36  C   UNL     1       7.855  24.649  51.810  1.00  0.00     0.051 C 
ENDBRANCH   1  26
BRANCH   2  37
HETATM   37  O   UNL     1       5.725  28.343  54.418  1.00  0.00    -0.360 OA
HETATM   38  H   UNL     1       4.766  28.247  54.530  1.00  0.00     0.217 HD
ENDBRANCH   2  37
TORSDOF 9
ENDMDL
MODEL 3
REMARK VINA RESULT:     -10.9      1.174      1.896
REMARK  9 active torsions:
REMARK  status: ('A' for Active; 'I' for Inactive)
REMARK    1  A    between atoms: C_7  and  C_8 
REMARK    2  A    between atoms: C_9  and  O_10 
REMARK    3  A    between atoms: C_13  and  N_14 
REMARK    4  A    between atoms: N_14  and  C_15 
REMARK    5  A    between atoms: C_15  and  N_16 
REMARK       I    between atoms: N_16  and  C_17 
REMARK    6  A    between atoms: C_17  and  C_18 
REMARK    7  A    between atoms: C_20  and  O_21 
REMARK    8  A    between atoms: O_21  and  C_22 
REMARK    9  A    between atoms: C_22  and  C_23 
ROOT
HETATM    1  C   UNL     1       6.325  27.254  56.257  1.00  0.00     0.052 A 
HETATM    2  C   UNL     1       5.248  28.054  55.854  1.00  0.00     0.080 A 
HETATM    3  C   UNL     1       4.976  29.268  56.495  1.00  0.00     0.040 A 
HETATM    4  C   UNL     1       5.784  29.699  57.551  1.00  0.00     0.032 A 
HETATM    5  C   UNL     1       6.905  28.959  57.920  1.00  0.00     0.035 A 
HETATM    6  C   UNL     1       7.165  27.748  57.274  1.00  0.00     0.048 A 
ENDROOT
BRANCH   5   7
HETATM    7  N   UNL     1       7.664  29.383  59.027  1.00  0.00    -0.333 N 
HETATM    8  H   UNL     1       7.670  28.759  59.834  1.00  0.00     0.168 HD
BRANCH   7   9
HETATM    9  C   UNL     1       8.495  30.469  59.114  1.00  0.00     0.179 C 
HETATM   10  S   UNL     1       9.785  30.835  58.109  1.00  0.00    -0.040 SA
BRANCH   9  11
HETATM   11  N   UNL     1       8.238  31.349  60.138  1.00  0.00    -0.299 N 
HETATM   12  C   UNL     1       7.014  31.910  60.471  1.00  0.00     0.257 C 
HETATM   13  O   UNL     1       6.095  32.110  59.687  1.00  0.00    -0.267 OA
HETATM   14  H   UNL     1       8.939  31.282  60.864  1.00  0.00     0.171 HD
BRANCH  12  15
HETATM   15  C   UNL     1       6.881  32.266  61.905  1.00  0.00     0.035 A 
HETATM   16  C   UNL     1       5.621  32.481  62.479  1.00  0.00     0.053 A 
HETATM   17  C   UNL     1       5.527  32.951  63.789  1.00  0.00     0.069 A 
HETATM   18  C   UNL     1       6.698  33.173  64.521  1.00  0.00     0.037 A 
HETATM   19  C   UNL     1       7.953  32.925  63.961  1.00  0.00     0.004 A 
HETATM   20  C   UNL     1       8.048  32.467  62.649  1.00  0.00     0.017 A 
BRANCH  17  21
HETATM   21  O   UNL     1       4.371  33.253  64.451  1.00  0.00    -0.351 OA
BRANCH  21  22
HETATM   22  C   UNL     1       3.521  34.244  63.873  1.00  0.00     0.179 C 
BRANCH  22  23
HETATM   23  C   UNL     1       4.189  35.626  63.957  1.00  0.00     0.002 C 
HETATM   24  C   UNL     1       3.481  36.649  63.070  1.00  0.00     0.011 C 
HETATM   25  C   UNL     1       4.236  36.125  65.402  1.00  0.00     0.011 C 
ENDBRANCH  22  23
ENDBRANCH  21  22
ENDBRANCH  17  21
ENDBRANCH  12  15
ENDBRANCH   9  11
ENDBRANCH   7   9
ENDBRANCH   5   7
BRANCH   1  26
HETATM   26  C   UNL     1       6.543  25.896  55.753  1.00  0.00     0.183 A 
HETATM   27  O   UNL     1       6.763  25.796  54.397  1.00  0.00    -0.288 OA
HETATM   28  C   UNL     1       7.141  24.501  54.206  1.00  0.00     0.112 A 
HETATM   29  C   UNL     1       7.106  23.873  55.439  1.00  0.00     0.094 A 
HETATM   30  C   UNL     1       7.533  23.905  53.008  1.00  0.00    -0.025 A 
HETATM   31  C   UNL     1       7.495  22.531  55.528  1.00  0.00     0.041 A 
HETATM   32  N   UNL     1       6.708  24.759  56.407  1.00  0.00    -0.221 NA
HETATM   33  C   UNL     1       7.914  21.873  54.357  1.00  0.00    -0.059 A 
HETATM   34  C   UNL     1       8.413  20.458  54.430  1.00  0.00     0.048 C 
HETATM   35  C   UNL     1       7.939  22.562  53.130  1.00  0.00     0.016 A 
HETATM   36  C   UNL     1       7.599  24.624  51.700  1.00  0.00     0.051 C 
ENDBRANCH   1  26
BRANCH   2  37
HETATM   37  O   UNL     1       4.442  27.653  54.826  1.00  0.00    -0.360 OA
HETATM   38  H   UNL     1       4.156  26.737  54.968  1.00  0.00     0.217 HD
ENDBRANCH   2  37
TORSDOF 9
ENDMDL
MODEL 4
REMARK VINA RESULT:     -10.8      2.049     11.748
REMARK  9 active torsions:
REMARK  status: ('A' for Active; 'I' for Inactive)
REMARK    1  A    between atoms: C_7  and  C_8 
REMARK    2  A    between atoms: C_9  and  O_10 
REMARK    3  A    between atoms: C_13  and  N_14 
REMARK    4  A    between atoms: N_14  and  C_15 
REMARK    5  A    between atoms: C_15  and  N_16 
REMARK       I    between atoms: N_16  and  C_17 
REMARK    6  A    between atoms: C_17  and  C_18 
REMARK    7  A    between atoms: C_20  and  O_21 
REMARK    8  A    between atoms: O_21  and  C_22 
REMARK    9  A    between atoms: C_22  and  C_23 
ROOT
HETATM    1  C   UNL     1       8.358  31.162  59.093  1.00  0.00     0.052 A 
HETATM    2  C   UNL     1       9.605  31.142  58.456  1.00  0.00     0.080 A 
HETATM    3  C   UNL     1       9.850  30.276  57.384  1.00  0.00     0.040 A 
HETATM    4  C   UNL     1       8.844  29.415  56.936  1.00  0.00     0.032 A 
HETATM    5  C   UNL     1       7.574  29.469  57.504  1.00  0.00     0.035 A 
HETATM    6  C   UNL     1       7.342  30.337  58.574  1.00  0.00     0.048 A 
ENDROOT
BRANCH   5   7
HETATM    7  N   UNL     1       6.599  28.547  57.077  1.00  0.00    -0.333 N 
HETATM    8  H   UNL     1       6.393  27.781  57.716  1.00  0.00     0.168 HD
BRANCH   7   9
HETATM    9  C   UNL     1       5.803  28.618  55.963  1.00  0.00     0.179 C 
HETATM   10  S   UNL     1       4.627  29.766  55.634  1.00  0.00    -0.040 SA
BRANCH   9  11
HETATM   11  N   UNL     1       5.993  27.638  55.018  1.00  0.00    -0.299 N 
HETATM   12  C   UNL     1       7.072  27.506  54.157  1.00  0.00     0.257 C 
HETATM   13  O   UNL     1       7.767  28.430  53.752  1.00  0.00    -0.267 OA
HETATM   14  H   UNL     1       5.463  26.806  55.241  1.00  0.00     0.171 HD
BRANCH  12  15
HETATM   15  C   UNL     1       7.346  26.109  53.739  1.00  0.00     0.035 A 
HETATM   16  C   UNL     1       7.646  25.121  54.685  1.00  0.00     0.053 A 
HETATM   17  C   UNL     1       8.037  23.851  54.262  1.00  0.00     0.069 A 
HETATM   18  C   UNL     1       8.096  23.575  52.892  1.00  0.00     0.037 A 
HETATM   19  C   UNL     1       7.763  24.550  51.948  1.00  0.00     0.004 A 
HETATM   20  C   UNL     1       7.384  25.822  52.371  1.00  0.00     0.017 A 
BRANCH  17  21
HETATM   21  O   UNL     1       8.408  22.815  55.071  1.00  0.00    -0.351 OA
BRANCH  21  22
HETATM   22  C   UNL     1       7.469  21.754  55.255  1.00  0.00     0.179 C 
BRANCH  22  23
HETATM   23  C   UNL     1       8.182  20.396  55.158  1.00  0.00     0.002 C 
HETATM   24  C   UNL     1       8.678  20.120  53.740  1.00  0.00     0.011 C 
HETATM   25  C   UNL     1       9.345  20.315  56.148  1.00  0.00     0.011 C 
ENDBRANCH  22  23
ENDBRANCH  21  22
ENDBRANCH  17  21
ENDBRANCH  12  15
ENDBRANCH   9  11
ENDBRANCH   7   9
ENDBRANCH   5   7
BRANCH   1  26
HETATM   26  C   UNL     1       8.106  31.905  60.330  1.00  0.00     0.183 A 
HETATM   27  O   UNL     1       6.979  32.697  60.325  1.00  0.00    -0.288 OA
HETATM   28  C   UNL     1       6.844  33.108  61.618  1.00  0.00     0.112 A 
HETATM   29  C   UNL     1       7.900  32.574  62.335  1.00  0.00     0.094 A 
HETATM   30  C   UNL     1       5.818  33.888  62.150  1.00  0.00    -0.025 A 
HETATM   31  C   UNL     1       7.974  32.813  63.713  1.00  0.00     0.041 A 
HETATM   32  N   UNL     1       8.703  31.831  61.508  1.00  0.00    -0.221 NA
HETATM   33  C   UNL     1       6.963  33.583  64.317  1.00  0.00    -0.059 A 
HETATM   34  C   UNL     1       6.967  33.791  65.804  1.00  0.00     0.048 C 
HETATM   35  C   UNL     1       5.905  34.095  63.541  1.00  0.00     0.016 A 
HETATM   36  C   UNL     1       4.669  34.415  61.355  1.00  0.00     0.051 C 
ENDBRANCH   1  26
BRANCH   2  37
HETATM   37  O   UNL     1      10.605  31.972  58.877  1.00  0.00    -0.360 OA
HETATM   38  H   UNL     1      10.226  32.782  59.254  1.00  0.00     0.217 HD
ENDBRANCH   2  37
TORSDOF 9
ENDMDL
MODEL 5
REMARK VINA RESULT:     -10.1      4.017      6.154
REMARK  9 active torsions:
REMARK  status: ('A' for Active; 'I' for Inactive)
REMARK    1  A    between atoms: C_7  and  C_8 
REMARK    2  A    between atoms: C_9  and  O_10 
REMARK    3  A    between atoms: C_13  and  N_14 
REMARK    4  A    between atoms: N_14  and  C_15 
REMARK    5  A    between atoms: C_15  and  N_16 
REMARK       I    between atoms: N_16  and  C_17 
REMARK    6  A    between atoms: C_17  and  C_18 
REMARK    7  A    between atoms: C_20  and  O_21 
REMARK    8  A    between atoms: O_21  and  C_22 
REMARK    9  A    between atoms: C_22  and  C_23 
ROOT
HETATM    1  C   UNL     1       5.797  25.776  53.201  1.00  0.00     0.052 A 
HETATM    2  C   UNL     1       6.463  24.561  53.401  1.00  0.00     0.080 A 
HETATM    3  C   UNL     1       6.753  24.105  54.692  1.00  0.00     0.040 A 
HETATM    4  C   UNL     1       6.377  24.864  55.803  1.00  0.00     0.032 A 
HETATM    5  C   UNL     1       5.648  26.039  55.633  1.00  0.00     0.035 A 
HETATM    6  C   UNL     1       5.366  26.484  54.339  1.00  0.00     0.048 A 
ENDROOT
BRANCH   5   7
HETATM    7  N   UNL     1       5.338  26.816  56.765  1.00  0.00    -0.333 N 
HETATM    8  H   UNL     1       5.258  26.312  57.648  1.00  0.00     0.168 HD
BRANCH   7   9
HETATM    9  C   UNL     1       5.250  28.181  56.853  1.00  0.00     0.179 C 
HETATM   10  S   UNL     1       4.102  29.166  56.132  1.00  0.00    -0.040 SA
BRANCH   9  11
HETATM   11  N   UNL     1       6.210  28.803  57.614  1.00  0.00    -0.299 N 
HETATM   12  C   UNL     1       7.487  28.338  57.893  1.00  0.00     0.257 C 
HETATM   13  O   UNL     1       7.813  27.159  57.933  1.00  0.00    -0.267 OA
HETATM   14  H   UNL     1       6.051  29.801  57.661  1.00  0.00     0.171 HD
BRANCH  12  15
HETATM   15  C   UNL     1       8.480  29.410  58.150  1.00  0.00     0.035 A 
HETATM   16  C   UNL     1       8.249  30.384  59.131  1.00  0.00     0.053 A 
HETATM   17  C   UNL     1       9.126  31.460  59.259  1.00  0.00     0.069 A 
HETATM   18  C   UNL     1      10.243  31.536  58.420  1.00  0.00     0.037 A 
HETATM   19  C   UNL     1      10.493  30.547  57.466  1.00  0.00     0.004 A 
HETATM   20  C   UNL     1       9.610  29.477  57.330  1.00  0.00     0.017 A 
BRANCH  17  21
HETATM   21  O   UNL     1       8.994  32.503  60.131  1.00  0.00    -0.351 OA
BRANCH  21  22
HETATM   22  C   UNL     1       9.197  32.231  61.519  1.00  0.00     0.179 C 
BRANCH  22  23
HETATM   23  C   UNL     1       7.854  32.264  62.266  1.00  0.00     0.002 C 
HETATM   24  C   UNL     1       8.021  32.754  63.703  1.00  0.00     0.011 C 
HETATM   25  C   UNL     1       6.838  33.136  61.527  1.00  0.00     0.011 C 
ENDBRANCH  22  23
ENDBRANCH  21  22
ENDBRANCH  17  21
ENDBRANCH  12  15
ENDBRANCH   9  11
ENDBRANCH   7   9
ENDBRANCH   5   7
BRANCH   1  26
HETATM   26  C   UNL     1       5.636  26.390  51.881  1.00  0.00     0.183 A 
HETATM   27  O   UNL     1       4.936  25.641  50.961  1.00  0.00    -0.288 OA
HETATM   28  C   UNL     1       4.738  26.486  49.910  1.00  0.00     0.112 A 
HETATM   29  C   UNL     1       5.346  27.689  50.225  1.00  0.00     0.094 A 
HETATM   30  C   UNL     1       4.026  26.224  48.741  1.00  0.00    -0.025 A 
HETATM   31  C   UNL     1       5.253  28.754  49.321  1.00  0.00     0.041 A 
HETATM   32  N   UNL     1       5.927  27.611  51.465  1.00  0.00    -0.221 NA
HETATM   33  C   UNL     1       4.536  28.560  48.125  1.00  0.00    -0.059 A 
HETATM   34  C   UNL     1       4.349  29.703  47.170  1.00  0.00     0.048 C 
HETATM   35  C   UNL     1       3.930  27.317  47.859  1.00  0.00     0.016 A 
HETATM   36  C   UNL     1       3.346  24.926  48.449  1.00  0.00     0.051 C 
ENDBRANCH   1  26
BRANCH   2  37
HETATM   37  O   UNL     1       6.843  23.801  52.330  1.00  0.00    -0.360 OA
HETATM   38  H   UNL     1       7.235  24.366  51.646  1.00  0.00     0.217 HD
ENDBRANCH   2  37
TORSDOF 9
ENDMDL
MODEL 6
REMARK VINA RESULT:     -10.0      2.066     11.721
REMARK  9 active torsions:
REMARK  status: ('A' for Active; 'I' for Inactive)
REMARK    1  A    between atoms: C_7  and  C_8 
REMARK    2  A    between atoms: C_9  and  O_10 
REMARK    3  A    between atoms: C_13  and  N_14 
REMARK    4  A    between atoms: N_14  and  C_15 
REMARK    5  A    between atoms: C_15  and  N_16 
REMARK       I    between atoms: N_16  and  C_17 
REMARK    6  A    between atoms: C_17  and  C_18 
REMARK    7  A    between atoms: C_20  and  O_21 
REMARK    8  A    between atoms: O_21  and  C_22 
REMARK    9  A    between atoms: C_22  and  C_23 
ROOT
HETATM    1  C   UNL     1       7.673  31.941  60.737  1.00  0.00     0.052 A 
HETATM    2  C   UNL     1       8.877  31.232  60.654  1.00  0.00     0.080 A 
HETATM    3  C   UNL     1       9.173  30.449  59.532  1.00  0.00     0.040 A 
HETATM    4  C   UNL     1       8.262  30.367  58.475  1.00  0.00     0.032 A 
HETATM    5  C   UNL     1       7.092  31.121  58.502  1.00  0.00     0.035 A 
HETATM    6  C   UNL     1       6.807  31.899  59.627  1.00  0.00     0.048 A 
ENDROOT
BRANCH   5   7
HETATM    7  N   UNL     1       6.163  30.971  57.454  1.00  0.00    -0.333 N 
HETATM    8  H   UNL     1       6.375  31.470  56.591  1.00  0.00     0.168 HD
BRANCH   7   9
HETATM    9  C   UNL     1       5.073  30.141  57.406  1.00  0.00     0.179 C 
HETATM   10  S   UNL     1       3.477  30.555  57.708  1.00  0.00    -0.040 SA
BRANCH   9  11
HETATM   11  N   UNL     1       5.322  28.831  57.077  1.00  0.00    -0.299 N 
HETATM   12  C   UNL     1       6.045  28.365  55.989  1.00  0.00     0.257 C 
HETATM   13  O   UNL     1       6.170  28.955  54.923  1.00  0.00    -0.267 OA
HETATM   14  H   UNL     1       5.248  28.229  57.886  1.00  0.00     0.171 HD
BRANCH  12  15
HETATM   15  C   UNL     1       6.689  27.047  56.209  1.00  0.00     0.035 A 
HETATM   16  C   UNL     1       6.513  25.999  55.295  1.00  0.00     0.053 A 
HETATM   17  C   UNL     1       7.010  24.730  55.592  1.00  0.00     0.069 A 
HETATM   18  C   UNL     1       7.704  24.530  56.790  1.00  0.00     0.037 A 
HETATM   19  C   UNL     1       7.910  25.583  57.684  1.00  0.00     0.004 A 
HETATM   20  C   UNL     1       7.404  26.848  57.393  1.00  0.00     0.017 A 
BRANCH  17  21
HETATM   21  O   UNL     1       6.864  23.612  54.820  1.00  0.00    -0.351 OA
BRANCH  21  22
HETATM   22  C   UNL     1       8.049  22.895  54.470  1.00  0.00     0.179 C 
BRANCH  22  23
HETATM   23  C   UNL     1       7.820  21.384  54.637  1.00  0.00     0.002 C 
HETATM   24  C   UNL     1       8.136  20.621  53.352  1.00  0.00     0.011 C 
HETATM   25  C   UNL     1       8.649  20.829  55.796  1.00  0.00     0.011 C 
ENDBRANCH  22  23
ENDBRANCH  21  22
ENDBRANCH  17  21
ENDBRANCH  12  15
ENDBRANCH   9  11
ENDBRANCH   7   9
ENDBRANCH   5   7
BRANCH   1  26
HETATM   26  C   UNL     1       7.229  32.620  61.957  1.00  0.00     0.183 A 
HETATM   27  O   UNL     1       5.897  32.971  61.988  1.00  0.00    -0.288 OA
HETATM   28  C   UNL     1       5.681  33.381  63.270  1.00  0.00     0.112 A 
HETATM   29  C   UNL     1       6.886  33.287  63.944  1.00  0.00     0.094 A 
HETATM   30  C   UNL     1       4.471  33.786  63.831  1.00  0.00    -0.025 A 
HETATM   31  C   UNL     1       6.929  33.614  65.305  1.00  0.00     0.041 A 
HETATM   32  N   UNL     1       7.862  32.823  63.100  1.00  0.00    -0.221 NA
HETATM   33  C   UNL     1       5.739  34.019  65.937  1.00  0.00    -0.059 A 
HETATM   34  C   UNL     1       5.732  34.299  67.412  1.00  0.00     0.048 C 
HETATM   35  C   UNL     1       4.538  34.088  65.205  1.00  0.00     0.016 A 
HETATM   36  C   UNL     1       3.178  33.837  63.085  1.00  0.00     0.051 C 
ENDBRANCH   1  26
BRANCH   2  37
HETATM   37  O   UNL     1       9.783  31.294  61.675  1.00  0.00    -0.360 OA
HETATM   38  H   UNL     1      10.014  30.399  61.967  1.00  0.00     0.217 HD
ENDBRANCH   2  37
TORSDOF 9
ENDMDL
MODEL 7
REMARK VINA RESULT:      -9.9      1.812      2.133
REMARK  9 active torsions:
REMARK  status: ('A' for Active; 'I' for Inactive)
REMARK    1  A    between atoms: C_7  and  C_8 
REMARK    2  A    between atoms: C_9  and  O_10 
REMARK    3  A    between atoms: C_13  and  N_14 
REMARK    4  A    between atoms: N_14  and  C_15 
REMARK    5  A    between atoms: C_15  and  N_16 
REMARK       I    between atoms: N_16  and  C_17 
REMARK    6  A    between atoms: C_17  and  C_18 
REMARK    7  A    between atoms: C_20  and  O_21 
REMARK    8  A    between atoms: O_21  and  C_22 
REMARK    9  A    between atoms: C_22  and  C_23 
ROOT
HETATM    1  C   UNL     1       5.934  27.167  54.026  1.00  0.00     0.052 A 
HETATM    2  C   UNL     1       4.685  27.360  53.422  1.00  0.00     0.080 A 
HETATM    3  C   UNL     1       3.913  28.489  53.716  1.00  0.00     0.040 A 
HETATM    4  C   UNL     1       4.384  29.444  54.621  1.00  0.00     0.032 A 
HETATM    5  C   UNL     1       5.654  29.313  55.177  1.00  0.00     0.035 A 
HETATM    6  C   UNL     1       6.416  28.181  54.877  1.00  0.00     0.048 A 
ENDROOT
BRANCH   5   7
HETATM    7  N   UNL     1       6.078  30.255  56.133  1.00  0.00    -0.333 N 
HETATM    8  H   UNL     1       6.827  30.884  55.845  1.00  0.00     0.168 HD
BRANCH   7   9
HETATM    9  C   UNL     1       5.528  30.515  57.362  1.00  0.00     0.179 C 
HETATM   10  S   UNL     1       3.913  30.391  57.791  1.00  0.00    -0.040 SA
BRANCH   9  11
HETATM   11  N   UNL     1       6.400  30.923  58.342  1.00  0.00    -0.299 N 
HETATM   12  C   UNL     1       6.410  32.146  58.997  1.00  0.00     0.257 C 
HETATM   13  O   UNL     1       5.998  33.199  58.527  1.00  0.00    -0.267 OA
HETATM   14  H   UNL     1       6.817  30.132  58.816  1.00  0.00     0.171 HD
BRANCH  12  15
HETATM   15  C   UNL     1       6.974  32.095  60.369  1.00  0.00     0.035 A 
HETATM   16  C   UNL     1       6.399  32.833  61.411  1.00  0.00     0.053 A 
HETATM   17  C   UNL     1       7.028  32.881  62.655  1.00  0.00     0.069 A 
HETATM   18  C   UNL     1       8.213  32.164  62.851  1.00  0.00     0.037 A 
HETATM   19  C   UNL     1       8.767  31.399  61.822  1.00  0.00     0.004 A 
HETATM   20  C   UNL     1       8.146  31.361  60.575  1.00  0.00     0.017 A 
BRANCH  17  21
HETATM   21  O   UNL     1       6.608  33.601  63.738  1.00  0.00    -0.351 OA
BRANCH  21  22
HETATM   22  C   UNL     1       5.201  33.783  63.902  1.00  0.00     0.179 C 
BRANCH  22  23
HETATM   23  C   UNL     1       4.832  33.730  65.393  1.00  0.00     0.002 C 
HETATM   24  C   UNL     1       6.027  34.072  66.282  1.00  0.00     0.011 C 
HETATM   25  C   UNL     1       3.661  34.665  65.702  1.00  0.00     0.011 C 
ENDBRANCH  22  23
ENDBRANCH  21  22
ENDBRANCH  17  21
ENDBRANCH  12  15
ENDBRANCH   9  11
ENDBRANCH   7   9
ENDBRANCH   5   7
BRANCH   1  26
HETATM   26  C   UNL     1       6.696  25.922  53.903  1.00  0.00     0.183 A 
HETATM   27  O   UNL     1       7.270  25.462  55.068  1.00  0.00    -0.288 OA
HETATM   28  C   UNL     1       7.730  24.218  54.755  1.00  0.00     0.112 A 
HETATM   29  C   UNL     1       7.442  23.994  53.420  1.00  0.00     0.094 A 
HETATM   30  C   UNL     1       8.344  23.307  55.613  1.00  0.00    -0.025 A 
HETATM   31  C   UNL     1       7.776  22.758  52.852  1.00  0.00     0.041 A 
HETATM   32  N   UNL     1       6.806  25.085  52.886  1.00  0.00    -0.221 NA
HETATM   33  C   UNL     1       8.388  21.787  53.667  1.00  0.00    -0.059 A 
HETATM   34  C   UNL     1       8.687  20.424  53.113  1.00  0.00     0.048 C 
HETATM   35  C   UNL     1       8.650  22.065  55.022  1.00  0.00     0.016 A 
HETATM   36  C   UNL     1       8.603  23.566  57.061  1.00  0.00     0.051 C 
ENDBRANCH   1  26
BRANCH   2  37
HETATM   37  O   UNL     1       4.202  26.439  52.535  1.00  0.00    -0.360 OA
HETATM   38  H   UNL     1       4.807  25.684  52.480  1.00  0.00     0.217 HD
ENDBRANCH   2  37
TORSDOF 9
ENDMDL
MODEL 8
REMARK VINA RESULT:      -9.7      2.541      4.054
REMARK  9 active torsions:
REMARK  status: ('A' for Active; 'I' for Inactive)
REMARK    1  A    between atoms: C_7  and  C_8 
REMARK    2  A    between atoms: C_9  and  O_10 
REMARK    3  A    between atoms: C_13  and  N_14 
REMARK    4  A    between atoms: N_14  and  C_15 
REMARK    5  A    between atoms: C_15  and  N_16 
REMARK       I    between atoms: N_16  and  C_17 
REMARK    6  A    between atoms: C_17  and  C_18 
REMARK    7  A    between atoms: C_20  and  O_21 
REMARK    8  A    between atoms: O_21  and  C_22 
REMARK    9  A    between atoms: C_22  and  C_23 
ROOT
HETATM    1  C   UNL     1       6.611  26.857  56.734  1.00  0.00     0.052 A 
HETATM    2  C   UNL     1       7.677  27.458  57.415  1.00  0.00     0.080 A 
HETATM    3  C   UNL     1       7.564  28.757  57.922  1.00  0.00     0.040 A 
HETATM    4  C   UNL     1       6.376  29.474  57.753  1.00  0.00     0.032 A 
HETATM    5  C   UNL     1       5.277  28.872  57.146  1.00  0.00     0.035 A 
HETATM    6  C   UNL     1       5.402  27.574  56.643  1.00  0.00     0.048 A 
ENDROOT
BRANCH   5   7
HETATM    7  N   UNL     1       4.115  29.637  56.932  1.00  0.00    -0.333 N 
HETATM    8  H   UNL     1       3.233  29.201  57.200  1.00  0.00     0.168 HD
BRANCH   7   9
HETATM    9  C   UNL     1       4.028  30.943  56.521  1.00  0.00     0.179 C 
HETATM   10  S   UNL     1       3.365  31.508  55.090  1.00  0.00    -0.040 SA
BRANCH   9  11
HETATM   11  N   UNL     1       4.544  31.883  57.380  1.00  0.00    -0.299 N 
HETATM   12  C   UNL     1       3.833  32.798  58.143  1.00  0.00     0.257 C 
HETATM   13  O   UNL     1       2.732  33.249  57.855  1.00  0.00    -0.267 OA
HETATM   14  H   UNL     1       5.469  31.624  57.696  1.00  0.00     0.171 HD
BRANCH  12  15
HETATM   15  C   UNL     1       4.522  33.212  59.390  1.00  0.00     0.035 A 
HETATM   16  C   UNL     1       5.472  32.380  59.997  1.00  0.00     0.053 A 
HETATM   17  C   UNL     1       6.002  32.725  61.240  1.00  0.00     0.069 A 
HETATM   18  C   UNL     1       5.597  33.917  61.849  1.00  0.00     0.037 A 
HETATM   19  C   UNL     1       4.677  34.765  61.228  1.00  0.00     0.004 A 
HETATM   20  C   UNL     1       4.138  34.414  59.991  1.00  0.00     0.017 A 
BRANCH  17  21
HETATM   21  O   UNL     1       6.891  31.984  61.966  1.00  0.00    -0.351 OA
BRANCH  21  22
HETATM   22  C   UNL     1       8.131  32.600  62.317  1.00  0.00     0.179 C 
BRANCH  22  23
HETATM   23  C   UNL     1       9.302  31.812  61.708  1.00  0.00     0.002 C 
HETATM   24  C   UNL     1       9.193  30.318  62.010  1.00  0.00     0.011 C 
HETATM   25  C   UNL     1       9.390  32.039  60.198  1.00  0.00     0.011 C 
ENDBRANCH  22  23
ENDBRANCH  21  22
ENDBRANCH  17  21
ENDBRANCH  12  15
ENDBRANCH   9  11
ENDBRANCH   7   9
ENDBRANCH   5   7
BRANCH   1  26
HETATM   26  C   UNL     1       6.735  25.583  56.023  1.00  0.00     0.183 A 
HETATM   27  O   UNL     1       6.885  25.680  54.657  1.00  0.00    -0.288 OA
HETATM   28  C   UNL     1       7.187  24.413  54.255  1.00  0.00     0.112 A 
HETATM   29  C   UNL     1       7.179  23.608  55.381  1.00  0.00     0.094 A 
HETATM   30  C   UNL     1       7.491  23.989  52.962  1.00  0.00    -0.025 A 
HETATM   31  C   UNL     1       7.503  22.252  55.248  1.00  0.00     0.041 A 
HETATM   32  N   UNL     1       6.873  24.354  56.490  1.00  0.00    -0.221 NA
HETATM   33  C   UNL     1       7.832  21.761  53.970  1.00  0.00    -0.059 A 
HETATM   34  C   UNL     1       8.261  20.332  53.804  1.00  0.00     0.048 C 
HETATM   35  C   UNL     1       7.833  22.627  52.860  1.00  0.00     0.016 A 
HETATM   36  C   UNL     1       7.531  24.894  51.774  1.00  0.00     0.051 C 
ENDBRANCH   1  26
BRANCH   2  37
HETATM   37  O   UNL     1       8.849  26.778  57.591  1.00  0.00    -0.360 OA
HETATM   38  H   UNL     1       8.686  25.823  57.557  1.00  0.00     0.217 HD
ENDBRANCH   2  37
TORSDOF 9
ENDMDL
MODEL 9
REMARK VINA RESULT:      -9.7      1.817      2.506
REMARK  9 active torsions:
REMARK  status: ('A' for Active; 'I' for Inactive)
REMARK    1  A    between atoms: C_7  and  C_8 
REMARK    2  A    between atoms: C_9  and  O_10 
REMARK    3  A    between atoms: C_13  and  N_14 
REMARK    4  A    between atoms: N_14  and  C_15 
REMARK    5  A    between atoms: C_15  and  N_16 
REMARK       I    between atoms: N_16  and  C_17 
REMARK    6  A    between atoms: C_17  and  C_18 
REMARK    7  A    between atoms: C_20  and  O_21 
REMARK    8  A    between atoms: O_21  and  C_22 
REMARK    9  A    between atoms: C_22  and  C_23 
ROOT
HETATM    1  C   UNL     1       6.353  27.429  54.608  1.00  0.00     0.052 A 
HETATM    2  C   UNL     1       5.558  28.126  53.688  1.00  0.00     0.080 A 
HETATM    3  C   UNL     1       4.849  29.269  54.074  1.00  0.00     0.040 A 
HETATM    4  C   UNL     1       4.928  29.732  55.390  1.00  0.00     0.032 A 
HETATM    5  C   UNL     1       5.770  29.101  56.303  1.00  0.00     0.035 A 
HETATM    6  C   UNL     1       6.472  27.960  55.907  1.00  0.00     0.048 A 
ENDROOT
BRANCH   5   7
HETATM    7  N   UNL     1       5.782  29.549  57.637  1.00  0.00    -0.333 N 
HETATM    8  H   UNL     1       5.134  29.085  58.273  1.00  0.00     0.168 HD
BRANCH   7   9
HETATM    9  C   UNL     1       6.640  30.446  58.218  1.00  0.00     0.179 C 
HETATM   10  S   UNL     1       8.269  30.221  58.539  1.00  0.00    -0.040 SA
BRANCH   9  11
HETATM   11  N   UNL     1       6.100  31.658  58.574  1.00  0.00    -0.299 N 
HETATM   12  C   UNL     1       4.794  31.909  58.968  1.00  0.00     0.257 C 
HETATM   13  O   UNL     1       3.818  31.253  58.626  1.00  0.00    -0.267 OA
HETATM   14  H   UNL     1       6.817  32.304  58.881  1.00  0.00     0.171 HD
BRANCH  12  15
HETATM   15  C   UNL     1       4.646  33.075  59.873  1.00  0.00     0.035 A 
HETATM   16  C   UNL     1       4.775  32.929  61.261  1.00  0.00     0.053 A 
HETATM   17  C   UNL     1       4.495  34.006  62.100  1.00  0.00     0.069 A 
HETATM   18  C   UNL     1       4.115  35.230  61.539  1.00  0.00     0.037 A 
HETATM   19  C   UNL     1       4.020  35.386  60.154  1.00  0.00     0.004 A 
HETATM   20  C   UNL     1       4.289  34.306  59.316  1.00  0.00     0.017 A 
BRANCH  17  21
HETATM   21  O   UNL     1       4.528  33.988  63.466  1.00  0.00    -0.351 OA
BRANCH  21  22
HETATM   22  C   UNL     1       5.377  33.024  64.091  1.00  0.00     0.179 C 
BRANCH  22  23
HETATM   23  C   UNL     1       6.761  33.636  64.361  1.00  0.00     0.002 C 
HETATM   24  C   UNL     1       7.006  33.838  65.855  1.00  0.00     0.011 C 
HETATM   25  C   UNL     1       7.869  32.772  63.757  1.00  0.00     0.011 C 
ENDBRANCH  22  23
ENDBRANCH  21  22
ENDBRANCH  17  21
ENDBRANCH  12  15
ENDBRANCH   9  11
ENDBRANCH   7   9
ENDBRANCH   5   7
BRANCH   1  26
HETATM   26  C   UNL     1       6.962  26.130  54.313  1.00  0.00     0.183 A 
HETATM   27  O   UNL     1       7.424  25.432  55.407  1.00  0.00    -0.288 OA
HETATM   28  C   UNL     1       7.742  24.200  54.917  1.00  0.00     0.112 A 
HETATM   29  C   UNL     1       7.486  24.216  53.557  1.00  0.00     0.094 A 
HETATM   30  C   UNL     1       8.203  23.100  55.639  1.00  0.00    -0.025 A 
HETATM   31  C   UNL     1       7.691  23.047  52.814  1.00  0.00     0.041 A 
HETATM   32  N   UNL     1       7.011  25.447  53.182  1.00  0.00    -0.221 NA
HETATM   33  C   UNL     1       8.144  21.895  53.485  1.00  0.00    -0.059 A 
HETATM   34  C   UNL     1       8.298  20.604  52.735  1.00  0.00     0.048 C 
HETATM   35  C   UNL     1       8.380  21.932  54.873  1.00  0.00     0.016 A 
HETATM   36  C   UNL     1       8.429  23.105  57.116  1.00  0.00     0.051 C 
ENDBRANCH   1  26
BRANCH   2  37
HETATM   37  O   UNL     1       5.463  27.692  52.396  1.00  0.00    -0.360 OA
HETATM   38  H   UNL     1       5.378  26.726  52.377  1.00  0.00     0.217 HD
ENDBRANCH   2  37
TORSDOF 9
ENDMDL
MODEL 10
REMARK VINA RESULT:      -9.7      1.575      2.522
REMARK  9 active torsions:
REMARK  status: ('A' for Active; 'I' for Inactive)
REMARK    1  A    between atoms: C_7  and  C_8 
REMARK    2  A    between atoms: C_9  and  O_10 
REMARK    3  A    between atoms: C_13  and  N_14 
REMARK    4  A    between atoms: N_14  and  C_15 
REMARK    5  A    between atoms: C_15  and  N_16 
REMARK       I    between atoms: N_16  and  C_17 
REMARK    6  A    between atoms: C_17  and  C_18 
REMARK    7  A    between atoms: C_20  and  O_21 
REMARK    8  A    between atoms: O_21  and  C_22 
REMARK    9  A    between atoms: C_22  and  C_23 
ROOT
HETATM    1  C   UNL     1       6.114  27.153  56.154  1.00  0.00     0.052 A 
HETATM    2  C   UNL     1       4.984  27.845  55.700  1.00  0.00     0.080 A 
HETATM    3  C   UNL     1       4.606  29.061  56.280  1.00  0.00     0.040 A 
HETATM    4  C   UNL     1       5.357  29.602  57.326  1.00  0.00     0.032 A 
HETATM    5  C   UNL     1       6.526  28.971  57.746  1.00  0.00     0.035 A 
HETATM    6  C   UNL     1       6.894  27.757  57.160  1.00  0.00     0.048 A 
ENDROOT
BRANCH   5   7
HETATM    7  N   UNL     1       7.229  29.503  58.843  1.00  0.00    -0.333 N 
HETATM    8  H   UNL     1       7.343  28.886  59.647  1.00  0.00     0.168 HD
BRANCH   7   9
HETATM    9  C   UNL     1       7.886  30.704  58.923  1.00  0.00     0.179 C 
HETATM   10  S   UNL     1       9.448  31.034  58.415  1.00  0.00    -0.040 SA
BRANCH   9  11
HETATM   11  N   UNL     1       7.183  31.744  59.481  1.00  0.00    -0.299 N 
HETATM   12  C   UNL     1       6.172  32.484  58.886  1.00  0.00     0.257 C 
HETATM   13  O   UNL     1       6.056  32.677  57.683  1.00  0.00    -0.267 OA
HETATM   14  H   UNL     1       7.202  31.700  60.492  1.00  0.00     0.171 HD
BRANCH  12  15
HETATM   15  C   UNL     1       5.193  33.054  59.845  1.00  0.00     0.035 A 
HETATM   16  C   UNL     1       5.242  32.720  61.205  1.00  0.00     0.053 A 
HETATM   17  C   UNL     1       4.230  33.154  62.061  1.00  0.00     0.069 A 
HETATM   18  C   UNL     1       3.193  33.942  61.552  1.00  0.00     0.037 A 
HETATM   19  C   UNL     1       3.163  34.304  60.203  1.00  0.00     0.004 A 
HETATM   20  C   UNL     1       4.168  33.861  59.344  1.00  0.00     0.017 A 
BRANCH  17  21
HETATM   21  O   UNL     1       4.125  32.859  63.392  1.00  0.00    -0.351 OA
BRANCH  21  22
HETATM   22  C   UNL     1       5.335  32.615  64.110  1.00  0.00     0.179 C 
BRANCH  22  23
HETATM   23  C   UNL     1       5.719  33.854  64.934  1.00  0.00     0.002 C 
HETATM   24  C   UNL     1       4.864  33.980  66.194  1.00  0.00     0.011 C 
HETATM   25  C   UNL     1       7.203  33.827  65.306  1.00  0.00     0.011 C 
ENDBRANCH  22  23
ENDBRANCH  21  22
ENDBRANCH  17  21
ENDBRANCH  12  15
ENDBRANCH   9  11
ENDBRANCH   7   9
ENDBRANCH   5   7
BRANCH   1  26
HETATM   26  C   UNL     1       6.448  25.796  55.716  1.00  0.00     0.183 A 
HETATM   27  O   UNL     1       6.753  25.663  54.379  1.00  0.00    -0.288 OA
HETATM   28  C   UNL     1       7.224  24.390  54.260  1.00  0.00     0.112 A 
HETATM   29  C   UNL     1       7.159  23.805  55.513  1.00  0.00     0.094 A 
HETATM   30  C   UNL     1       7.722  23.780  53.110  1.00  0.00    -0.025 A 
HETATM   31  C   UNL     1       7.628  22.496  55.676  1.00  0.00     0.041 A 
HETATM   32  N   UNL     1       6.649  24.696  56.422  1.00  0.00    -0.221 NA
HETATM   33  C   UNL     1       8.156  21.826  54.556  1.00  0.00    -0.059 A 
HETATM   34  C   UNL     1       8.740  20.452  54.711  1.00  0.00     0.048 C 
HETATM   35  C   UNL     1       8.207  22.473  53.306  1.00  0.00     0.016 A 
HETATM   36  C   UNL     1       7.817  24.455  51.780  1.00  0.00     0.051 C 
ENDBRANCH   1  26
BRANCH   2  37
HETATM   37  O   UNL     1       4.232  27.336  54.679  1.00  0.00    -0.360 OA
HETATM   38  H   UNL     1       4.621  26.505  54.364  1.00  0.00     0.217 HD
ENDBRANCH   2  37
TORSDOF 9
ENDMDL
