MODEL 1
REMARK VINA RESULT:      -9.2      0.000      0.000
REMARK  7 active torsions:
REMARK  status: ('A' for Active; 'I' for Inactive)
REMARK    1  A    between atoms: C_7  and  C_8 
REMARK    2  A    between atoms: C_8  and  N_9 
REMARK       I    between atoms: N_9  and  C_10 
REMARK       I    between atoms: C_10  and  N_11 
REMARK    3  A    between atoms: N_11  and  C_12 
REMARK    4  A    between atoms: C_12  and  C_13 
REMARK    5  A    between atoms: C_13  and  C_14 
REMARK    6  A    between atoms: C_14  and  O_15 
REMARK    7  A    between atoms: C_14  and  C_16 
ROOT
HETATM    1  N   UNL     1       7.093  26.636  56.019  1.00  0.00    -0.337 N 
HETATM    2  C   UNL     1       7.672  27.856  55.771  1.00  0.00     0.316 C 
HETATM    3  N   UNL     1       8.357  28.316  56.856  1.00  0.00    -0.339 N 
HETATM    4  O   UNL     1       7.535  28.454  54.709  1.00  0.00    -0.247 OA
HETATM    5  H   UNL     1       7.620  26.071  56.672  1.00  0.00     0.164 HD
HETATM    6  H   UNL     1       8.156  27.890  57.749  1.00  0.00     0.164 HD
ENDROOT
BRANCH   1   7
HETATM    7  C   UNL     1       6.410  25.914  54.961  1.00  0.00     0.183 C 
BRANCH   7   8
HETATM    8  C   UNL     1       6.943  24.533  54.843  1.00  0.00     0.044 A 
HETATM    9  N   UNL     1       7.123  23.900  53.619  1.00  0.00    -0.343 N 
HETATM   10  C   UNL     1       7.566  22.663  53.781  1.00  0.00     0.112 A 
HETATM   11  H   UNL     1       6.867  24.342  52.727  1.00  0.00     0.167 HD
HETATM   12  N   UNL     1       7.721  22.455  55.105  1.00  0.00    -0.311 N 
HETATM   13  C   UNL     1       7.868  21.610  52.785  1.00  0.00     0.049 A 
HETATM   14  C   UNL     1       8.173  21.243  55.624  1.00  0.00     0.014 A 
HETATM   15  C   UNL     1       7.344  23.607  55.782  1.00  0.00     0.125 A 
HETATM   16  C   UNL     1       8.328  21.043  57.101  1.00  0.00     0.068 C 
HETATM   17  C   UNL     1       8.453  20.273  54.723  1.00  0.00     0.025 A 
HETATM   18  C   UNL     1       8.304  20.441  53.281  1.00  0.00     0.006 A 
ENDBRANCH   7   8
ENDBRANCH   1   7
BRANCH   3  19
HETATM   19  C   UNL     1       9.119  29.572  56.899  1.00  0.00     0.085 C 
HETATM   20  C   UNL     1      10.624  29.315  56.969  1.00  0.00     0.032 C 
BRANCH  19  21
HETATM   21  C   UNL     1       8.571  30.489  58.011  1.00  0.00     0.063 C 
BRANCH  21  22
HETATM   22  C   UNL     1       9.600  31.072  58.986  1.00  0.00     0.177 C 
BRANCH  22  23
HETATM   23  O   UNL     1      10.161  32.270  58.453  1.00  0.00    -0.389 OA
HETATM   24  H   UNL     1      11.127  32.158  58.464  1.00  0.00     0.210 HD
ENDBRANCH  22  23
BRANCH  22  25
HETATM   25  C   UNL     1       9.060  31.385  60.339  1.00  0.00     0.081 A 
HETATM   26  O   UNL     1       7.731  31.138  60.546  1.00  0.00    -0.324 OA
HETATM   27  C   UNL     1       7.457  31.477  61.832  1.00  0.00     0.142 A 
HETATM   28  C   UNL     1       8.590  31.930  62.463  1.00  0.00     0.027 A 
HETATM   29  C   UNL     1       9.626  31.867  61.502  1.00  0.00     0.037 A 
ENDBRANCH  22  25
ENDBRANCH  21  22
ENDBRANCH  19  21
ENDBRANCH   3  19
TORSDOF 7
ENDMDL
MODEL 2
REMARK VINA RESULT:      -9.1      0.815      1.702
REMARK  7 active torsions:
REMARK  status: ('A' for Active; 'I' for Inactive)
REMARK    1  A    between atoms: C_7  and  C_8 
REMARK    2  A    between atoms: C_8  and  N_9 
REMARK       I    between atoms: N_9  and  C_10 
REMARK       I    between atoms: C_10  and  N_11 
REMARK    3  A    between atoms: N_11  and  C_12 
REMARK    4  A    between atoms: C_12  and  C_13 
REMARK    5  A    between atoms: C_13  and  C_14 
REMARK    6  A    between atoms: C_14  and  O_15 
REMARK    7  A    between atoms: C_14  and  C_16 
ROOT
HETATM    1  N   UNL     1       7.106  26.635  55.751  1.00  0.00    -0.337 N 
HETATM    2  C   UNL     1       7.813  27.791  55.531  1.00  0.00     0.316 C 
HETATM    3  N   UNL     1       8.227  28.355  56.701  1.00  0.00    -0.339 N 
HETATM    4  O   UNL     1       7.995  28.257  54.412  1.00  0.00    -0.247 OA
HETATM    5  H   UNL     1       7.406  26.136  56.578  1.00  0.00     0.164 HD
HETATM    6  H   UNL     1       7.774  28.052  57.551  1.00  0.00     0.164 HD
ENDROOT
BRANCH   1   7
HETATM    7  C   UNL     1       6.669  25.814  54.636  1.00  0.00     0.183 C 
BRANCH   7   8
HETATM    8  C   UNL     1       7.111  24.408  54.818  1.00  0.00     0.044 A 
HETATM    9  N   UNL     1       7.476  23.891  56.054  1.00  0.00    -0.343 N 
HETATM   10  C   UNL     1       7.872  22.632  55.948  1.00  0.00     0.112 A 
HETATM   11  H   UNL     1       7.490  24.462  56.908  1.00  0.00     0.167 HD
HETATM   12  N   UNL     1       7.752  22.274  54.653  1.00  0.00    -0.311 N 
HETATM   13  C   UNL     1       8.378  21.692  56.974  1.00  0.00     0.049 A 
HETATM   14  C   UNL     1       8.093  21.003  54.193  1.00  0.00     0.014 A 
HETATM   15  C   UNL     1       7.274  23.362  53.934  1.00  0.00     0.125 A 
HETATM   16  C   UNL     1       7.953  20.641  52.746  1.00  0.00     0.068 C 
HETATM   17  C   UNL     1       8.556  20.135  55.122  1.00  0.00     0.025 A 
HETATM   18  C   UNL     1       8.707  20.465  56.535  1.00  0.00     0.006 A 
ENDBRANCH   7   8
ENDBRANCH   1   7
BRANCH   3  19
HETATM   19  C   UNL     1       9.039  29.576  56.805  1.00  0.00     0.085 C 
HETATM   20  C   UNL     1      10.533  29.261  56.807  1.00  0.00     0.032 C 
BRANCH  19  21
HETATM   21  C   UNL     1       8.561  30.432  57.996  1.00  0.00     0.063 C 
BRANCH  21  22
HETATM   22  C   UNL     1       9.651  30.991  58.918  1.00  0.00     0.177 C 
BRANCH  22  23
HETATM   23  O   UNL     1      10.143  32.228  58.406  1.00  0.00    -0.389 OA
HETATM   24  H   UNL     1      10.827  32.009  57.750  1.00  0.00     0.210 HD
ENDBRANCH  22  23
BRANCH  22  25
HETATM   25  C   UNL     1       9.213  31.222  60.323  1.00  0.00     0.081 A 
HETATM   26  O   UNL     1       9.084  30.117  61.119  1.00  0.00    -0.324 OA
HETATM   27  C   UNL     1       8.694  30.552  62.345  1.00  0.00     0.142 A 
HETATM   28  C   UNL     1       8.579  31.922  62.357  1.00  0.00     0.027 A 
HETATM   29  C   UNL     1       8.918  32.355  61.054  1.00  0.00     0.037 A 
ENDBRANCH  22  25
ENDBRANCH  21  22
ENDBRANCH  19  21
ENDBRANCH   3  19
TORSDOF 7
ENDMDL
MODEL 3
REMARK VINA RESULT:      -8.9      2.611      4.683
REMARK  7 active torsions:
REMARK  status: ('A' for Active; 'I' for Inactive)
REMARK    1  A    between atoms: C_7  and  C_8 
REMARK    2  A    between atoms: C_8  and  N_9 
REMARK       I    between atoms: N_9  and  C_10 
REMARK       I    between atoms: C_10  and  N_11 
REMARK    3  A    between atoms: N_11  and  C_12 
REMARK    4  A    between atoms: C_12  and  C_13 
REMARK    5  A    between atoms: C_13  and  C_14 
REMARK    6  A    between atoms: C_14  and  O_15 
REMARK    7  A    between atoms: C_14  and  C_16 
ROOT
HETATM    1  N   UNL     1       7.483  29.313  58.473  1.00  0.00    -0.337 N 
HETATM    2  C   UNL     1       7.587  30.549  59.062  1.00  0.00     0.316 C 
HETATM    3  N   UNL     1       7.921  30.450  60.380  1.00  0.00    -0.339 N 
HETATM    4  O   UNL     1       7.358  31.593  58.462  1.00  0.00    -0.247 OA
HETATM    5  H   UNL     1       8.105  28.625  58.879  1.00  0.00     0.164 HD
HETATM    6  H   UNL     1       7.793  29.554  60.828  1.00  0.00     0.164 HD
ENDROOT
BRANCH   1   7
HETATM    7  C   UNL     1       7.246  29.193  57.046  1.00  0.00     0.183 C 
BRANCH   7   8
HETATM    8  C   UNL     1       7.460  27.793  56.597  1.00  0.00     0.044 A 
HETATM    9  N   UNL     1       8.015  26.819  57.417  1.00  0.00    -0.343 N 
HETATM   10  C   UNL     1       8.141  25.669  56.775  1.00  0.00     0.112 A 
HETATM   11  H   UNL     1       8.338  27.021  58.372  1.00  0.00     0.167 HD
HETATM   12  N   UNL     1       7.649  25.839  55.532  1.00  0.00    -0.311 N 
HETATM   13  C   UNL     1       8.704  24.374  57.221  1.00  0.00     0.049 A 
HETATM   14  C   UNL     1       7.634  24.815  54.585  1.00  0.00     0.014 A 
HETATM   15  C   UNL     1       7.214  27.152  55.402  1.00  0.00     0.125 A 
HETATM   16  C   UNL     1       7.085  25.041  53.209  1.00  0.00     0.068 C 
HETATM   17  C   UNL     1       8.145  23.627  54.982  1.00  0.00     0.025 A 
HETATM   18  C   UNL     1       8.691  23.384  56.313  1.00  0.00     0.006 A 
ENDBRANCH   7   8
ENDBRANCH   1   7
BRANCH   3  19
HETATM   19  C   UNL     1       8.147  31.591  61.279  1.00  0.00     0.085 C 
HETATM   20  C   UNL     1       9.628  31.956  61.365  1.00  0.00     0.032 C 
BRANCH  19  21
HETATM   21  C   UNL     1       7.467  31.339  62.640  1.00  0.00     0.063 C 
BRANCH  21  22
HETATM   22  C   UNL     1       6.109  32.015  62.862  1.00  0.00     0.177 C 
BRANCH  22  23
HETATM   23  O   UNL     1       5.073  31.037  62.908  1.00  0.00    -0.389 OA
HETATM   24  H   UNL     1       4.829  30.842  61.987  1.00  0.00     0.210 HD
ENDBRANCH  22  23
BRANCH  22  25
HETATM   25  C   UNL     1       6.022  32.829  64.107  1.00  0.00     0.081 A 
HETATM   26  O   UNL     1       4.777  33.000  64.648  1.00  0.00    -0.324 OA
HETATM   27  C   UNL     1       4.927  33.750  65.768  1.00  0.00     0.142 A 
HETATM   28  C   UNL     1       6.252  34.060  65.967  1.00  0.00     0.027 A 
HETATM   29  C   UNL     1       6.959  33.462  64.898  1.00  0.00     0.037 A 
ENDBRANCH  22  25
ENDBRANCH  21  22
ENDBRANCH  19  21
ENDBRANCH   3  19
TORSDOF 7
ENDMDL
MODEL 4
REMARK VINA RESULT:      -8.9      3.870      5.958
REMARK  7 active torsions:
REMARK  status: ('A' for Active; 'I' for Inactive)
REMARK    1  A    between atoms: C_7  and  C_8 
REMARK    2  A    between atoms: C_8  and  N_9 
REMARK       I    between atoms: N_9  and  C_10 
REMARK       I    between atoms: C_10  and  N_11 
REMARK    3  A    between atoms: N_11  and  C_12 
REMARK    4  A    between atoms: C_12  and  C_13 
REMARK    5  A    between atoms: C_13  and  C_14 
REMARK    6  A    between atoms: C_14  and  O_15 
REMARK    7  A    between atoms: C_14  and  C_16 
ROOT
HETATM    1  N   UNL     1       6.645  26.725  56.788  1.00  0.00    -0.337 N 
HETATM    2  C   UNL     1       6.650  27.756  55.881  1.00  0.00     0.316 C 
HETATM    3  N   UNL     1       5.446  28.394  55.841  1.00  0.00    -0.339 N 
HETATM    4  O   UNL     1       7.618  28.017  55.176  1.00  0.00    -0.247 OA
HETATM    5  H   UNL     1       6.035  26.893  57.577  1.00  0.00     0.164 HD
HETATM    6  H   UNL     1       4.651  27.915  56.238  1.00  0.00     0.164 HD
ENDROOT
BRANCH   1   7
HETATM    7  C   UNL     1       7.862  25.985  57.071  1.00  0.00     0.183 C 
BRANCH   7   8
HETATM    8  C   UNL     1       7.918  24.744  56.257  1.00  0.00     0.044 A 
HETATM    9  N   UNL     1       7.939  24.758  54.868  1.00  0.00    -0.343 N 
HETATM   10  C   UNL     1       7.945  23.528  54.377  1.00  0.00     0.112 A 
HETATM   11  H   UNL     1       7.885  25.629  54.325  1.00  0.00     0.167 HD
HETATM   12  N   UNL     1       7.959  22.673  55.420  1.00  0.00    -0.311 N 
HETATM   13  C   UNL     1       7.932  23.051  52.976  1.00  0.00     0.049 A 
HETATM   14  C   UNL     1       7.964  21.289  55.253  1.00  0.00     0.014 A 
HETATM   15  C   UNL     1       7.949  23.408  56.598  1.00  0.00     0.125 A 
HETATM   16  C   UNL     1       7.974  20.366  56.434  1.00  0.00     0.068 C 
HETATM   17  C   UNL     1       7.954  20.841  53.976  1.00  0.00     0.025 A 
HETATM   18  C   UNL     1       7.937  21.717  52.810  1.00  0.00     0.006 A 
ENDBRANCH   7   8
ENDBRANCH   1   7
BRANCH   3  19
HETATM   19  C   UNL     1       5.141  29.562  55.003  1.00  0.00     0.085 C 
HETATM   20  C   UNL     1       4.527  30.697  55.820  1.00  0.00     0.032 C 
BRANCH  19  21
HETATM   21  C   UNL     1       4.312  29.133  53.774  1.00  0.00     0.063 C 
BRANCH  21  22
HETATM   22  C   UNL     1       5.099  28.607  52.568  1.00  0.00     0.177 C 
BRANCH  22  23
HETATM   23  O   UNL     1       6.468  28.994  52.666  1.00  0.00    -0.389 OA
HETATM   24  H   UNL     1       6.561  29.827  52.172  1.00  0.00     0.210 HD
ENDBRANCH  22  23
BRANCH  22  25
HETATM   25  C   UNL     1       5.056  27.128  52.400  1.00  0.00     0.081 A 
HETATM   26  O   UNL     1       4.739  26.389  53.507  1.00  0.00    -0.324 OA
HETATM   27  C   UNL     1       4.743  25.085  53.131  1.00  0.00     0.142 A 
HETATM   28  C   UNL     1       5.047  24.968  51.796  1.00  0.00     0.027 A 
HETATM   29  C   UNL     1       5.244  26.286  51.322  1.00  0.00     0.037 A 
ENDBRANCH  22  25
ENDBRANCH  21  22
ENDBRANCH  19  21
ENDBRANCH   3  19
TORSDOF 7
ENDMDL
MODEL 5
REMARK VINA RESULT:      -8.9      1.635      2.657
REMARK  7 active torsions:
REMARK  status: ('A' for Active; 'I' for Inactive)
REMARK    1  A    between atoms: C_7  and  C_8 
REMARK    2  A    between atoms: C_8  and  N_9 
REMARK       I    between atoms: N_9  and  C_10 
REMARK       I    between atoms: C_10  and  N_11 
REMARK    3  A    between atoms: N_11  and  C_12 
REMARK    4  A    between atoms: C_12  and  C_13 
REMARK    5  A    between atoms: C_13  and  C_14 
REMARK    6  A    between atoms: C_14  and  O_15 
REMARK    7  A    between atoms: C_14  and  C_16 
ROOT
HETATM    1  N   UNL     1       7.198  27.566  57.654  1.00  0.00    -0.337 N 
HETATM    2  C   UNL     1       7.450  28.911  57.539  1.00  0.00     0.316 C 
HETATM    3  N   UNL     1       8.614  29.257  58.158  1.00  0.00    -0.339 N 
HETATM    4  O   UNL     1       6.681  29.686  56.982  1.00  0.00    -0.247 OA
HETATM    5  H   UNL     1       8.039  27.005  57.695  1.00  0.00     0.164 HD
HETATM    6  H   UNL     1       9.001  28.604  58.824  1.00  0.00     0.164 HD
ENDROOT
BRANCH   1   7
HETATM    7  C   UNL     1       6.066  26.966  56.971  1.00  0.00     0.183 C 
BRANCH   7   8
HETATM    8  C   UNL     1       6.519  25.880  56.064  1.00  0.00     0.044 A 
HETATM    9  N   UNL     1       6.708  24.573  56.495  1.00  0.00    -0.343 N 
HETATM   10  C   UNL     1       7.155  23.806  55.513  1.00  0.00     0.112 A 
HETATM   11  H   UNL     1       6.574  24.290  57.474  1.00  0.00     0.167 HD
HETATM   12  N   UNL     1       7.245  24.572  54.406  1.00  0.00    -0.311 N 
HETATM   13  C   UNL     1       7.528  22.374  55.504  1.00  0.00     0.049 A 
HETATM   14  C   UNL     1       7.691  24.071  53.184  1.00  0.00     0.014 A 
HETATM   15  C   UNL     1       6.848  25.864  54.726  1.00  0.00     0.125 A 
HETATM   16  C   UNL     1       7.785  24.951  51.974  1.00  0.00     0.068 C 
HETATM   17  C   UNL     1       8.035  22.762  53.163  1.00  0.00     0.025 A 
HETATM   18  C   UNL     1       7.959  21.886  54.328  1.00  0.00     0.006 A 
ENDBRANCH   7   8
ENDBRANCH   1   7
BRANCH   3  19
HETATM   19  C   UNL     1       9.183  30.612  58.181  1.00  0.00     0.085 C 
HETATM   20  C   UNL     1      10.564  30.654  57.531  1.00  0.00     0.032 C 
BRANCH  19  21
HETATM   21  C   UNL     1       9.128  31.188  59.612  1.00  0.00     0.063 C 
BRANCH  21  22
HETATM   22  C   UNL     1       7.881  32.003  59.974  1.00  0.00     0.177 C 
BRANCH  22  23
HETATM   23  O   UNL     1       6.702  31.274  59.640  1.00  0.00    -0.389 OA
HETATM   24  H   UNL     1       6.019  31.930  59.416  1.00  0.00     0.210 HD
ENDBRANCH  22  23
BRANCH  22  25
HETATM   25  C   UNL     1       7.789  32.384  61.411  1.00  0.00     0.081 A 
HETATM   26  O   UNL     1       6.790  33.252  61.757  1.00  0.00    -0.324 OA
HETATM   27  C   UNL     1       6.879  33.451  63.097  1.00  0.00     0.142 A 
HETATM   28  C   UNL     1       7.914  32.716  63.625  1.00  0.00     0.027 A 
HETATM   29  C   UNL     1       8.498  32.024  62.539  1.00  0.00     0.037 A 
ENDBRANCH  22  25
ENDBRANCH  21  22
ENDBRANCH  19  21
ENDBRANCH   3  19
TORSDOF 7
ENDMDL
MODEL 6
REMARK VINA RESULT:      -8.7      2.218      3.483
REMARK  7 active torsions:
REMARK  status: ('A' for Active; 'I' for Inactive)
REMARK    1  A    between atoms: C_7  and  C_8 
REMARK    2  A    between atoms: C_8  and  N_9 
REMARK       I    between atoms: N_9  and  C_10 
REMARK       I    between atoms: C_10  and  N_11 
REMARK    3  A    between atoms: N_11  and  C_12 
REMARK    4  A    between atoms: C_12  and  C_13 
REMARK    5  A    between atoms: C_13  and  C_14 
REMARK    6  A    between atoms: C_14  and  O_15 
REMARK    7  A    between atoms: C_14  and  C_16 
ROOT
HETATM    1  N   UNL     1       7.596  26.956  53.926  1.00  0.00    -0.337 N 
HETATM    2  C   UNL     1       6.496  27.227  54.702  1.00  0.00     0.316 C 
HETATM    3  N   UNL     1       6.696  28.320  55.491  1.00  0.00    -0.339 N 
HETATM    4  O   UNL     1       5.489  26.527  54.696  1.00  0.00    -0.247 OA
HETATM    5  H   UNL     1       8.118  27.785  53.672  1.00  0.00     0.164 HD
HETATM    6  H   UNL     1       7.647  28.630  55.627  1.00  0.00     0.164 HD
ENDROOT
BRANCH   1   7
HETATM    7  C   UNL     1       7.556  25.900  52.931  1.00  0.00     0.183 C 
BRANCH   7   8
HETATM    8  C   UNL     1       7.765  24.574  53.567  1.00  0.00     0.044 A 
HETATM    9  N   UNL     1       7.891  24.414  54.941  1.00  0.00    -0.343 N 
HETATM   10  C   UNL     1       8.113  23.148  55.256  1.00  0.00     0.112 A 
HETATM   11  H   UNL     1       7.878  25.209  55.592  1.00  0.00     0.167 HD
HETATM   12  N   UNL     1       8.110  22.436  54.111  1.00  0.00    -0.311 N 
HETATM   13  C   UNL     1       8.344  22.509  56.572  1.00  0.00     0.049 A 
HETATM   14  C   UNL     1       8.320  21.058  54.085  1.00  0.00     0.014 A 
HETATM   15  C   UNL     1       7.889  23.303  53.049  1.00  0.00     0.125 A 
HETATM   16  C   UNL     1       8.316  20.298  52.794  1.00  0.00     0.068 C 
HETATM   17  C   UNL     1       8.531  20.463  55.282  1.00  0.00     0.025 A 
HETATM   18  C   UNL     1       8.547  21.181  56.552  1.00  0.00     0.006 A 
ENDBRANCH   7   8
ENDBRANCH   1   7
BRANCH   3  19
HETATM   19  C   UNL     1       5.697  28.891  56.405  1.00  0.00     0.085 C 
HETATM   20  C   UNL     1       4.553  29.558  55.644  1.00  0.00     0.032 C 
BRANCH  19  21
HETATM   21  C   UNL     1       6.386  29.794  57.450  1.00  0.00     0.063 C 
BRANCH  21  22
HETATM   22  C   UNL     1       7.556  29.174  58.223  1.00  0.00     0.177 C 
BRANCH  22  23
HETATM   23  O   UNL     1       7.520  27.753  58.116  1.00  0.00    -0.389 OA
HETATM   24  H   UNL     1       6.887  27.539  57.409  1.00  0.00     0.210 HD
ENDBRANCH  22  23
BRANCH  22  25
HETATM   25  C   UNL     1       8.902  29.630  57.774  1.00  0.00     0.081 A 
HETATM   26  O   UNL     1       9.324  29.196  56.548  1.00  0.00    -0.324 OA
HETATM   27  C   UNL     1      10.552  29.733  56.335  1.00  0.00     0.142 A 
HETATM   28  C   UNL     1      10.928  30.517  57.401  1.00  0.00     0.027 A 
HETATM   29  C   UNL     1       9.861  30.454  58.328  1.00  0.00     0.037 A 
ENDBRANCH  22  25
ENDBRANCH  21  22
ENDBRANCH  19  21
ENDBRANCH   3  19
TORSDOF 7
ENDMDL
MODEL 7
REMARK VINA RESULT:      -8.5      3.247      4.578
REMARK  7 active torsions:
REMARK  status: ('A' for Active; 'I' for Inactive)
REMARK    1  A    between atoms: C_7  and  C_8 
REMARK    2  A    between atoms: C_8  and  N_9 
REMARK       I    between atoms: N_9  and  C_10 
REMARK       I    between atoms: C_10  and  N_11 
REMARK    3  A    between atoms: N_11  and  C_12 
REMARK    4  A    between atoms: C_12  and  C_13 
REMARK    5  A    between atoms: C_13  and  C_14 
REMARK    6  A    between atoms: C_14  and  O_15 
REMARK    7  A    between atoms: C_14  and  C_16 
ROOT
HETATM    1  N   UNL     1       6.903  26.251  52.604  1.00  0.00    -0.337 N 
HETATM    2  C   UNL     1       5.610  26.431  53.031  1.00  0.00     0.316 C 
HETATM    3  N   UNL     1       5.387  27.716  53.428  1.00  0.00    -0.339 N 
HETATM    4  O   UNL     1       4.793  25.518  53.081  1.00  0.00    -0.247 OA
HETATM    5  H   UNL     1       7.302  27.080  52.184  1.00  0.00     0.164 HD
HETATM    6  H   UNL     1       6.194  28.292  53.620  1.00  0.00     0.164 HD
ENDROOT
BRANCH   1   7
HETATM    7  C   UNL     1       7.323  24.984  52.033  1.00  0.00     0.183 C 
BRANCH   7   8
HETATM    8  C   UNL     1       7.653  24.012  53.107  1.00  0.00     0.044 A 
HETATM    9  N   UNL     1       7.718  22.642  52.885  1.00  0.00    -0.343 N 
HETATM   10  C   UNL     1       7.985  21.988  54.004  1.00  0.00     0.112 A 
HETATM   11  H   UNL     1       7.510  22.222  51.970  1.00  0.00     0.167 HD
HETATM   12  N   UNL     1       8.133  22.902  54.985  1.00  0.00    -0.311 N 
HETATM   13  C   UNL     1       8.115  20.537  54.264  1.00  0.00     0.049 A 
HETATM   14  C   UNL     1       8.419  22.546  56.302  1.00  0.00     0.014 A 
HETATM   15  C   UNL     1       7.937  24.167  54.447  1.00  0.00     0.125 A 
HETATM   16  C   UNL     1       8.572  23.588  57.370  1.00  0.00     0.068 C 
HETATM   17  C   UNL     1       8.542  21.222  56.551  1.00  0.00     0.025 A 
HETATM   18  C   UNL     1       8.391  20.189  55.532  1.00  0.00     0.006 A 
ENDBRANCH   7   8
ENDBRANCH   1   7
BRANCH   3  19
HETATM   19  C   UNL     1       4.097  28.238  53.899  1.00  0.00     0.085 C 
HETATM   20  C   UNL     1       3.289  28.856  52.760  1.00  0.00     0.032 C 
BRANCH  19  21
HETATM   21  C   UNL     1       4.311  29.166  55.113  1.00  0.00     0.063 C 
BRANCH  21  22
HETATM   22  C   UNL     1       4.769  28.497  56.414  1.00  0.00     0.177 C 
BRANCH  22  23
HETATM   23  O   UNL     1       4.272  27.162  56.483  1.00  0.00    -0.389 OA
HETATM   24  H   UNL     1       3.482  27.126  55.916  1.00  0.00     0.210 HD
ENDBRANCH  22  23
BRANCH  22  25
HETATM   25  C   UNL     1       6.247  28.442  56.592  1.00  0.00     0.081 A 
HETATM   26  O   UNL     1       7.002  29.188  55.729  1.00  0.00    -0.324 OA
HETATM   27  C   UNL     1       8.302  29.005  56.074  1.00  0.00     0.142 A 
HETATM   28  C   UNL     1       8.400  28.159  57.154  1.00  0.00     0.027 A 
HETATM   29  C   UNL     1       7.074  27.799  57.492  1.00  0.00     0.037 A 
ENDBRANCH  22  25
ENDBRANCH  21  22
ENDBRANCH  19  21
ENDBRANCH   3  19
TORSDOF 7
ENDMDL
MODEL 8
REMARK VINA RESULT:      -8.4      2.956      4.348
REMARK  7 active torsions:
REMARK  status: ('A' for Active; 'I' for Inactive)
REMARK    1  A    between atoms: C_7  and  C_8 
REMARK    2  A    between atoms: C_8  and  N_9 
REMARK       I    between atoms: N_9  and  C_10 
REMARK       I    between atoms: C_10  and  N_11 
REMARK    3  A    between atoms: N_11  and  C_12 
REMARK    4  A    between atoms: C_12  and  C_13 
REMARK    5  A    between atoms: C_13  and  C_14 
REMARK    6  A    between atoms: C_14  and  O_15 
REMARK    7  A    between atoms: C_14  and  C_16 
ROOT
HETATM    1  N   UNL     1       7.195  26.866  53.433  1.00  0.00    -0.337 N 
HETATM    2  C   UNL     1       5.863  27.187  53.515  1.00  0.00     0.316 C 
HETATM    3  N   UNL     1       5.658  28.280  54.304  1.00  0.00    -0.339 N 
HETATM    4  O   UNL     1       4.985  26.527  52.972  1.00  0.00    -0.247 OA
HETATM    5  H   UNL     1       7.803  27.672  53.502  1.00  0.00     0.164 HD
HETATM    6  H   UNL     1       6.406  28.554  54.925  1.00  0.00     0.164 HD
ENDROOT
BRANCH   1   7
HETATM    7  C   UNL     1       7.646  25.802  52.554  1.00  0.00     0.183 C 
BRANCH   7   8
HETATM    8  C   UNL     1       7.820  24.537  53.312  1.00  0.00     0.044 A 
HETATM    9  N   UNL     1       7.871  24.495  54.699  1.00  0.00    -0.343 N 
HETATM   10  C   UNL     1       8.077  23.262  55.133  1.00  0.00     0.112 A 
HETATM   11  H   UNL     1       7.822  25.343  55.279  1.00  0.00     0.167 HD
HETATM   12  N   UNL     1       8.136  22.454  54.055  1.00  0.00    -0.311 N 
HETATM   13  C   UNL     1       8.235  22.739  56.509  1.00  0.00     0.049 A 
HETATM   14  C   UNL     1       8.349  21.080  54.159  1.00  0.00     0.014 A 
HETATM   15  C   UNL     1       7.973  23.227  52.912  1.00  0.00     0.125 A 
HETATM   16  C   UNL     1       8.416  20.213  52.938  1.00  0.00     0.068 C 
HETATM   17  C   UNL     1       8.494  20.591  55.411  1.00  0.00     0.025 A 
HETATM   18  C   UNL     1       8.440  21.415  56.615  1.00  0.00     0.006 A 
ENDBRANCH   7   8
ENDBRANCH   1   7
BRANCH   3  19
HETATM   19  C   UNL     1       4.350  28.898  54.561  1.00  0.00     0.085 C 
HETATM   20  C   UNL     1       4.010  29.954  53.510  1.00  0.00     0.032 C 
BRANCH  19  21
HETATM   21  C   UNL     1       4.273  29.395  56.019  1.00  0.00     0.063 C 
BRANCH  21  22
HETATM   22  C   UNL     1       4.797  28.438  57.096  1.00  0.00     0.177 C 
BRANCH  22  23
HETATM   23  O   UNL     1       4.408  27.100  56.797  1.00  0.00    -0.389 OA
HETATM   24  H   UNL     1       3.578  26.933  57.276  1.00  0.00     0.210 HD
ENDBRANCH  22  23
BRANCH  22  25
HETATM   25  C   UNL     1       6.276  28.454  57.270  1.00  0.00     0.081 A 
HETATM   26  O   UNL     1       6.973  27.408  56.730  1.00  0.00    -0.324 OA
HETATM   27  C   UNL     1       8.287  27.627  56.989  1.00  0.00     0.142 A 
HETATM   28  C   UNL     1       8.453  28.805  57.679  1.00  0.00     0.027 A 
HETATM   29  C   UNL     1       7.156  29.341  57.856  1.00  0.00     0.037 A 
ENDBRANCH  22  25
ENDBRANCH  21  22
ENDBRANCH  19  21
ENDBRANCH   3  19
TORSDOF 7
ENDMDL
MODEL 9
REMARK VINA RESULT:      -8.4      3.304      5.844
REMARK  7 active torsions:
REMARK  status: ('A' for Active; 'I' for Inactive)
REMARK    1  A    between atoms: C_7  and  C_8 
REMARK    2  A    between atoms: C_8  and  N_9 
REMARK       I    between atoms: N_9  and  C_10 
REMARK       I    between atoms: C_10  and  N_11 
REMARK    3  A    between atoms: N_11  and  C_12 
REMARK    4  A    between atoms: C_12  and  C_13 
REMARK    5  A    between atoms: C_13  and  C_14 
REMARK    6  A    between atoms: C_14  and  O_15 
REMARK    7  A    between atoms: C_14  and  C_16 
ROOT
HETATM    1  N   UNL     1       8.182  26.639  57.223  1.00  0.00    -0.337 N 
HETATM    2  C   UNL     1       7.091  27.438  56.982  1.00  0.00     0.316 C 
HETATM    3  N   UNL     1       7.422  28.524  56.227  1.00  0.00    -0.339 N 
HETATM    4  O   UNL     1       5.979  27.202  57.441  1.00  0.00    -0.247 OA
HETATM    5  H   UNL     1       8.862  26.658  56.474  1.00  0.00     0.164 HD
HETATM    6  H   UNL     1       8.400  28.766  56.162  1.00  0.00     0.164 HD
ENDROOT
BRANCH   1   7
HETATM    7  C   UNL     1       8.030  25.371  57.914  1.00  0.00     0.183 C 
BRANCH   7   8
HETATM    8  C   UNL     1       8.090  24.242  56.951  1.00  0.00     0.044 A 
HETATM    9  N   UNL     1       8.271  22.924  57.351  1.00  0.00    -0.343 N 
HETATM   10  C   UNL     1       8.333  22.112  56.308  1.00  0.00     0.112 A 
HETATM   11  H   UNL     1       8.405  22.660  58.335  1.00  0.00     0.167 HD
HETATM   12  N   UNL     1       8.166  22.860  55.198  1.00  0.00    -0.311 N 
HETATM   13  C   UNL     1       8.548  20.649  56.238  1.00  0.00     0.049 A 
HETATM   14  C   UNL     1       8.182  22.312  53.916  1.00  0.00     0.014 A 
HETATM   15  C   UNL     1       8.006  24.187  55.576  1.00  0.00     0.125 A 
HETATM   16  C   UNL     1       7.998  23.173  52.703  1.00  0.00     0.068 C 
HETATM   17  C   UNL     1       8.377  20.975  53.840  1.00  0.00     0.025 A 
HETATM   18  C   UNL     1       8.564  20.116  55.004  1.00  0.00     0.006 A 
ENDBRANCH   7   8
ENDBRANCH   1   7
BRANCH   3  19
HETATM   19  C   UNL     1       6.474  29.547  55.765  1.00  0.00     0.085 C 
HETATM   20  C   UNL     1       5.941  30.387  56.925  1.00  0.00     0.032 C 
BRANCH  19  21
HETATM   21  C   UNL     1       5.384  28.902  54.884  1.00  0.00     0.063 C 
BRANCH  21  22
HETATM   22  C   UNL     1       5.811  28.460  53.480  1.00  0.00     0.177 C 
BRANCH  22  23
HETATM   23  O   UNL     1       7.222  28.599  53.328  1.00  0.00    -0.389 OA
HETATM   24  H   UNL     1       7.542  27.783  52.907  1.00  0.00     0.210 HD
ENDBRANCH  22  23
BRANCH  22  25
HETATM   25  C   UNL     1       5.454  27.054  53.141  1.00  0.00     0.081 A 
HETATM   26  O   UNL     1       5.467  26.716  51.815  1.00  0.00    -0.324 OA
HETATM   27  C   UNL     1       5.129  25.404  51.734  1.00  0.00     0.142 A 
HETATM   28  C   UNL     1       4.907  24.885  52.987  1.00  0.00     0.027 A 
HETATM   29  C   UNL     1       5.121  25.947  53.896  1.00  0.00     0.037 A 
ENDBRANCH  22  25
ENDBRANCH  21  22
ENDBRANCH  19  21
ENDBRANCH   3  19
TORSDOF 7
ENDMDL
MODEL 10
REMARK VINA RESULT:      -8.3      1.912      2.818
REMARK  7 active torsions:
REMARK  status: ('A' for Active; 'I' for Inactive)
REMARK    1  A    between atoms: C_7  and  C_8 
REMARK    2  A    between atoms: C_8  and  N_9 
REMARK       I    between atoms: N_9  and  C_10 
REMARK       I    between atoms: C_10  and  N_11 
REMARK    3  A    between atoms: N_11  and  C_12 
REMARK    4  A    between atoms: C_12  and  C_13 
REMARK    5  A    between atoms: C_13  and  C_14 
REMARK    6  A    between atoms: C_14  and  O_15 
REMARK    7  A    between atoms: C_14  and  C_16 
ROOT
HETATM    1  N   UNL     1       7.676  28.078  57.721  1.00  0.00    -0.337 N 
HETATM    2  C   UNL     1       7.665  29.387  58.134  1.00  0.00     0.316 C 
HETATM    3  N   UNL     1       8.826  29.724  58.764  1.00  0.00    -0.339 N 
HETATM    4  O   UNL     1       6.698  30.126  57.980  1.00  0.00    -0.247 OA
HETATM    5  H   UNL     1       8.600  27.744  57.482  1.00  0.00     0.164 HD
HETATM    6  H   UNL     1       9.415  28.971  59.090  1.00  0.00     0.164 HD
ENDROOT
BRANCH   1   7
HETATM    7  C   UNL     1       6.582  27.544  56.929  1.00  0.00     0.183 C 
BRANCH   7   8
HETATM    8  C   UNL     1       7.029  26.362  56.150  1.00  0.00     0.044 A 
HETATM    9  N   UNL     1       7.054  26.343  54.762  1.00  0.00    -0.343 N 
HETATM   10  C   UNL     1       7.448  25.165  54.306  1.00  0.00     0.112 A 
HETATM   11  H   UNL     1       6.733  27.138  54.194  1.00  0.00     0.167 HD
HETATM   12  N   UNL     1       7.722  24.386  55.372  1.00  0.00    -0.311 N 
HETATM   13  C   UNL     1       7.594  24.669  52.919  1.00  0.00     0.049 A 
HETATM   14  C   UNL     1       8.162  23.069  55.244  1.00  0.00     0.014 A 
HETATM   15  C   UNL     1       7.475  25.113  56.529  1.00  0.00     0.125 A 
HETATM   16  C   UNL     1       8.452  22.229  56.450  1.00  0.00     0.068 C 
HETATM   17  C   UNL     1       8.300  22.605  53.981  1.00  0.00     0.025 A 
HETATM   18  C   UNL     1       8.018  23.401  52.790  1.00  0.00     0.006 A 
ENDBRANCH   7   8
ENDBRANCH   1   7
BRANCH   3  19
HETATM   19  C   UNL     1       9.142  31.060  59.288  1.00  0.00     0.085 C 
HETATM   20  C   UNL     1      10.208  31.758  58.444  1.00  0.00     0.032 C 
BRANCH  19  21
HETATM   21  C   UNL     1       9.466  30.979  60.794  1.00  0.00     0.063 C 
BRANCH  21  22
HETATM   22  C   UNL     1       8.288  30.688  61.732  1.00  0.00     0.177 C 
BRANCH  22  23
HETATM   23  O   UNL     1       8.693  29.797  62.769  1.00  0.00    -0.389 OA
HETATM   24  H   UNL     1       7.991  29.130  62.856  1.00  0.00     0.210 HD
ENDBRANCH  22  23
BRANCH  22  25
HETATM   25  C   UNL     1       7.699  31.896  62.374  1.00  0.00     0.081 A 
HETATM   26  O   UNL     1       8.121  32.191  63.641  1.00  0.00    -0.324 OA
HETATM   27  C   UNL     1       7.476  33.322  64.024  1.00  0.00     0.142 A 
HETATM   28  C   UNL     1       6.650  33.770  63.020  1.00  0.00     0.027 A 
HETATM   29  C   UNL     1       6.797  32.853  61.953  1.00  0.00     0.037 A 
ENDBRANCH  22  25
ENDBRANCH  21  22
ENDBRANCH  19  21
ENDBRANCH   3  19
TORSDOF 7
ENDMDL
