MODEL 1
REMARK VINA RESULT:     -10.6      0.000      0.000
REMARK  6 active torsions:
REMARK  status: ('A' for Active; 'I' for Inactive)
REMARK    1  A    between atoms: C_5  and  C_6 
REMARK    2  A    between atoms: C_11  and  C_12 
REMARK       I    between atoms: C_12  and  N_13 
REMARK    3  A    between atoms: N_13  and  C_14 
REMARK    4  A    between atoms: C_16  and  C_17 
REMARK    5  A    between atoms: C_17  and  O_18 
REMARK    6  A    between atoms: C_25  and  C_26 
ROOT
HETATM    1  C   UNL     1       6.708  26.196  53.669  1.00  0.00     0.118 C 
HETATM    2  N   UNL     1       7.661  27.249  54.005  1.00  0.00    -0.366 N 
HETATM    3  C   UNL     1       7.625  27.886  55.193  1.00  0.00     0.123 A 
HETATM    4  N   UNL     1       6.581  27.741  56.062  1.00  0.00    -0.240 N 
HETATM    5  N   UNL     1       6.682  28.505  57.168  1.00  0.00    -0.165 NA
HETATM    6  C   UNL     1       7.903  29.075  57.044  1.00  0.00     0.148 A 
HETATM    7  C   UNL     1       8.509  28.733  55.806  1.00  0.00     0.089 A 
HETATM    8  C   UNL     1       5.446  26.868  55.835  1.00  0.00     0.221 C 
HETATM    9  C   UNL     1       5.354  26.458  54.352  1.00  0.00     0.066 C 
HETATM   10  H   UNL     1       8.518  27.240  53.451  1.00  0.00     0.161 HD
ENDROOT
BRANCH   6  11
HETATM   11  C   UNL     1       8.491  29.924  58.096  1.00  0.00     0.276 C 
HETATM   12  N   UNL     1       7.564  30.285  59.054  1.00  0.00    -0.322 N 
HETATM   13  H   UNL     1       6.618  29.971  58.847  1.00  0.00     0.169 HD
HETATM   14  O   UNL     1       9.674  30.244  58.066  1.00  0.00    -0.266 OA
BRANCH  12  15
HETATM   15  C   UNL     1       7.778  31.010  60.238  1.00  0.00     0.035 A 
HETATM   16  C   UNL     1       7.021  32.125  60.609  1.00  0.00     0.039 A 
HETATM   17  C   UNL     1       7.295  32.835  61.794  1.00  0.00    -0.028 A 
HETATM   18  C   UNL     1       8.334  32.387  62.618  1.00  0.00     0.010 A 
HETATM   19  C   UNL     1       9.096  31.276  62.256  1.00  0.00     0.003 A 
HETATM   20  C   UNL     1       8.825  30.597  61.068  1.00  0.00     0.029 A 
BRANCH  17  21
HETATM   21  C   UNL     1       6.457  34.048  62.137  1.00  0.00     0.147 C 
HETATM   22  C   UNL     1       5.011  33.884  61.682  1.00  0.00     0.044 C 
BRANCH  21  23
HETATM   23  O   UNL     1       6.472  34.292  63.543  1.00  0.00    -0.391 OA
HETATM   24  H   UNL     1       5.630  34.724  63.763  1.00  0.00     0.210 HD
ENDBRANCH  21  23
ENDBRANCH  17  21
ENDBRANCH  12  15
ENDBRANCH   6  11
BRANCH   8  25
HETATM   25  C   UNL     1       5.486  25.695  56.791  1.00  0.00     0.409 C 
HETATM   26  F   UNL     1       6.658  25.553  57.434  1.00  0.00    -0.169 F 
HETATM   27  F   UNL     1       4.517  25.781  57.733  1.00  0.00    -0.169 F 
HETATM   28  F   UNL     1       5.252  24.538  56.119  1.00  0.00    -0.169 F 
ENDBRANCH   8  25
BRANCH   1  29
HETATM   29  C   UNL     1       7.276  24.801  53.863  1.00  0.00    -0.035 A 
HETATM   30  C   UNL     1       8.142  24.465  54.915  1.00  0.00     0.010 A 
HETATM   31  C   UNL     1       8.661  23.173  55.041  1.00  0.00     0.007 A 
HETATM   32  C   UNL     1       8.341  22.186  54.106  1.00  0.00    -0.062 A 
HETATM   33  C   UNL     1       8.889  20.796  54.236  1.00  0.00     0.048 C 
HETATM   34  C   UNL     1       7.481  22.507  53.053  1.00  0.00     0.007 A 
HETATM   35  C   UNL     1       6.956  23.798  52.933  1.00  0.00     0.010 A 
ENDBRANCH   1  29
TORSDOF 6
ENDMDL
MODEL 2
REMARK VINA RESULT:     -10.2      6.977     10.085
REMARK  6 active torsions:
REMARK  status: ('A' for Active; 'I' for Inactive)
REMARK    1  A    between atoms: C_5  and  C_6 
REMARK    2  A    between atoms: C_11  and  C_12 
REMARK       I    between atoms: C_12  and  N_13 
REMARK    3  A    between atoms: N_13  and  C_14 
REMARK    4  A    between atoms: C_16  and  C_17 
REMARK    5  A    between atoms: C_17  and  O_18 
REMARK    6  A    between atoms: C_25  and  C_26 
ROOT
HETATM    1  C   UNL     1       3.517  29.946  50.322  1.00  0.00     0.118 C 
HETATM    2  N   UNL     1       4.241  29.517  51.515  1.00  0.00    -0.366 N 
HETATM    3  C   UNL     1       4.904  28.344  51.560  1.00  0.00     0.123 A 
HETATM    4  N   UNL     1       4.768  27.397  50.585  1.00  0.00    -0.240 N 
HETATM    5  N   UNL     1       5.452  26.261  50.829  1.00  0.00    -0.165 NA
HETATM    6  C   UNL     1       6.143  26.548  51.957  1.00  0.00     0.148 A 
HETATM    7  C   UNL     1       5.802  27.832  52.458  1.00  0.00     0.089 A 
HETATM    8  C   UNL     1       3.956  27.561  49.395  1.00  0.00     0.221 C 
HETATM    9  C   UNL     1       2.962  28.726  49.563  1.00  0.00     0.066 C 
HETATM   10  H   UNL     1       4.482  30.270  52.159  1.00  0.00     0.161 HD
ENDROOT
BRANCH   6  11
HETATM   11  C   UNL     1       7.124  25.617  52.543  1.00  0.00     0.276 C 
HETATM   12  N   UNL     1       6.635  24.983  53.667  1.00  0.00    -0.322 N 
HETATM   13  H   UNL     1       5.712  25.306  53.951  1.00  0.00     0.169 HD
HETATM   14  O   UNL     1       8.236  25.471  52.046  1.00  0.00    -0.266 OA
BRANCH  12  15
HETATM   15  C   UNL     1       7.249  23.975  54.431  1.00  0.00     0.035 A 
HETATM   16  C   UNL     1       7.417  22.662  53.983  1.00  0.00     0.039 A 
HETATM   17  C   UNL     1       8.013  21.681  54.798  1.00  0.00    -0.028 A 
HETATM   18  C   UNL     1       8.464  22.052  56.071  1.00  0.00     0.010 A 
HETATM   19  C   UNL     1       8.300  23.359  56.527  1.00  0.00     0.003 A 
HETATM   20  C   UNL     1       7.688  24.313  55.714  1.00  0.00     0.029 A 
BRANCH  17  21
HETATM   21  C   UNL     1       8.152  20.269  54.272  1.00  0.00     0.147 C 
HETATM   22  C   UNL     1       8.529  20.250  52.795  1.00  0.00     0.044 C 
BRANCH  21  23
HETATM   23  O   UNL     1       9.139  19.548  55.009  1.00  0.00    -0.391 OA
HETATM   24  H   UNL     1       9.186  19.957  55.889  1.00  0.00     0.210 HD
ENDBRANCH  21  23
ENDBRANCH  17  21
ENDBRANCH  12  15
ENDBRANCH   6  11
BRANCH   8  25
HETATM   25  C   UNL     1       4.838  27.683  48.170  1.00  0.00     0.409 C 
HETATM   26  F   UNL     1       5.985  28.350  48.386  1.00  0.00    -0.169 F 
HETATM   27  F   UNL     1       5.165  26.470  47.665  1.00  0.00    -0.169 F 
HETATM   28  F   UNL     1       4.173  28.333  47.180  1.00  0.00    -0.169 F 
ENDBRANCH   8  25
BRANCH   1  29
HETATM   29  C   UNL     1       4.301  30.935  49.479  1.00  0.00    -0.035 A 
HETATM   30  C   UNL     1       3.844  31.423  48.245  1.00  0.00     0.010 A 
HETATM   31  C   UNL     1       4.611  32.315  47.490  1.00  0.00     0.007 A 
HETATM   32  C   UNL     1       5.865  32.731  47.943  1.00  0.00    -0.062 A 
HETATM   33  C   UNL     1       6.693  33.692  47.142  1.00  0.00     0.048 C 
HETATM   34  C   UNL     1       6.333  32.253  49.169  1.00  0.00     0.007 A 
HETATM   35  C   UNL     1       5.561  31.366  49.927  1.00  0.00     0.010 A 
ENDBRANCH   1  29
TORSDOF 6
ENDMDL
MODEL 3
REMARK VINA RESULT:     -10.1      6.859     10.131
REMARK  6 active torsions:
REMARK  status: ('A' for Active; 'I' for Inactive)
REMARK    1  A    between atoms: C_5  and  C_6 
REMARK    2  A    between atoms: C_11  and  C_12 
REMARK       I    between atoms: C_12  and  N_13 
REMARK    3  A    between atoms: N_13  and  C_14 
REMARK    4  A    between atoms: C_16  and  C_17 
REMARK    5  A    between atoms: C_17  and  O_18 
REMARK    6  A    between atoms: C_25  and  C_26 
ROOT
HETATM    1  C   UNL     1       4.409  28.767  47.808  1.00  0.00     0.118 C 
HETATM    2  N   UNL     1       4.956  27.488  48.251  1.00  0.00    -0.366 N 
HETATM    3  C   UNL     1       4.986  27.142  49.554  1.00  0.00     0.123 A 
HETATM    4  N   UNL     1       4.708  28.037  50.548  1.00  0.00    -0.240 N 
HETATM    5  N   UNL     1       4.853  27.534  51.791  1.00  0.00    -0.165 NA
HETATM    6  C   UNL     1       5.126  26.227  51.569  1.00  0.00     0.148 A 
HETATM    7  C   UNL     1       5.246  25.953  50.181  1.00  0.00     0.089 A 
HETATM    8  C   UNL     1       4.309  29.412  50.321  1.00  0.00     0.221 C 
HETATM    9  C   UNL     1       4.636  29.849  48.880  1.00  0.00     0.066 C 
HETATM   10  H   UNL     1       5.002  26.772  47.527  1.00  0.00     0.161 HD
ENDROOT
BRANCH   6  11
HETATM   11  C   UNL     1       5.259  25.249  52.664  1.00  0.00     0.276 C 
HETATM   12  N   UNL     1       6.575  24.906  52.901  1.00  0.00    -0.322 N 
HETATM   13  H   UNL     1       7.231  25.324  52.245  1.00  0.00     0.169 HD
HETATM   14  O   UNL     1       4.273  24.821  53.255  1.00  0.00    -0.266 OA
BRANCH  12  15
HETATM   15  C   UNL     1       7.086  24.077  53.914  1.00  0.00     0.035 A 
HETATM   16  C   UNL     1       7.422  22.735  53.717  1.00  0.00     0.039 A 
HETATM   17  C   UNL     1       7.904  21.938  54.772  1.00  0.00    -0.028 A 
HETATM   18  C   UNL     1       8.067  22.524  56.033  1.00  0.00     0.010 A 
HETATM   19  C   UNL     1       7.735  23.863  56.241  1.00  0.00     0.003 A 
HETATM   20  C   UNL     1       7.239  24.632  55.188  1.00  0.00     0.029 A 
BRANCH  17  21
HETATM   21  C   UNL     1       8.232  20.484  54.509  1.00  0.00     0.147 C 
HETATM   22  C   UNL     1       8.658  20.253  53.064  1.00  0.00     0.044 C 
BRANCH  21  23
HETATM   23  O   UNL     1       9.276  20.036  55.374  1.00  0.00    -0.391 OA
HETATM   24  H   UNL     1       9.630  20.824  55.818  1.00  0.00     0.210 HD
ENDBRANCH  21  23
ENDBRANCH  17  21
ENDBRANCH  12  15
ENDBRANCH   6  11
BRANCH   8  25
HETATM   25  C   UNL     1       2.858  29.608  50.703  1.00  0.00     0.409 C 
HETATM   26  F   UNL     1       2.072  28.553  50.427  1.00  0.00    -0.169 F 
HETATM   27  F   UNL     1       2.718  29.881  52.022  1.00  0.00    -0.169 F 
HETATM   28  F   UNL     1       2.342  30.678  50.044  1.00  0.00    -0.169 F 
ENDBRANCH   8  25
BRANCH   1  29
HETATM   29  C   UNL     1       2.987  28.654  47.289  1.00  0.00    -0.035 A 
HETATM   30  C   UNL     1       2.232  29.761  46.871  1.00  0.00     0.010 A 
HETATM   31  C   UNL     1       0.917  29.613  46.423  1.00  0.00     0.007 A 
HETATM   32  C   UNL     1       0.314  28.353  46.398  1.00  0.00    -0.062 A 
HETATM   33  C   UNL     1      -1.096  28.184  45.914  1.00  0.00     0.048 C 
HETATM   34  C   UNL     1       1.053  27.243  46.812  1.00  0.00     0.007 A 
HETATM   35  C   UNL     1       2.373  27.391  47.253  1.00  0.00     0.010 A 
ENDBRANCH   1  29
TORSDOF 6
ENDMDL
MODEL 4
REMARK VINA RESULT:      -9.8      5.028     11.305
REMARK  6 active torsions:
REMARK  status: ('A' for Active; 'I' for Inactive)
REMARK    1  A    between atoms: C_5  and  C_6 
REMARK    2  A    between atoms: C_11  and  C_12 
REMARK       I    between atoms: C_12  and  N_13 
REMARK    3  A    between atoms: N_13  and  C_14 
REMARK    4  A    between atoms: C_16  and  C_17 
REMARK    5  A    between atoms: C_17  and  O_18 
REMARK    6  A    between atoms: C_25  and  C_26 
ROOT
HETATM    1  C   UNL     1       3.363  34.227  64.169  1.00  0.00     0.118 C 
HETATM    2  N   UNL     1       3.616  33.052  63.341  1.00  0.00    -0.366 N 
HETATM    3  C   UNL     1       4.271  33.140  62.165  1.00  0.00     0.123 A 
HETATM    4  N   UNL     1       4.548  34.342  61.578  1.00  0.00    -0.240 N 
HETATM    5  N   UNL     1       5.147  34.237  60.375  1.00  0.00    -0.165 NA
HETATM    6  C   UNL     1       5.360  32.906  60.247  1.00  0.00     0.148 A 
HETATM    7  C   UNL     1       4.799  32.187  61.335  1.00  0.00     0.089 A 
HETATM    8  C   UNL     1       4.224  35.630  62.161  1.00  0.00     0.221 C 
HETATM    9  C   UNL     1       3.184  35.477  63.288  1.00  0.00     0.066 C 
HETATM   10  H   UNL     1       3.569  32.163  63.838  1.00  0.00     0.161 HD
ENDROOT
BRANCH   6  11
HETATM   11  C   UNL     1       6.100  32.328  59.111  1.00  0.00     0.276 C 
HETATM   12  N   UNL     1       6.977  31.338  59.508  1.00  0.00    -0.322 N 
HETATM   13  H   UNL     1       7.024  31.214  60.517  1.00  0.00     0.169 HD
HETATM   14  O   UNL     1       5.917  32.728  57.966  1.00  0.00    -0.266 OA
BRANCH  12  15
HETATM   15  C   UNL     1       7.777  30.513  58.699  1.00  0.00     0.035 A 
HETATM   16  C   UNL     1       7.312  29.344  58.091  1.00  0.00     0.039 A 
HETATM   17  C   UNL     1       8.162  28.535  57.313  1.00  0.00    -0.028 A 
HETATM   18  C   UNL     1       9.491  28.938  57.135  1.00  0.00     0.010 A 
HETATM   19  C   UNL     1       9.965  30.103  57.738  1.00  0.00     0.003 A 
HETATM   20  C   UNL     1       9.114  30.881  58.524  1.00  0.00     0.029 A 
BRANCH  17  21
HETATM   21  C   UNL     1       7.612  27.268  56.694  1.00  0.00     0.147 C 
HETATM   22  C   UNL     1       8.208  26.020  57.334  1.00  0.00     0.044 C 
BRANCH  21  23
HETATM   23  O   UNL     1       6.191  27.218  56.820  1.00  0.00    -0.391 OA
HETATM   24  H   UNL     1       5.971  27.621  57.676  1.00  0.00     0.210 HD
ENDBRANCH  21  23
ENDBRANCH  17  21
ENDBRANCH  12  15
ENDBRANCH   6  11
BRANCH   8  25
HETATM   25  C   UNL     1       5.487  36.345  62.589  1.00  0.00     0.409 C 
HETATM   26  F   UNL     1       5.951  37.225  61.684  1.00  0.00    -0.169 F 
HETATM   27  F   UNL     1       5.314  37.016  63.752  1.00  0.00    -0.169 F 
HETATM   28  F   UNL     1       6.478  35.445  62.820  1.00  0.00    -0.169 F 
ENDBRANCH   8  25
BRANCH   1  29
HETATM   29  C   UNL     1       4.355  34.371  65.309  1.00  0.00    -0.035 A 
HETATM   30  C   UNL     1       5.608  33.739  65.320  1.00  0.00     0.010 A 
HETATM   31  C   UNL     1       6.480  33.880  66.403  1.00  0.00     0.007 A 
HETATM   32  C   UNL     1       6.114  34.644  67.514  1.00  0.00    -0.062 A 
HETATM   33  C   UNL     1       7.045  34.804  68.678  1.00  0.00     0.048 C 
HETATM   34  C   UNL     1       4.870  35.278  67.516  1.00  0.00     0.007 A 
HETATM   35  C   UNL     1       4.001  35.143  66.428  1.00  0.00     0.010 A 
ENDBRANCH   1  29
TORSDOF 6
ENDMDL
MODEL 5
REMARK VINA RESULT:      -9.7      4.226     11.011
REMARK  6 active torsions:
REMARK  status: ('A' for Active; 'I' for Inactive)
REMARK    1  A    between atoms: C_5  and  C_6 
REMARK    2  A    between atoms: C_11  and  C_12 
REMARK       I    between atoms: C_12  and  N_13 
REMARK    3  A    between atoms: N_13  and  C_14 
REMARK    4  A    between atoms: C_16  and  C_17 
REMARK    5  A    between atoms: C_17  and  O_18 
REMARK    6  A    between atoms: C_25  and  C_26 
ROOT
HETATM    1  C   UNL     1       5.640  34.845  64.796  1.00  0.00     0.118 C 
HETATM    2  N   UNL     1       6.955  34.332  64.426  1.00  0.00    -0.366 N 
HETATM    3  C   UNL     1       7.098  33.249  63.633  1.00  0.00     0.123 A 
HETATM    4  N   UNL     1       6.041  32.447  63.306  1.00  0.00    -0.240 N 
HETATM    5  N   UNL     1       6.380  31.375  62.563  1.00  0.00    -0.165 NA
HETATM    6  C   UNL     1       7.697  31.570  62.315  1.00  0.00     0.148 A 
HETATM    7  C   UNL     1       8.185  32.718  62.994  1.00  0.00     0.089 A 
HETATM    8  C   UNL     1       4.672  32.690  63.719  1.00  0.00     0.221 C 
HETATM    9  C   UNL     1       4.620  33.696  64.886  1.00  0.00     0.066 C 
HETATM   10  H   UNL     1       7.716  35.004  64.520  1.00  0.00     0.161 HD
ENDROOT
BRANCH   6  11
HETATM   11  C   UNL     1       8.476  30.682  61.433  1.00  0.00     0.276 C 
HETATM   12  N   UNL     1       8.013  30.701  60.133  1.00  0.00    -0.322 N 
HETATM   13  H   UNL     1       7.175  31.264  60.005  1.00  0.00     0.169 HD
HETATM   14  O   UNL     1       9.414  30.022  61.867  1.00  0.00    -0.266 OA
BRANCH  12  15
HETATM   15  C   UNL     1       8.557  30.055  59.009  1.00  0.00     0.035 A 
HETATM   16  C   UNL     1       7.950  28.967  58.376  1.00  0.00     0.039 A 
HETATM   17  C   UNL     1       8.550  28.335  57.270  1.00  0.00    -0.028 A 
HETATM   18  C   UNL     1       9.767  28.836  56.793  1.00  0.00     0.010 A 
HETATM   19  C   UNL     1      10.381  29.921  57.418  1.00  0.00     0.003 A 
HETATM   20  C   UNL     1       9.783  30.521  58.526  1.00  0.00     0.029 A 
BRANCH  17  21
HETATM   21  C   UNL     1       7.859  27.147  56.635  1.00  0.00     0.147 C 
HETATM   22  C   UNL     1       8.027  25.883  57.469  1.00  0.00     0.044 C 
BRANCH  21  23
HETATM   23  O   UNL     1       6.466  27.405  56.462  1.00  0.00    -0.391 OA
HETATM   24  H   UNL     1       6.123  26.711  55.874  1.00  0.00     0.210 HD
ENDBRANCH  21  23
ENDBRANCH  17  21
ENDBRANCH  12  15
ENDBRANCH   6  11
BRANCH   8  25
HETATM   25  C   UNL     1       3.828  33.093  62.529  1.00  0.00     0.409 C 
HETATM   26  F   UNL     1       4.442  33.941  61.685  1.00  0.00    -0.169 F 
HETATM   27  F   UNL     1       3.434  32.018  61.806  1.00  0.00    -0.169 F 
HETATM   28  F   UNL     1       2.688  33.699  62.950  1.00  0.00    -0.169 F 
ENDBRANCH   8  25
BRANCH   1  29
HETATM   29  C   UNL     1       5.210  36.033  63.954  1.00  0.00    -0.035 A 
HETATM   30  C   UNL     1       3.875  36.449  63.839  1.00  0.00     0.010 A 
HETATM   31  C   UNL     1       3.521  37.533  63.032  1.00  0.00     0.007 A 
HETATM   32  C   UNL     1       4.494  38.222  62.303  1.00  0.00    -0.062 A 
HETATM   33  C   UNL     1       4.125  39.390  61.438  1.00  0.00     0.048 C 
HETATM   34  C   UNL     1       5.827  37.818  62.407  1.00  0.00     0.007 A 
HETATM   35  C   UNL     1       6.180  36.737  63.222  1.00  0.00     0.010 A 
ENDBRANCH   1  29
TORSDOF 6
ENDMDL
MODEL 6
REMARK VINA RESULT:      -9.6      5.943      8.608
REMARK  6 active torsions:
REMARK  status: ('A' for Active; 'I' for Inactive)
REMARK    1  A    between atoms: C_5  and  C_6 
REMARK    2  A    between atoms: C_11  and  C_12 
REMARK       I    between atoms: C_12  and  N_13 
REMARK    3  A    between atoms: N_13  and  C_14 
REMARK    4  A    between atoms: C_16  and  C_17 
REMARK    5  A    between atoms: C_17  and  O_18 
REMARK    6  A    between atoms: C_25  and  C_26 
ROOT
HETATM    1  C   UNL     1       5.057  25.548  54.268  1.00  0.00     0.118 C 
HETATM    2  N   UNL     1       4.524  25.856  52.944  1.00  0.00    -0.366 N 
HETATM    3  C   UNL     1       4.939  26.932  52.244  1.00  0.00     0.123 A 
HETATM    4  N   UNL     1       5.714  27.906  52.806  1.00  0.00    -0.240 N 
HETATM    5  N   UNL     1       5.977  28.938  51.979  1.00  0.00    -0.165 NA
HETATM    6  C   UNL     1       5.434  28.543  50.803  1.00  0.00     0.148 A 
HETATM    7  C   UNL     1       4.751  27.305  50.940  1.00  0.00     0.089 A 
HETATM    8  C   UNL     1       6.211  27.871  54.168  1.00  0.00     0.221 C 
HETATM    9  C   UNL     1       5.432  26.843  55.011  1.00  0.00     0.066 C 
HETATM   10  H   UNL     1       4.091  25.067  52.466  1.00  0.00     0.161 HD
ENDROOT
BRANCH   6  11
HETATM   11  C   UNL     1       5.575  29.327  49.563  1.00  0.00     0.276 C 
HETATM   12  N   UNL     1       5.448  30.684  49.786  1.00  0.00    -0.322 N 
HETATM   13  H   UNL     1       5.210  30.920  50.747  1.00  0.00     0.169 HD
HETATM   14  O   UNL     1       5.775  28.778  48.485  1.00  0.00    -0.266 OA
BRANCH  12  15
HETATM   15  C   UNL     1       5.609  31.732  48.865  1.00  0.00     0.035 A 
HETATM   16  C   UNL     1       6.718  32.582  48.849  1.00  0.00     0.039 A 
HETATM   17  C   UNL     1       6.819  33.638  47.923  1.00  0.00    -0.028 A 
HETATM   18  C   UNL     1       5.789  33.810  46.990  1.00  0.00     0.010 A 
HETATM   19  C   UNL     1       4.677  32.968  46.998  1.00  0.00     0.003 A 
HETATM   20  C   UNL     1       4.584  31.940  47.937  1.00  0.00     0.029 A 
BRANCH  17  21
HETATM   21  C   UNL     1       8.032  34.542  47.963  1.00  0.00     0.147 C 
HETATM   22  C   UNL     1       8.389  35.073  46.580  1.00  0.00     0.044 C 
BRANCH  21  23
HETATM   23  O   UNL     1       7.811  35.648  48.838  1.00  0.00    -0.391 OA
HETATM   24  H   UNL     1       6.858  35.675  49.021  1.00  0.00     0.210 HD
ENDBRANCH  21  23
ENDBRANCH  17  21
ENDBRANCH  12  15
ENDBRANCH   6  11
BRANCH   8  25
HETATM   25  C   UNL     1       7.709  27.658  54.176  1.00  0.00     0.409 C 
HETATM   26  F   UNL     1       8.155  26.872  53.181  1.00  0.00    -0.169 F 
HETATM   27  F   UNL     1       8.383  28.829  54.098  1.00  0.00    -0.169 F 
HETATM   28  F   UNL     1       8.092  27.083  55.346  1.00  0.00    -0.169 F 
ENDBRANCH   8  25
BRANCH   1  29
HETATM   29  C   UNL     1       6.136  24.480  54.236  1.00  0.00    -0.035 A 
HETATM   30  C   UNL     1       6.756  23.981  55.392  1.00  0.00     0.010 A 
HETATM   31  C   UNL     1       7.763  23.015  55.314  1.00  0.00     0.007 A 
HETATM   32  C   UNL     1       8.188  22.532  54.074  1.00  0.00    -0.062 A 
HETATM   33  C   UNL     1       9.264  21.492  53.981  1.00  0.00     0.048 C 
HETATM   34  C   UNL     1       7.580  23.020  52.915  1.00  0.00     0.007 A 
HETATM   35  C   UNL     1       6.567  23.982  52.995  1.00  0.00     0.010 A 
ENDBRANCH   1  29
TORSDOF 6
ENDMDL
MODEL 7
REMARK VINA RESULT:      -9.6      6.138      9.616
REMARK  6 active torsions:
REMARK  status: ('A' for Active; 'I' for Inactive)
REMARK    1  A    between atoms: C_5  and  C_6 
REMARK    2  A    between atoms: C_11  and  C_12 
REMARK       I    between atoms: C_12  and  N_13 
REMARK    3  A    between atoms: N_13  and  C_14 
REMARK    4  A    between atoms: C_16  and  C_17 
REMARK    5  A    between atoms: C_17  and  O_18 
REMARK    6  A    between atoms: C_25  and  C_26 
ROOT
HETATM    1  C   UNL     1       4.245  29.091  47.674  1.00  0.00     0.118 C 
HETATM    2  N   UNL     1       4.939  27.893  48.137  1.00  0.00    -0.366 N 
HETATM    3  C   UNL     1       5.088  27.623  49.451  1.00  0.00     0.123 A 
HETATM    4  N   UNL     1       4.793  28.542  50.418  1.00  0.00    -0.240 N 
HETATM    5  N   UNL     1       5.067  28.123  51.669  1.00  0.00    -0.165 NA
HETATM    6  C   UNL     1       5.449  26.836  51.492  1.00  0.00     0.148 A 
HETATM    7  C   UNL     1       5.501  26.498  50.114  1.00  0.00     0.089 A 
HETATM    8  C   UNL     1       4.252  29.860  50.153  1.00  0.00     0.221 C 
HETATM    9  C   UNL     1       4.439  30.246  48.673  1.00  0.00     0.066 C 
HETATM   10  H   UNL     1       5.005  27.146  47.447  1.00  0.00     0.161 HD
ENDROOT
BRANCH   6  11
HETATM   11  C   UNL     1       5.746  25.935  52.621  1.00  0.00     0.276 C 
HETATM   12  N   UNL     1       6.893  25.196  52.410  1.00  0.00    -0.322 N 
HETATM   13  H   UNL     1       7.307  25.336  51.492  1.00  0.00     0.169 HD
HETATM   14  O   UNL     1       5.015  25.889  53.605  1.00  0.00    -0.266 OA
BRANCH  12  15
HETATM   15  C   UNL     1       7.526  24.308  53.296  1.00  0.00     0.035 A 
HETATM   16  C   UNL     1       7.819  24.622  54.626  1.00  0.00     0.039 A 
HETATM   17  C   UNL     1       8.482  23.707  55.466  1.00  0.00    -0.028 A 
HETATM   18  C   UNL     1       8.825  22.452  54.949  1.00  0.00     0.010 A 
HETATM   19  C   UNL     1       8.538  22.129  53.623  1.00  0.00     0.003 A 
HETATM   20  C   UNL     1       7.900  23.056  52.799  1.00  0.00     0.029 A 
BRANCH  17  21
HETATM   21  C   UNL     1       8.792  24.105  56.893  1.00  0.00     0.147 C 
HETATM   22  C   UNL     1       8.214  25.473  57.236  1.00  0.00     0.044 C 
BRANCH  21  23
HETATM   23  O   UNL     1       8.276  23.143  57.811  1.00  0.00    -0.391 OA
HETATM   24  H   UNL     1       7.374  23.425  58.037  1.00  0.00     0.210 HD
ENDBRANCH  21  23
ENDBRANCH  17  21
ENDBRANCH  12  15
ENDBRANCH   6  11
BRANCH   8  25
HETATM   25  C   UNL     1       2.816  29.943  50.628  1.00  0.00     0.409 C 
HETATM   26  F   UNL     1       2.060  30.811  49.933  1.00  0.00    -0.169 F 
HETATM   27  F   UNL     1       2.200  28.739  50.576  1.00  0.00    -0.169 F 
HETATM   28  F   UNL     1       2.778  30.327  51.930  1.00  0.00    -0.169 F 
ENDBRANCH   8  25
BRANCH   1  29
HETATM   29  C   UNL     1       2.809  28.820  47.264  1.00  0.00    -0.035 A 
HETATM   30  C   UNL     1       2.245  27.534  47.248  1.00  0.00     0.010 A 
HETATM   31  C   UNL     1       0.925  27.327  46.839  1.00  0.00     0.007 A 
HETATM   32  C   UNL     1       0.137  28.401  46.418  1.00  0.00    -0.062 A 
HETATM   33  C   UNL     1      -1.282  28.189  45.983  1.00  0.00     0.048 C 
HETATM   34  C   UNL     1       0.685  29.686  46.428  1.00  0.00     0.007 A 
HETATM   35  C   UNL     1       2.004  29.892  46.845  1.00  0.00     0.010 A 
ENDBRANCH   1  29
TORSDOF 6
ENDMDL
MODEL 8
REMARK VINA RESULT:      -9.1      6.163      9.052
REMARK  6 active torsions:
REMARK  status: ('A' for Active; 'I' for Inactive)
REMARK    1  A    between atoms: C_5  and  C_6 
REMARK    2  A    between atoms: C_11  and  C_12 
REMARK       I    between atoms: C_12  and  N_13 
REMARK    3  A    between atoms: N_13  and  C_14 
REMARK    4  A    between atoms: C_16  and  C_17 
REMARK    5  A    between atoms: C_17  and  O_18 
REMARK    6  A    between atoms: C_25  and  C_26 
ROOT
HETATM    1  C   UNL     1       5.102  25.442  54.276  1.00  0.00     0.118 C 
HETATM    2  N   UNL     1       4.576  25.711  52.942  1.00  0.00    -0.366 N 
HETATM    3  C   UNL     1       4.961  26.791  52.231  1.00  0.00     0.123 A 
HETATM    4  N   UNL     1       5.694  27.801  52.787  1.00  0.00    -0.240 N 
HETATM    5  N   UNL     1       5.930  28.829  51.949  1.00  0.00    -0.165 NA
HETATM    6  C   UNL     1       5.418  28.398  50.772  1.00  0.00     0.148 A 
HETATM    7  C   UNL     1       4.778  27.138  50.919  1.00  0.00     0.089 A 
HETATM    8  C   UNL     1       6.173  27.804  54.156  1.00  0.00     0.221 C 
HETATM    9  C   UNL     1       5.421  26.760  55.005  1.00  0.00     0.066 C 
HETATM   10  H   UNL     1       4.177  24.900  52.469  1.00  0.00     0.161 HD
ENDROOT
BRANCH   6  11
HETATM   11  C   UNL     1       5.547  29.168  49.522  1.00  0.00     0.276 C 
HETATM   12  N   UNL     1       5.398  30.525  49.728  1.00  0.00    -0.322 N 
HETATM   13  H   UNL     1       5.156  30.770  50.685  1.00  0.00     0.169 HD
HETATM   14  O   UNL     1       5.757  28.608  48.451  1.00  0.00    -0.266 OA
BRANCH  12  15
HETATM   15  C   UNL     1       5.542  31.565  48.793  1.00  0.00     0.035 A 
HETATM   16  C   UNL     1       4.798  31.649  47.613  1.00  0.00     0.039 A 
HETATM   17  C   UNL     1       5.001  32.696  46.693  1.00  0.00    -0.028 A 
HETATM   18  C   UNL     1       5.953  33.677  46.995  1.00  0.00     0.010 A 
HETATM   19  C   UNL     1       6.701  33.601  48.170  1.00  0.00     0.003 A 
HETATM   20  C   UNL     1       6.502  32.545  49.060  1.00  0.00     0.029 A 
BRANCH  17  21
HETATM   21  C   UNL     1       4.183  32.729  45.420  1.00  0.00     0.147 C 
HETATM   22  C   UNL     1       2.710  32.444  45.687  1.00  0.00     0.044 C 
BRANCH  21  23
HETATM   23  O   UNL     1       4.297  33.999  44.778  1.00  0.00    -0.391 OA
HETATM   24  H   UNL     1       3.667  34.594  45.217  1.00  0.00     0.210 HD
ENDBRANCH  21  23
ENDBRANCH  17  21
ENDBRANCH  12  15
ENDBRANCH   6  11
BRANCH   8  25
HETATM   25  C   UNL     1       7.678  27.644  54.186  1.00  0.00     0.409 C 
HETATM   26  F   UNL     1       8.354  28.797  54.039  1.00  0.00    -0.169 F 
HETATM   27  F   UNL     1       8.099  27.073  55.339  1.00  0.00    -0.169 F 
HETATM   28  F   UNL     1       8.079  26.813  53.189  1.00  0.00    -0.169 F 
ENDBRANCH   8  25
BRANCH   1  29
HETATM   29  C   UNL     1       6.218  24.413  54.274  1.00  0.00    -0.035 A 
HETATM   30  C   UNL     1       6.694  23.799  53.104  1.00  0.00     0.010 A 
HETATM   31  C   UNL     1       7.707  22.837  53.152  1.00  0.00     0.007 A 
HETATM   32  C   UNL     1       8.261  22.451  54.375  1.00  0.00    -0.062 A 
HETATM   33  C   UNL     1       9.352  21.424  54.435  1.00  0.00     0.048 C 
HETATM   34  C   UNL     1       7.797  23.054  55.546  1.00  0.00     0.007 A 
HETATM   35  C   UNL     1       6.789  24.022  55.496  1.00  0.00     0.010 A 
ENDBRANCH   1  29
TORSDOF 6
ENDMDL
MODEL 9
REMARK VINA RESULT:      -9.1      5.119      9.925
REMARK  6 active torsions:
REMARK  status: ('A' for Active; 'I' for Inactive)
REMARK    1  A    between atoms: C_5  and  C_6 
REMARK    2  A    between atoms: C_11  and  C_12 
REMARK       I    between atoms: C_12  and  N_13 
REMARK    3  A    between atoms: N_13  and  C_14 
REMARK    4  A    between atoms: C_16  and  C_17 
REMARK    5  A    between atoms: C_17  and  O_18 
REMARK    6  A    between atoms: C_25  and  C_26 
ROOT
HETATM    1  C   UNL     1       7.261  26.888  56.610  1.00  0.00     0.118 C 
HETATM    2  N   UNL     1       7.506  26.532  55.216  1.00  0.00    -0.366 N 
HETATM    3  C   UNL     1       6.649  26.878  54.233  1.00  0.00     0.123 A 
HETATM    4  N   UNL     1       5.410  27.388  54.499  1.00  0.00    -0.240 N 
HETATM    5  N   UNL     1       4.665  27.613  53.398  1.00  0.00    -0.165 NA
HETATM    6  C   UNL     1       5.516  27.336  52.383  1.00  0.00     0.148 A 
HETATM    7  C   UNL     1       6.757  26.846  52.869  1.00  0.00     0.089 A 
HETATM    8  C   UNL     1       4.907  27.658  55.832  1.00  0.00     0.221 C 
HETATM    9  C   UNL     1       5.749  26.928  56.897  1.00  0.00     0.066 C 
HETATM   10  H   UNL     1       8.478  26.313  54.997  1.00  0.00     0.161 HD
ENDROOT
BRANCH   6  11
HETATM   11  C   UNL     1       5.158  27.549  50.969  1.00  0.00     0.276 C 
HETATM   12  N   UNL     1       4.199  26.655  50.534  1.00  0.00    -0.322 N 
HETATM   13  H   UNL     1       3.945  25.956  51.229  1.00  0.00     0.169 HD
HETATM   14  O   UNL     1       5.691  28.431  50.305  1.00  0.00    -0.266 OA
BRANCH  12  15
HETATM   15  C   UNL     1       3.557  26.612  49.285  1.00  0.00     0.035 A 
HETATM   16  C   UNL     1       2.798  27.667  48.770  1.00  0.00     0.039 A 
HETATM   17  C   UNL     1       2.150  27.564  47.524  1.00  0.00    -0.028 A 
HETATM   18  C   UNL     1       2.300  26.383  46.788  1.00  0.00     0.010 A 
HETATM   19  C   UNL     1       3.055  25.324  47.293  1.00  0.00     0.003 A 
HETATM   20  C   UNL     1       3.672  25.436  48.539  1.00  0.00     0.029 A 
BRANCH  17  21
HETATM   21  C   UNL     1       1.324  28.729  47.023  1.00  0.00     0.147 C 
HETATM   22  C   UNL     1       0.025  28.265  46.375  1.00  0.00     0.044 C 
BRANCH  21  23
HETATM   23  O   UNL     1       1.013  29.625  48.090  1.00  0.00    -0.391 OA
HETATM   24  H   UNL     1       0.090  29.454  48.340  1.00  0.00     0.210 HD
ENDBRANCH  21  23
ENDBRANCH  17  21
ENDBRANCH  12  15
ENDBRANCH   6  11
BRANCH   8  25
HETATM   25  C   UNL     1       4.797  29.150  56.060  1.00  0.00     0.409 C 
HETATM   26  F   UNL     1       5.826  29.857  55.562  1.00  0.00    -0.169 F 
HETATM   27  F   UNL     1       3.661  29.657  55.525  1.00  0.00    -0.169 F 
HETATM   28  F   UNL     1       4.733  29.415  57.391  1.00  0.00    -0.169 F 
ENDBRANCH   8  25
BRANCH   1  29
HETATM   29  C   UNL     1       8.040  28.113  57.053  1.00  0.00    -0.035 A 
HETATM   30  C   UNL     1       9.163  28.599  56.365  1.00  0.00     0.010 A 
HETATM   31  C   UNL     1       9.865  29.716  56.823  1.00  0.00     0.007 A 
HETATM   32  C   UNL     1       9.473  30.370  57.994  1.00  0.00    -0.062 A 
HETATM   33  C   UNL     1      10.218  31.573  58.490  1.00  0.00     0.048 C 
HETATM   34  C   UNL     1       8.358  29.897  58.689  1.00  0.00     0.007 A 
HETATM   35  C   UNL     1       7.651  28.782  58.225  1.00  0.00     0.010 A 
ENDBRANCH   1  29
TORSDOF 6
ENDMDL
MODEL 10
REMARK VINA RESULT:      -8.6      6.996     10.218
REMARK  6 active torsions:
REMARK  status: ('A' for Active; 'I' for Inactive)
REMARK    1  A    between atoms: C_5  and  C_6 
REMARK    2  A    between atoms: C_11  and  C_12 
REMARK       I    between atoms: C_12  and  N_13 
REMARK    3  A    between atoms: N_13  and  C_14 
REMARK    4  A    between atoms: C_16  and  C_17 
REMARK    5  A    between atoms: C_17  and  O_18 
REMARK    6  A    between atoms: C_25  and  C_26 
ROOT
HETATM    1  C   UNL     1       4.076  32.291  49.676  1.00  0.00     0.118 C 
HETATM    2  N   UNL     1       4.691  31.477  50.720  1.00  0.00    -0.366 N 
HETATM    3  C   UNL     1       4.659  30.129  50.681  1.00  0.00     0.123 A 
HETATM    4  N   UNL     1       3.878  29.449  49.791  1.00  0.00    -0.240 N 
HETATM    5  N   UNL     1       3.920  28.110  49.941  1.00  0.00    -0.165 NA
HETATM    6  C   UNL     1       4.859  27.931  50.899  1.00  0.00     0.148 A 
HETATM    7  C   UNL     1       5.322  29.175  51.405  1.00  0.00     0.089 A 
HETATM    8  C   UNL     1       3.054  30.080  48.778  1.00  0.00     0.221 C 
HETATM    9  C   UNL     1       2.845  31.575  49.091  1.00  0.00     0.066 C 
HETATM   10  H   UNL     1       5.399  31.959  51.274  1.00  0.00     0.161 HD
ENDROOT
BRANCH   6  11
HETATM   11  C   UNL     1       5.320  26.595  51.317  1.00  0.00     0.276 C 
HETATM   12  N   UNL     1       6.274  26.660  52.313  1.00  0.00    -0.322 N 
HETATM   13  H   UNL     1       6.556  27.609  52.549  1.00  0.00     0.169 HD
HETATM   14  O   UNL     1       4.873  25.579  50.797  1.00  0.00    -0.266 OA
BRANCH  12  15
HETATM   15  C   UNL     1       6.872  25.598  53.012  1.00  0.00     0.035 A 
HETATM   16  C   UNL     1       6.803  25.452  54.400  1.00  0.00     0.039 A 
HETATM   17  C   UNL     1       7.444  24.384  55.057  1.00  0.00    -0.028 A 
HETATM   18  C   UNL     1       8.140  23.445  54.285  1.00  0.00     0.010 A 
HETATM   19  C   UNL     1       8.215  23.582  52.899  1.00  0.00     0.003 A 
HETATM   20  C   UNL     1       7.591  24.659  52.268  1.00  0.00     0.029 A 
BRANCH  17  21
HETATM   21  C   UNL     1       7.355  24.284  56.564  1.00  0.00     0.147 C 
HETATM   22  C   UNL     1       8.651  24.718  57.238  1.00  0.00     0.044 C 
BRANCH  21  23
HETATM   23  O   UNL     1       6.286  25.087  57.062  1.00  0.00    -0.391 OA
HETATM   24  H   UNL     1       5.492  24.527  57.065  1.00  0.00     0.210 HD
ENDBRANCH  21  23
ENDBRANCH  17  21
ENDBRANCH  12  15
ENDBRANCH   6  11
BRANCH   8  25
HETATM   25  C   UNL     1       3.624  29.820  47.400  1.00  0.00     0.409 C 
HETATM   26  F   UNL     1       4.966  29.883  47.342  1.00  0.00    -0.169 F 
HETATM   27  F   UNL     1       3.256  28.606  46.926  1.00  0.00    -0.169 F 
HETATM   28  F   UNL     1       3.139  30.729  46.515  1.00  0.00    -0.169 F 
ENDBRANCH   8  25
BRANCH   1  29
HETATM   29  C   UNL     1       5.078  32.801  48.657  1.00  0.00    -0.035 A 
HETATM   30  C   UNL     1       6.465  32.800  48.877  1.00  0.00     0.010 A 
HETATM   31  C   UNL     1       7.350  33.302  47.920  1.00  0.00     0.007 A 
HETATM   32  C   UNL     1       6.871  33.835  46.721  1.00  0.00    -0.062 A 
HETATM   33  C   UNL     1       7.814  34.371  45.685  1.00  0.00     0.048 C 
HETATM   34  C   UNL     1       5.493  33.842  46.488  1.00  0.00     0.007 A 
HETATM   35  C   UNL     1       4.609  33.332  47.444  1.00  0.00     0.010 A 
ENDBRANCH   1  29
TORSDOF 6
ENDMDL
