MODEL 1
REMARK VINA RESULT:      -9.2      0.000      0.000
REMARK  6 active torsions:
REMARK  status: ('A' for Active; 'I' for Inactive)
REMARK    1  A    between atoms: C_8  and  C_9 
REMARK    2  A    between atoms: C_9  and  C_10 
REMARK       I    between atoms: C_10  and  N_11 
REMARK    3  A    between atoms: N_11  and  C_12 
REMARK    4  A    between atoms: C_12  and  C_13 
REMARK    5  A    between atoms: C_13  and  N_14 
REMARK    6  A    between atoms: C_13  and  C_20 
ROOT
HETATM    1  C   UNL     1       7.562  25.583  55.822  1.00  0.00     0.160 C 
ENDROOT
BRANCH   1   2
HETATM    2  N   UNL     1       7.918  26.975  56.102  1.00  0.00    -0.358 N 
HETATM    3  C   UNL     1       8.104  27.500  57.365  1.00  0.00     0.226 C 
HETATM    4  O   UNL     1       7.784  26.865  58.371  1.00  0.00    -0.273 OA
HETATM    5  H   UNL     1       8.407  27.464  55.355  1.00  0.00     0.162 HD
BRANCH   3   6
HETATM    6  C   UNL     1       8.706  28.912  57.389  1.00  0.00     0.111 C 
HETATM    7  C   UNL     1       9.110  29.374  55.992  1.00  0.00     0.025 C 
BRANCH   6   8
HETATM    8  C   UNL     1       7.758  29.871  58.056  1.00  0.00     0.004 A 
HETATM    9  C   UNL     1       6.455  30.200  57.706  1.00  0.00     0.033 A 
HETATM   10  C   UNL     1       5.572  29.766  56.598  1.00  0.00     0.070 C 
HETATM   11  N   UNL     1       6.038  31.117  58.632  1.00  0.00    -0.282 N 
HETATM   12  H   UNL     1       5.147  31.601  58.685  1.00  0.00     0.189 HD
HETATM   13  N   UNL     1       6.947  31.369  59.579  1.00  0.00    -0.179 NA
HETATM   14  C   UNL     1       8.016  30.658  59.216  1.00  0.00     0.060 A 
HETATM   15  C   UNL     1       9.265  30.748  60.017  1.00  0.00     0.073 C 
ENDBRANCH   6   8
ENDBRANCH   3   6
ENDBRANCH   1   2
BRANCH   1  16
HETATM   16  C   UNL     1       7.583  25.129  54.321  1.00  0.00     0.238 C 
BRANCH  16  17
HETATM   17  N   UNL     1       6.394  25.708  53.561  1.00  0.00    -0.061 N 
HETATM   18  H   UNL     1       6.219  26.613  54.048  1.00  0.00     0.280 HD
HETATM   19  C   UNL     1       5.073  24.979  53.608  1.00  0.00     0.236 C 
HETATM   20  C   UNL     1       4.764  24.670  52.158  1.00  0.00     0.029 C 
HETATM   21  C   UNL     1       5.324  25.874  51.429  1.00  0.00     0.029 C 
HETATM   22  C   UNL     1       6.652  26.102  52.125  1.00  0.00     0.236 C 
ENDBRANCH  16  17
BRANCH  16  23
HETATM   23  C   UNL     1       7.735  23.620  54.155  1.00  0.00    -0.024 A 
HETATM   24  C   UNL     1       7.630  22.728  55.237  1.00  0.00     0.033 A 
HETATM   25  C   UNL     1       7.740  21.349  55.039  1.00  0.00     0.034 A 
HETATM   26 CL   UNL     1       7.587  20.289  56.383  1.00  0.00    -0.084 Cl
HETATM   27  C   UNL     1       7.966  20.832  53.768  1.00  0.00     0.024 A 
HETATM   28  C   UNL     1       8.093  21.700  52.687  1.00  0.00     0.002 A 
HETATM   29  C   UNL     1       7.983  23.080  52.879  1.00  0.00     0.009 A 
ENDBRANCH  16  23
ENDBRANCH   1  16
TORSDOF 6
ENDMDL
MODEL 2
REMARK VINA RESULT:      -8.6      3.177      6.783
REMARK  6 active torsions:
REMARK  status: ('A' for Active; 'I' for Inactive)
REMARK    1  A    between atoms: C_8  and  C_9 
REMARK    2  A    between atoms: C_9  and  C_10 
REMARK       I    between atoms: C_10  and  N_11 
REMARK    3  A    between atoms: N_11  and  C_12 
REMARK    4  A    between atoms: C_12  and  C_13 
REMARK    5  A    between atoms: C_13  and  N_14 
REMARK    6  A    between atoms: C_13  and  C_20 
ROOT
HETATM    1  C   UNL     1       6.676  25.241  52.649  1.00  0.00     0.160 C 
ENDROOT
BRANCH   1   2
HETATM    2  N   UNL     1       5.516  25.803  51.955  1.00  0.00    -0.358 N 
HETATM    3  C   UNL     1       5.298  27.151  51.754  1.00  0.00     0.226 C 
HETATM    4  O   UNL     1       5.982  27.998  52.329  1.00  0.00    -0.273 OA
HETATM    5  H   UNL     1       5.062  25.187  51.283  1.00  0.00     0.162 HD
BRANCH   3   6
HETATM    6  C   UNL     1       4.144  27.477  50.796  1.00  0.00     0.111 C 
HETATM    7  C   UNL     1       3.445  28.779  51.180  1.00  0.00     0.025 C 
BRANCH   6   8
HETATM    8  C   UNL     1       4.635  27.490  49.374  1.00  0.00     0.004 A 
HETATM    9  C   UNL     1       5.444  28.421  48.736  1.00  0.00     0.033 A 
HETATM   10  C   UNL     1       6.074  29.684  49.189  1.00  0.00     0.070 C 
HETATM   11  N   UNL     1       5.594  27.971  47.452  1.00  0.00    -0.282 N 
HETATM   12  H   UNL     1       6.102  28.403  46.686  1.00  0.00     0.189 HD
HETATM   13  N   UNL     1       4.989  26.802  47.224  1.00  0.00    -0.179 NA
HETATM   14  C   UNL     1       4.359  26.520  48.367  1.00  0.00     0.060 A 
HETATM   15  C   UNL     1       3.515  25.301  48.459  1.00  0.00     0.073 C 
ENDBRANCH   6   8
ENDBRANCH   3   6
ENDBRANCH   1   2
BRANCH   1  16
HETATM   16  C   UNL     1       6.403  24.484  53.996  1.00  0.00     0.238 C 
BRANCH  16  17
HETATM   17  N   UNL     1       6.585  25.416  55.190  1.00  0.00    -0.061 N 
HETATM   18  H   UNL     1       7.074  24.816  55.887  1.00  0.00     0.280 HD
HETATM   19  C   UNL     1       5.361  25.930  55.907  1.00  0.00     0.236 C 
HETATM   20  C   UNL     1       5.465  27.437  55.796  1.00  0.00     0.029 C 
HETATM   21  C   UNL     1       6.959  27.678  55.869  1.00  0.00     0.029 C 
HETATM   22  C   UNL     1       7.522  26.584  54.983  1.00  0.00     0.236 C 
ENDBRANCH  16  17
BRANCH  16  23
HETATM   23  C   UNL     1       7.185  23.180  54.117  1.00  0.00    -0.024 A 
HETATM   24  C   UNL     1       7.515  22.611  55.360  1.00  0.00     0.033 A 
HETATM   25  C   UNL     1       8.202  21.396  55.429  1.00  0.00     0.034 A 
HETATM   26 CL   UNL     1       8.570  20.722  56.967  1.00  0.00    -0.084 Cl
HETATM   27  C   UNL     1       8.583  20.730  54.270  1.00  0.00     0.024 A 
HETATM   28  C   UNL     1       8.284  21.287  53.029  1.00  0.00     0.002 A 
HETATM   29  C   UNL     1       7.596  22.502  52.954  1.00  0.00     0.009 A 
ENDBRANCH  16  23
ENDBRANCH   1  16
TORSDOF 6
ENDMDL
MODEL 3
REMARK VINA RESULT:      -8.6      1.042      2.279
REMARK  6 active torsions:
REMARK  status: ('A' for Active; 'I' for Inactive)
REMARK    1  A    between atoms: C_8  and  C_9 
REMARK    2  A    between atoms: C_9  and  C_10 
REMARK       I    between atoms: C_10  and  N_11 
REMARK    3  A    between atoms: N_11  and  C_12 
REMARK    4  A    between atoms: C_12  and  C_13 
REMARK    5  A    between atoms: C_13  and  N_14 
REMARK    6  A    between atoms: C_13  and  C_20 
ROOT
HETATM    1  C   UNL     1       6.951  25.601  55.876  1.00  0.00     0.160 C 
ENDROOT
BRANCH   1   2
HETATM    2  N   UNL     1       7.399  26.973  56.122  1.00  0.00    -0.358 N 
HETATM    3  C   UNL     1       7.906  27.431  57.322  1.00  0.00     0.226 C 
HETATM    4  O   UNL     1       7.831  26.749  58.344  1.00  0.00    -0.273 OA
HETATM    5  H   UNL     1       7.697  27.495  55.300  1.00  0.00     0.162 HD
BRANCH   3   6
HETATM    6  C   UNL     1       8.527  28.833  57.260  1.00  0.00     0.111 C 
HETATM    7  C   UNL     1       8.875  29.231  55.828  1.00  0.00     0.025 C 
BRANCH   6   8
HETATM    8  C   UNL     1       7.624  29.833  57.928  1.00  0.00     0.004 A 
HETATM    9  C   UNL     1       7.795  30.499  59.134  1.00  0.00     0.033 A 
HETATM   10  C   UNL     1       8.863  30.460  60.161  1.00  0.00     0.070 C 
HETATM   11  N   UNL     1       6.691  31.294  59.284  1.00  0.00    -0.282 N 
HETATM   12  H   UNL     1       6.456  31.909  60.057  1.00  0.00     0.189 HD
HETATM   13  N   UNL     1       5.846  31.232  58.250  1.00  0.00    -0.179 NA
HETATM   14  C   UNL     1       6.373  30.311  57.440  1.00  0.00     0.060 A 
HETATM   15  C   UNL     1       5.653  29.929  56.198  1.00  0.00     0.073 C 
ENDBRANCH   6   8
ENDBRANCH   3   6
ENDBRANCH   1   2
BRANCH   1  16
HETATM   16  C   UNL     1       7.492  24.895  54.584  1.00  0.00     0.238 C 
BRANCH  16  17
HETATM   17  N   UNL     1       6.586  25.178  53.390  1.00  0.00    -0.061 N 
HETATM   18  H   UNL     1       6.544  24.259  52.900  1.00  0.00     0.280 HD
HETATM   19  C   UNL     1       7.047  26.159  52.340  1.00  0.00     0.236 C 
HETATM   20  C   UNL     1       5.975  27.228  52.327  1.00  0.00     0.029 C 
HETATM   21  C   UNL     1       4.711  26.442  52.610  1.00  0.00     0.029 C 
HETATM   22  C   UNL     1       5.143  25.494  53.712  1.00  0.00     0.236 C 
ENDBRANCH  16  17
BRANCH  16  23
HETATM   23  C   UNL     1       7.781  23.411  54.790  1.00  0.00    -0.024 A 
HETATM   24  C   UNL     1       7.934  22.516  53.716  1.00  0.00     0.033 A 
HETATM   25  C   UNL     1       8.233  21.171  53.946  1.00  0.00     0.034 A 
HETATM   26 CL   UNL     1       8.432  20.111  52.607  1.00  0.00    -0.084 Cl
HETATM   27  C   UNL     1       8.376  20.687  55.241  1.00  0.00     0.024 A 
HETATM   28  C   UNL     1       8.209  21.553  56.319  1.00  0.00     0.002 A 
HETATM   29  C   UNL     1       7.910  22.901  56.095  1.00  0.00     0.009 A 
ENDBRANCH  16  23
ENDBRANCH   1  16
TORSDOF 6
ENDMDL
MODEL 4
REMARK VINA RESULT:      -8.2      3.205      7.782
REMARK  6 active torsions:
REMARK  status: ('A' for Active; 'I' for Inactive)
REMARK    1  A    between atoms: C_8  and  C_9 
REMARK    2  A    between atoms: C_9  and  C_10 
REMARK       I    between atoms: C_10  and  N_11 
REMARK    3  A    between atoms: N_11  and  C_12 
REMARK    4  A    between atoms: C_12  and  C_13 
REMARK    5  A    between atoms: C_13  and  N_14 
REMARK    6  A    between atoms: C_13  and  C_20 
ROOT
HETATM    1  C   UNL     1       8.057  28.012  55.919  1.00  0.00     0.160 C 
ENDROOT
BRANCH   1   2
HETATM    2  N   UNL     1       7.535  26.694  55.555  1.00  0.00    -0.358 N 
HETATM    3  C   UNL     1       7.783  25.530  56.255  1.00  0.00     0.226 C 
HETATM    4  O   UNL     1       8.637  25.491  57.141  1.00  0.00    -0.273 OA
HETATM    5  H   UNL     1       6.677  26.694  55.007  1.00  0.00     0.162 HD
BRANCH   3   6
HETATM    6  C   UNL     1       6.934  24.328  55.818  1.00  0.00     0.111 C 
HETATM    7  C   UNL     1       5.699  24.767  55.036  1.00  0.00     0.025 C 
BRANCH   6   8
HETATM    8  C   UNL     1       7.778  23.346  55.050  1.00  0.00     0.004 A 
HETATM    9  C   UNL     1       8.171  23.384  53.719  1.00  0.00     0.033 A 
HETATM   10  C   UNL     1       7.907  24.341  52.619  1.00  0.00     0.070 C 
HETATM   11  N   UNL     1       8.924  22.259  53.519  1.00  0.00    -0.282 N 
HETATM   12  H   UNL     1       9.363  21.937  52.661  1.00  0.00     0.189 HD
HETATM   13  N   UNL     1       9.089  21.525  54.623  1.00  0.00    -0.179 NA
HETATM   14  C   UNL     1       8.358  22.145  55.551  1.00  0.00     0.060 A 
HETATM   15  C   UNL     1       8.253  21.562  56.914  1.00  0.00     0.073 C 
ENDBRANCH   6   8
ENDBRANCH   3   6
ENDBRANCH   1   2
BRANCH   1  16
HETATM   16  C   UNL     1       7.517  28.651  57.246  1.00  0.00     0.238 C 
BRANCH  16  17
HETATM   17  N   UNL     1       6.063  29.085  57.089  1.00  0.00    -0.061 N 
HETATM   18  H   UNL     1       5.888  29.645  57.950  1.00  0.00     0.280 HD
HETATM   19  C   UNL     1       4.983  28.031  57.082  1.00  0.00     0.236 C 
HETATM   20  C   UNL     1       4.294  28.207  55.746  1.00  0.00     0.029 C 
HETATM   21  C   UNL     1       4.363  29.704  55.525  1.00  0.00     0.029 C 
HETATM   22  C   UNL     1       5.777  30.045  55.957  1.00  0.00     0.236 C 
ENDBRANCH  16  17
BRANCH  16  23
HETATM   23  C   UNL     1       8.424  29.749  57.793  1.00  0.00    -0.024 A 
HETATM   24  C   UNL     1       8.026  30.609  58.832  1.00  0.00     0.033 A 
HETATM   25  C   UNL     1       8.899  31.580  59.329  1.00  0.00     0.034 A 
HETATM   26 CL   UNL     1       8.383  32.600  60.613  1.00  0.00    -0.084 Cl
HETATM   27  C   UNL     1      10.177  31.722  58.800  1.00  0.00     0.024 A 
HETATM   28  C   UNL     1      10.583  30.893  57.758  1.00  0.00     0.002 A 
HETATM   29  C   UNL     1       9.714  29.920  57.257  1.00  0.00     0.009 A 
ENDBRANCH  16  23
ENDBRANCH   1  16
TORSDOF 6
ENDMDL
MODEL 5
REMARK VINA RESULT:      -8.2      3.435      6.917
REMARK  6 active torsions:
REMARK  status: ('A' for Active; 'I' for Inactive)
REMARK    1  A    between atoms: C_8  and  C_9 
REMARK    2  A    between atoms: C_9  and  C_10 
REMARK       I    between atoms: C_10  and  N_11 
REMARK    3  A    between atoms: N_11  and  C_12 
REMARK    4  A    between atoms: C_12  and  C_13 
REMARK    5  A    between atoms: C_13  and  N_14 
REMARK    6  A    between atoms: C_13  and  C_20 
ROOT
HETATM    1  C   UNL     1       4.578  25.272  52.794  1.00  0.00     0.160 C 
ENDROOT
BRANCH   1   2
HETATM    2  N   UNL     1       4.293  26.572  52.185  1.00  0.00    -0.358 N 
HETATM    3  C   UNL     1       5.120  27.218  51.287  1.00  0.00     0.226 C 
HETATM    4  O   UNL     1       6.268  26.823  51.084  1.00  0.00    -0.273 OA
HETATM    5  H   UNL     1       3.309  26.827  52.126  1.00  0.00     0.162 HD
BRANCH   3   6
HETATM    6  C   UNL     1       4.495  28.446  50.611  1.00  0.00     0.111 C 
HETATM    7  C   UNL     1       5.558  29.341  49.979  1.00  0.00     0.025 C 
BRANCH   6   8
HETATM    8  C   UNL     1       3.447  28.017  49.620  1.00  0.00     0.004 A 
HETATM    9  C   UNL     1       3.568  27.164  48.532  1.00  0.00     0.033 A 
HETATM   10  C   UNL     1       4.713  26.414  47.964  1.00  0.00     0.070 C 
HETATM   11  N   UNL     1       2.326  27.109  47.959  1.00  0.00    -0.282 N 
HETATM   12  H   UNL     1       2.036  26.601  47.128  1.00  0.00     0.189 HD
HETATM   13  N   UNL     1       1.404  27.817  48.617  1.00  0.00    -0.179 NA
HETATM   14  C   UNL     1       2.079  28.416  49.600  1.00  0.00     0.060 A 
HETATM   15  C   UNL     1       1.371  29.353  50.511  1.00  0.00     0.073 C 
ENDBRANCH   6   8
ENDBRANCH   3   6
ENDBRANCH   1   2
BRANCH   1  16
HETATM   16  C   UNL     1       5.379  25.275  54.142  1.00  0.00     0.238 C 
BRANCH  16  17
HETATM   17  N   UNL     1       5.848  26.684  54.492  1.00  0.00    -0.061 N 
HETATM   18  H   UNL     1       5.416  27.270  53.746  1.00  0.00     0.280 HD
HETATM   19  C   UNL     1       7.323  26.999  54.431  1.00  0.00     0.236 C 
HETATM   20  C   UNL     1       7.669  27.451  55.834  1.00  0.00     0.029 C 
HETATM   21  C   UNL     1       6.413  28.174  56.275  1.00  0.00     0.029 C 
HETATM   22  C   UNL     1       5.306  27.263  55.779  1.00  0.00     0.236 C 
ENDBRANCH  16  17
BRANCH  16  23
HETATM   23  C   UNL     1       6.495  24.236  54.176  1.00  0.00    -0.024 A 
HETATM   24  C   UNL     1       6.939  23.645  55.373  1.00  0.00     0.033 A 
HETATM   25  C   UNL     1       7.940  22.671  55.359  1.00  0.00     0.034 A 
HETATM   26 CL   UNL     1       8.443  21.957  56.840  1.00  0.00    -0.084 Cl
HETATM   27  C   UNL     1       8.525  22.272  54.162  1.00  0.00     0.024 A 
HETATM   28  C   UNL     1       8.113  22.859  52.969  1.00  0.00     0.002 A 
HETATM   29  C   UNL     1       7.112  23.835  52.977  1.00  0.00     0.009 A 
ENDBRANCH  16  23
ENDBRANCH   1  16
TORSDOF 6
ENDMDL
MODEL 6
REMARK VINA RESULT:      -8.0      3.499      6.420
REMARK  6 active torsions:
REMARK  status: ('A' for Active; 'I' for Inactive)
REMARK    1  A    between atoms: C_8  and  C_9 
REMARK    2  A    between atoms: C_9  and  C_10 
REMARK       I    between atoms: C_10  and  N_11 
REMARK    3  A    between atoms: N_11  and  C_12 
REMARK    4  A    between atoms: C_12  and  C_13 
REMARK    5  A    between atoms: C_13  and  N_14 
REMARK    6  A    between atoms: C_13  and  C_20 
ROOT
HETATM    1  C   UNL     1       4.677  25.433  52.967  1.00  0.00     0.160 C 
ENDROOT
BRANCH   1   2
HETATM    2  N   UNL     1       4.862  26.741  52.335  1.00  0.00    -0.358 N 
HETATM    3  C   UNL     1       5.002  26.945  50.977  1.00  0.00     0.226 C 
HETATM    4  O   UNL     1       5.179  26.000  50.207  1.00  0.00    -0.273 OA
HETATM    5  H   UNL     1       4.504  27.538  52.857  1.00  0.00     0.162 HD
BRANCH   3   6
HETATM    6  C   UNL     1       4.940  28.415  50.541  1.00  0.00     0.111 C 
HETATM    7  C   UNL     1       5.597  28.625  49.179  1.00  0.00     0.025 C 
BRANCH   6   8
HETATM    8  C   UNL     1       3.519  28.909  50.572  1.00  0.00     0.004 A 
HETATM    9  C   UNL     1       2.921  29.797  51.456  1.00  0.00     0.033 A 
HETATM   10  C   UNL     1       3.426  30.532  52.639  1.00  0.00     0.070 C 
HETATM   11  N   UNL     1       1.619  29.909  51.050  1.00  0.00    -0.282 N 
HETATM   12  H   UNL     1       0.871  30.454  51.470  1.00  0.00     0.189 HD
HETATM   13  N   UNL     1       1.342  29.205  49.949  1.00  0.00    -0.179 NA
HETATM   14  C   UNL     1       2.472  28.552  49.674  1.00  0.00     0.060 A 
HETATM   15  C   UNL     1       2.513  27.604  48.530  1.00  0.00     0.073 C 
ENDBRANCH   6   8
ENDBRANCH   3   6
ENDBRANCH   1   2
BRANCH   1  16
HETATM   16  C   UNL     1       5.409  25.191  54.333  1.00  0.00     0.238 C 
BRANCH  16  17
HETATM   17  N   UNL     1       5.848  26.513  54.955  1.00  0.00    -0.061 N 
HETATM   18  H   UNL     1       5.362  27.224  54.369  1.00  0.00     0.280 HD
HETATM   19  C   UNL     1       7.307  26.895  54.903  1.00  0.00     0.236 C 
HETATM   20  C   UNL     1       7.706  27.054  56.355  1.00  0.00     0.029 C 
HETATM   21  C   UNL     1       6.451  27.615  56.990  1.00  0.00     0.029 C 
HETATM   22  C   UNL     1       5.351  26.784  56.357  1.00  0.00     0.236 C 
ENDBRANCH  16  17
BRANCH  16  23
HETATM   23  C   UNL     1       6.530  24.161  54.236  1.00  0.00    -0.024 A 
HETATM   24  C   UNL     1       7.006  23.457  55.356  1.00  0.00     0.033 A 
HETATM   25  C   UNL     1       8.010  22.495  55.221  1.00  0.00     0.034 A 
HETATM   26 CL   UNL     1       8.552  21.640  56.611  1.00  0.00    -0.084 Cl
HETATM   27  C   UNL     1       8.568  22.222  53.977  1.00  0.00     0.024 A 
HETATM   28  C   UNL     1       8.124  22.924  52.858  1.00  0.00     0.002 A 
HETATM   29  C   UNL     1       7.119  23.886  52.988  1.00  0.00     0.009 A 
ENDBRANCH  16  23
ENDBRANCH   1  16
TORSDOF 6
ENDMDL
MODEL 7
REMARK VINA RESULT:      -8.0      3.582      7.286
REMARK  6 active torsions:
REMARK  status: ('A' for Active; 'I' for Inactive)
REMARK    1  A    between atoms: C_8  and  C_9 
REMARK    2  A    between atoms: C_9  and  C_10 
REMARK       I    between atoms: C_10  and  N_11 
REMARK    3  A    between atoms: N_11  and  C_12 
REMARK    4  A    between atoms: C_12  and  C_13 
REMARK    5  A    between atoms: C_13  and  N_14 
REMARK    6  A    between atoms: C_13  and  C_20 
ROOT
HETATM    1  C   UNL     1       4.578  25.742  53.045  1.00  0.00     0.160 C 
ENDROOT
BRANCH   1   2
HETATM    2  N   UNL     1       4.405  26.881  52.141  1.00  0.00    -0.358 N 
HETATM    3  C   UNL     1       5.071  27.042  50.943  1.00  0.00     0.226 C 
HETATM    4  O   UNL     1       6.021  26.319  50.642  1.00  0.00    -0.273 OA
HETATM    5  H   UNL     1       3.511  27.365  52.207  1.00  0.00     0.162 HD
BRANCH   3   6
HETATM    6  C   UNL     1       4.545  28.187  50.067  1.00  0.00     0.111 C 
HETATM    7  C   UNL     1       5.603  28.669  49.078  1.00  0.00     0.025 C 
BRANCH   6   8
HETATM    8  C   UNL     1       3.269  27.776  49.383  1.00  0.00     0.004 A 
HETATM    9  C   UNL     1       1.980  28.254  49.575  1.00  0.00     0.033 A 
HETATM   10  C   UNL     1       1.412  29.277  50.484  1.00  0.00     0.070 C 
HETATM   11  N   UNL     1       1.187  27.551  48.709  1.00  0.00    -0.282 N 
HETATM   12  H   UNL     1       0.181  27.613  48.583  1.00  0.00     0.189 HD
HETATM   13  N   UNL     1       1.865  26.695  47.941  1.00  0.00    -0.179 NA
HETATM   14  C   UNL     1       3.125  26.782  48.373  1.00  0.00     0.060 A 
HETATM   15  C   UNL     1       4.167  25.905  47.777  1.00  0.00     0.073 C 
ENDBRANCH   6   8
ENDBRANCH   3   6
ENDBRANCH   1   2
BRANCH   1  16
HETATM   16  C   UNL     1       5.318  26.013  54.401  1.00  0.00     0.238 C 
BRANCH  16  17
HETATM   17  N   UNL     1       5.950  27.401  54.406  1.00  0.00    -0.061 N 
HETATM   18  H   UNL     1       5.469  27.885  53.618  1.00  0.00     0.280 HD
HETATM   19  C   UNL     1       7.423  27.534  54.104  1.00  0.00     0.236 C 
HETATM   20  C   UNL     1       8.002  28.194  55.338  1.00  0.00     0.029 C 
HETATM   21  C   UNL     1       6.887  29.121  55.778  1.00  0.00     0.029 C 
HETATM   22  C   UNL     1       5.648  28.263  55.610  1.00  0.00     0.236 C 
ENDBRANCH  16  17
BRANCH  16  23
HETATM   23  C   UNL     1       6.288  24.901  54.785  1.00  0.00    -0.024 A 
HETATM   24  C   UNL     1       6.749  23.948  53.858  1.00  0.00     0.033 A 
HETATM   25  C   UNL     1       7.665  22.966  54.240  1.00  0.00     0.034 A 
HETATM   26 CL   UNL     1       8.221  21.831  53.074  1.00  0.00    -0.084 Cl
HETATM   27  C   UNL     1       8.133  22.903  55.548  1.00  0.00     0.024 A 
HETATM   28  C   UNL     1       7.674  23.824  56.486  1.00  0.00     0.002 A 
HETATM   29  C   UNL     1       6.757  24.810  56.109  1.00  0.00     0.009 A 
ENDBRANCH  16  23
ENDBRANCH   1  16
TORSDOF 6
ENDMDL
MODEL 8
REMARK VINA RESULT:      -7.8      4.037      7.895
REMARK  6 active torsions:
REMARK  status: ('A' for Active; 'I' for Inactive)
REMARK    1  A    between atoms: C_8  and  C_9 
REMARK    2  A    between atoms: C_9  and  C_10 
REMARK       I    between atoms: C_10  and  N_11 
REMARK    3  A    between atoms: N_11  and  C_12 
REMARK    4  A    between atoms: C_12  and  C_13 
REMARK    5  A    between atoms: C_13  and  N_14 
REMARK    6  A    between atoms: C_13  and  C_20 
ROOT
HETATM    1  C   UNL     1       4.623  27.419  53.156  1.00  0.00     0.160 C 
ENDROOT
BRANCH   1   2
HETATM    2  N   UNL     1       3.889  27.507  51.893  1.00  0.00    -0.358 N 
HETATM    3  C   UNL     1       3.375  28.672  51.361  1.00  0.00     0.226 C 
HETATM    4  O   UNL     1       3.329  29.707  52.026  1.00  0.00    -0.273 OA
HETATM    5  H   UNL     1       4.090  26.774  51.214  1.00  0.00     0.162 HD
BRANCH   3   6
HETATM    6  C   UNL     1       2.863  28.547  49.920  1.00  0.00     0.111 C 
HETATM    7  C   UNL     1       2.242  29.852  49.428  1.00  0.00     0.025 C 
BRANCH   6   8
HETATM    8  C   UNL     1       3.965  28.063  49.016  1.00  0.00     0.004 A 
HETATM    9  C   UNL     1       5.214  28.621  48.782  1.00  0.00     0.033 A 
HETATM   10  C   UNL     1       5.882  29.841  49.294  1.00  0.00     0.070 C 
HETATM   11  N   UNL     1       5.830  27.797  47.880  1.00  0.00    -0.282 N 
HETATM   12  H   UNL     1       6.748  27.897  47.457  1.00  0.00     0.189 HD
HETATM   13  N   UNL     1       5.101  26.727  47.551  1.00  0.00    -0.179 NA
HETATM   14  C   UNL     1       3.944  26.899  48.194  1.00  0.00     0.060 A 
HETATM   15  C   UNL     1       2.846  25.915  48.005  1.00  0.00     0.073 C 
ENDBRANCH   6   8
ENDBRANCH   3   6
ENDBRANCH   1   2
BRANCH   1  16
HETATM   16  C   UNL     1       6.170  27.178  53.068  1.00  0.00     0.238 C 
BRANCH  16  17
HETATM   17  N   UNL     1       6.472  25.781  52.533  1.00  0.00    -0.061 N 
HETATM   18  H   UNL     1       6.170  25.838  51.537  1.00  0.00     0.280 HD
HETATM   19  C   UNL     1       5.721  24.603  53.103  1.00  0.00     0.236 C 
HETATM   20  C   UNL     1       6.802  23.701  53.659  1.00  0.00     0.029 C 
HETATM   21  C   UNL     1       7.944  23.902  52.684  1.00  0.00     0.029 C 
HETATM   22  C   UNL     1       7.933  25.402  52.457  1.00  0.00     0.236 C 
ENDBRANCH  16  17
BRANCH  16  23
HETATM   23  C   UNL     1       6.901  27.504  54.367  1.00  0.00    -0.024 A 
HETATM   24  C   UNL     1       8.031  28.339  54.407  1.00  0.00     0.033 A 
HETATM   25  C   UNL     1       8.651  28.643  55.622  1.00  0.00     0.034 A 
HETATM   26 CL   UNL     1      10.019  29.684  55.634  1.00  0.00    -0.084 Cl
HETATM   27  C   UNL     1       8.170  28.115  56.815  1.00  0.00     0.024 A 
HETATM   28  C   UNL     1       7.064  27.270  56.794  1.00  0.00     0.002 A 
HETATM   29  C   UNL     1       6.439  26.964  55.582  1.00  0.00     0.009 A 
ENDBRANCH  16  23
ENDBRANCH   1  16
TORSDOF 6
ENDMDL
MODEL 9
REMARK VINA RESULT:      -7.7      3.125      7.489
REMARK  6 active torsions:
REMARK  status: ('A' for Active; 'I' for Inactive)
REMARK    1  A    between atoms: C_8  and  C_9 
REMARK    2  A    between atoms: C_9  and  C_10 
REMARK       I    between atoms: C_10  and  N_11 
REMARK    3  A    between atoms: N_11  and  C_12 
REMARK    4  A    between atoms: C_12  and  C_13 
REMARK    5  A    between atoms: C_13  and  N_14 
REMARK    6  A    between atoms: C_13  and  C_20 
ROOT
HETATM    1  C   UNL     1       6.248  27.509  54.980  1.00  0.00     0.160 C 
ENDROOT
BRANCH   1   2
HETATM    2  N   UNL     1       7.275  26.534  55.352  1.00  0.00    -0.358 N 
HETATM    3  C   UNL     1       7.036  25.198  55.604  1.00  0.00     0.226 C 
HETATM    4  O   UNL     1       5.888  24.770  55.725  1.00  0.00    -0.273 OA
HETATM    5  H   UNL     1       8.222  26.755  55.052  1.00  0.00     0.162 HD
BRANCH   3   6
HETATM    6  C   UNL     1       8.299  24.336  55.736  1.00  0.00     0.111 C 
HETATM    7  C   UNL     1       8.661  24.091  57.199  1.00  0.00     0.025 C 
BRANCH   6   8
HETATM    8  C   UNL     1       8.138  23.054  54.965  1.00  0.00     0.004 A 
HETATM    9  C   UNL     1       8.130  21.747  55.433  1.00  0.00     0.033 A 
HETATM   10  C   UNL     1       8.285  21.162  56.786  1.00  0.00     0.070 C 
HETATM   11  N   UNL     1       7.954  20.956  54.330  1.00  0.00    -0.282 N 
HETATM   12  H   UNL     1       7.918  19.942  54.280  1.00  0.00     0.189 HD
HETATM   13  N   UNL     1       7.798  21.647  53.198  1.00  0.00    -0.179 NA
HETATM   14  C   UNL     1       7.958  22.922  53.558  1.00  0.00     0.060 A 
HETATM   15  C   UNL     1       7.914  23.988  52.523  1.00  0.00     0.073 C 
ENDBRANCH   6   8
ENDBRANCH   3   6
ENDBRANCH   1   2
BRANCH   1  16
HETATM   16  C   UNL     1       6.172  28.825  55.830  1.00  0.00     0.238 C 
BRANCH  16  17
HETATM   17  N   UNL     1       5.484  29.939  55.047  1.00  0.00    -0.061 N 
HETATM   18  H   UNL     1       6.278  30.424  54.577  1.00  0.00     0.280 HD
HETATM   19  C   UNL     1       4.758  31.023  55.805  1.00  0.00     0.236 C 
HETATM   20  C   UNL     1       3.333  30.945  55.299  1.00  0.00     0.029 C 
HETATM   21  C   UNL     1       3.511  30.558  53.846  1.00  0.00     0.029 C 
HETATM   22  C   UNL     1       4.593  29.497  53.909  1.00  0.00     0.236 C 
ENDBRANCH  16  17
BRANCH  16  23
HETATM   23  C   UNL     1       7.518  29.236  56.418  1.00  0.00    -0.024 A 
HETATM   24  C   UNL     1       7.666  29.637  57.757  1.00  0.00     0.033 A 
HETATM   25  C   UNL     1       8.923  29.972  58.268  1.00  0.00     0.034 A 
HETATM   26 CL   UNL     1       9.067  30.438  59.916  1.00  0.00    -0.084 Cl
HETATM   27  C   UNL     1      10.052  29.925  57.458  1.00  0.00     0.024 A 
HETATM   28  C   UNL     1       9.924  29.550  56.123  1.00  0.00     0.002 A 
HETATM   29  C   UNL     1       8.669  29.213  55.607  1.00  0.00     0.009 A 
ENDBRANCH  16  23
ENDBRANCH   1  16
TORSDOF 6
ENDMDL
MODEL 10
REMARK VINA RESULT:      -7.6      4.493      7.495
REMARK  6 active torsions:
REMARK  status: ('A' for Active; 'I' for Inactive)
REMARK    1  A    between atoms: C_8  and  C_9 
REMARK    2  A    between atoms: C_9  and  C_10 
REMARK       I    between atoms: C_10  and  N_11 
REMARK    3  A    between atoms: N_11  and  C_12 
REMARK    4  A    between atoms: C_12  and  C_13 
REMARK    5  A    between atoms: C_13  and  N_14 
REMARK    6  A    between atoms: C_13  and  C_20 
ROOT
HETATM    1  C   UNL     1       4.650  27.326  52.591  1.00  0.00     0.160 C 
ENDROOT
BRANCH   1   2
HETATM    2  N   UNL     1       5.780  26.403  52.709  1.00  0.00    -0.358 N 
HETATM    3  C   UNL     1       5.666  25.033  52.840  1.00  0.00     0.226 C 
HETATM    4  O   UNL     1       4.577  24.505  53.067  1.00  0.00    -0.273 OA
HETATM    5  H   UNL     1       6.659  26.726  52.309  1.00  0.00     0.162 HD
BRANCH   3   6
HETATM    6  C   UNL     1       6.987  24.265  52.703  1.00  0.00     0.111 C 
HETATM    7  C   UNL     1       8.122  25.177  52.244  1.00  0.00     0.025 C 
BRANCH   6   8
HETATM    8  C   UNL     1       7.312  23.552  53.988  1.00  0.00     0.004 A 
HETATM    9  C   UNL     1       7.321  24.047  55.285  1.00  0.00     0.033 A 
HETATM   10  C   UNL     1       7.048  25.390  55.851  1.00  0.00     0.070 C 
HETATM   11  N   UNL     1       7.682  22.997  56.085  1.00  0.00    -0.282 N 
HETATM   12  H   UNL     1       7.816  22.987  57.092  1.00  0.00     0.189 HD
HETATM   13  N   UNL     1       7.858  21.854  55.415  1.00  0.00    -0.179 NA
HETATM   14  C   UNL     1       7.686  22.185  54.134  1.00  0.00     0.060 A 
HETATM   15  C   UNL     1       7.874  21.156  53.078  1.00  0.00     0.073 C 
ENDBRANCH   6   8
ENDBRANCH   3   6
ENDBRANCH   1   2
BRANCH   1  16
HETATM   16  C   UNL     1       4.745  28.431  51.482  1.00  0.00     0.238 C 
BRANCH  16  17
HETATM   17  N   UNL     1       3.695  29.515  51.704  1.00  0.00    -0.061 N 
HETATM   18  H   UNL     1       2.795  28.999  51.600  1.00  0.00     0.280 HD
HETATM   19  C   UNL     1       3.606  30.658  50.722  1.00  0.00     0.236 C 
HETATM   20  C   UNL     1       3.833  31.895  51.563  1.00  0.00     0.029 C 
HETATM   21  C   UNL     1       3.181  31.532  52.882  1.00  0.00     0.029 C 
HETATM   22  C   UNL     1       3.629  30.099  53.097  1.00  0.00     0.236 C 
ENDBRANCH  16  17
BRANCH  16  23
HETATM   23  C   UNL     1       4.740  27.860  50.067  1.00  0.00    -0.024 A 
HETATM   24  C   UNL     1       3.977  26.733  49.711  1.00  0.00     0.033 A 
HETATM   25  C   UNL     1       3.972  26.262  48.396  1.00  0.00     0.034 A 
HETATM   26 CL   UNL     1       3.012  24.893  47.995  1.00  0.00    -0.084 Cl
HETATM   27  C   UNL     1       4.729  26.891  47.414  1.00  0.00     0.024 A 
HETATM   28  C   UNL     1       5.506  27.996  47.751  1.00  0.00     0.002 A 
HETATM   29  C   UNL     1       5.515  28.473  49.065  1.00  0.00     0.009 A 
ENDBRANCH  16  23
ENDBRANCH   1  16
TORSDOF 6
ENDMDL
