MODEL 1
REMARK VINA RESULT:      -9.7      0.000      0.000
REMARK  9 active torsions:
REMARK  status: ('A' for Active; 'I' for Inactive)
REMARK    1  A    between atoms: C_4  and  C_5 
REMARK    2  A    between atoms: C_5  and  N_6 
REMARK    3  A    between atoms: C_11  and  C_12 
REMARK       I    between atoms: C_12  and  N_13 
REMARK    4  A    between atoms: C_15  and  N_16 
REMARK       I    between atoms: N_16  and  C_17 
REMARK    5  A    between atoms: C_17  and  C_18 
REMARK    6  A    between atoms: C_18  and  C_19 
REMARK    7  A    between atoms: C_19  and  C_20 
REMARK    8  A    between atoms: C_20  and  S_21 
REMARK    9  A    between atoms: S_21  and  C_22 
ROOT
HETATM    1  N   UNL     1       8.763  31.557  60.899  1.00  0.00    -0.063 N 
HETATM    2  H   UNL     1       9.608  31.941  61.332  1.00  0.00     0.280 HD
HETATM    3  C   UNL     1       9.254  30.582  59.831  1.00  0.00     0.282 C 
HETATM    4  C   UNL     1       8.181  30.286  58.843  1.00  0.00     0.018 C 
HETATM    5  C   UNL     1       7.011  31.002  58.690  1.00  0.00    -0.023 C 
HETATM    6  C   UNL     1       6.122  30.367  57.745  1.00  0.00     0.073 C 
HETATM    7  C   UNL     1       6.803  29.391  57.029  1.00  0.00     0.093 C 
HETATM    8  S   UNL     1       8.316  29.026  57.720  1.00  0.00    -0.074 SA
HETATM    9  C   UNL     1       6.743  32.239  59.506  1.00  0.00     0.068 C 
HETATM   10  C   UNL     1       8.008  32.717  60.253  1.00  0.00     0.240 C 
ENDROOT
BRANCH   7  11
HETATM   11  N   UNL     1       6.349  28.703  55.914  1.00  0.00    -0.320 N 
HETATM   12  C   UNL     1       5.740  27.453  55.930  1.00  0.00     0.222 C 
HETATM   13  O   UNL     1       5.526  26.760  56.916  1.00  0.00    -0.273 OA
HETATM   14  H   UNL     1       6.751  28.990  55.028  1.00  0.00     0.169 HD
BRANCH  12  15
HETATM   15  C   UNL     1       5.344  27.005  54.530  1.00  0.00     0.104 C 
BRANCH  15  16
HETATM   16  C   UNL     1       6.380  27.355  53.463  1.00  0.00     0.020 C 
BRANCH  16  17
HETATM   17  C   UNL     1       7.661  26.516  53.408  1.00  0.00     0.080 C 
BRANCH  17  18
HETATM   18  S   UNL     1       7.682  25.096  52.255  1.00  0.00    -0.130 SA
BRANCH  18  19
HETATM   19  C   UNL     1       7.727  23.680  53.335  1.00  0.00     0.000 A 
HETATM   20  C   UNL     1       7.942  22.371  52.893  1.00  0.00     0.020 A 
HETATM   21  C   UNL     1       7.947  21.307  53.802  1.00  0.00     0.025 A 
HETATM   22  C   UNL     1       7.758  21.554  55.161  1.00  0.00     0.034 A 
HETATM   23 CL   UNL     1       7.755  20.245  56.277  1.00  0.00    -0.084 Cl
HETATM   24  C   UNL     1       7.575  22.854  55.619  1.00  0.00     0.025 A 
HETATM   25  C   UNL     1       7.563  23.913  54.708  1.00  0.00     0.020 A 
ENDBRANCH  18  19
ENDBRANCH  17  18
ENDBRANCH  16  17
ENDBRANCH  15  16
ENDBRANCH  12  15
ENDBRANCH   7  11
BRANCH   6  26
HETATM   26  C   UNL     1       4.739  30.772  57.509  1.00  0.00     0.252 C 
HETATM   27  N   UNL     1       3.790  30.097  58.230  1.00  0.00    -0.366 N 
HETATM   28  H   UNL     1       4.045  29.668  59.112  1.00  0.00     0.159 HD
HETATM   29  H   UNL     1       2.862  30.507  58.194  1.00  0.00     0.159 HD
HETATM   30  O   UNL     1       4.433  31.712  56.787  1.00  0.00    -0.268 OA
ENDBRANCH   6  26
BRANCH   1  31
HETATM   31  C   UNL     1       7.966  30.926  62.020  1.00  0.00     0.273 C 
BRANCH  31  32
HETATM   32  C   UNL     1       7.309  31.879  62.979  1.00  0.00    -0.033 A 
HETATM   33  C   UNL     1       8.054  32.738  63.798  1.00  0.00     0.009 A 
HETATM   34  C   UNL     1       7.407  33.628  64.658  1.00  0.00     0.001 A 
HETATM   35  C   UNL     1       6.015  33.682  64.694  1.00  0.00     0.000 A 
HETATM   36  C   UNL     1       5.264  32.847  63.874  1.00  0.00     0.001 A 
HETATM   37  C   UNL     1       5.906  31.948  63.022  1.00  0.00     0.009 A 
ENDBRANCH  31  32
ENDBRANCH   1  31
TORSDOF 9
ENDMDL
MODEL 2
REMARK VINA RESULT:      -9.3      3.997     11.342
REMARK  9 active torsions:
REMARK  status: ('A' for Active; 'I' for Inactive)
REMARK    1  A    between atoms: C_4  and  C_5 
REMARK    2  A    between atoms: C_5  and  N_6 
REMARK    3  A    between atoms: C_11  and  C_12 
REMARK       I    between atoms: C_12  and  N_13 
REMARK    4  A    between atoms: C_15  and  N_16 
REMARK       I    between atoms: N_16  and  C_17 
REMARK    5  A    between atoms: C_17  and  C_18 
REMARK    6  A    between atoms: C_18  and  C_19 
REMARK    7  A    between atoms: C_19  and  C_20 
REMARK    8  A    between atoms: C_20  and  S_21 
REMARK    9  A    between atoms: S_21  and  C_22 
ROOT
HETATM    1  N   UNL     1       6.278  24.782  54.692  1.00  0.00    -0.063 N 
HETATM    2  H   UNL     1       5.652  24.140  54.197  1.00  0.00     0.280 HD
HETATM    3  C   UNL     1       5.366  25.713  55.487  1.00  0.00     0.282 C 
HETATM    4  C   UNL     1       6.089  26.949  55.896  1.00  0.00     0.018 C 
HETATM    5  C   UNL     1       7.298  27.377  55.387  1.00  0.00    -0.023 C 
HETATM    6  C   UNL     1       7.793  28.532  56.099  1.00  0.00     0.073 C 
HETATM    7  C   UNL     1       6.787  29.075  56.888  1.00  0.00     0.093 C 
HETATM    8  S   UNL     1       5.449  28.031  57.030  1.00  0.00    -0.074 SA
HETATM    9  C   UNL     1       7.985  26.627  54.277  1.00  0.00     0.068 C 
HETATM   10  C   UNL     1       7.055  25.571  53.639  1.00  0.00     0.240 C 
ENDROOT
BRANCH   7  11
HETATM   11  N   UNL     1       6.816  30.285  57.565  1.00  0.00    -0.320 N 
HETATM   12  C   UNL     1       7.538  30.544  58.724  1.00  0.00     0.222 C 
HETATM   13  O   UNL     1       8.240  29.750  59.338  1.00  0.00    -0.273 OA
HETATM   14  H   UNL     1       6.043  30.913  57.373  1.00  0.00     0.169 HD
BRANCH  12  15
HETATM   15  C   UNL     1       7.362  31.984  59.184  1.00  0.00     0.104 C 
BRANCH  15  16
HETATM   16  C   UNL     1       8.006  32.274  60.539  1.00  0.00     0.020 C 
BRANCH  16  17
HETATM   17  C   UNL     1       7.141  32.103  61.793  1.00  0.00     0.080 C 
BRANCH  17  18
HETATM   18  S   UNL     1       7.954  32.358  63.411  1.00  0.00    -0.130 SA
BRANCH  18  19
HETATM   19  C   UNL     1       6.702  33.169  64.386  1.00  0.00     0.000 A 
HETATM   20  C   UNL     1       6.953  33.790  65.613  1.00  0.00     0.020 A 
HETATM   21  C   UNL     1       5.912  34.392  66.329  1.00  0.00     0.025 A 
HETATM   22  C   UNL     1       4.620  34.394  65.807  1.00  0.00     0.034 A 
HETATM   23 CL   UNL     1       3.339  35.126  66.691  1.00  0.00    -0.084 Cl
HETATM   24  C   UNL     1       4.362  33.808  64.572  1.00  0.00     0.025 A 
HETATM   25  C   UNL     1       5.402  33.201  63.863  1.00  0.00     0.020 A 
ENDBRANCH  18  19
ENDBRANCH  17  18
ENDBRANCH  16  17
ENDBRANCH  15  16
ENDBRANCH  12  15
ENDBRANCH   7  11
BRANCH   6  26
HETATM   26  C   UNL     1       9.126  29.103  55.927  1.00  0.00     0.252 C 
HETATM   27  N   UNL     1       9.971  28.975  56.998  1.00  0.00    -0.366 N 
HETATM   28  H   UNL     1       9.828  28.221  57.659  1.00  0.00     0.159 HD
HETATM   29  H   UNL     1      10.939  29.208  56.801  1.00  0.00     0.159 HD
HETATM   30  O   UNL     1       9.514  29.585  54.871  1.00  0.00    -0.268 OA
ENDBRANCH   6  26
BRANCH   1  31
HETATM   31  C   UNL     1       7.193  23.916  55.530  1.00  0.00     0.273 C 
BRANCH  31  32
HETATM   32  C   UNL     1       7.595  22.602  54.922  1.00  0.00    -0.033 A 
HETATM   33  C   UNL     1       7.742  22.439  53.537  1.00  0.00     0.009 A 
HETATM   34  C   UNL     1       8.142  21.209  53.012  1.00  0.00     0.001 A 
HETATM   35  C   UNL     1       8.418  20.139  53.861  1.00  0.00     0.000 A 
HETATM   36  C   UNL     1       8.292  20.292  55.238  1.00  0.00     0.001 A 
HETATM   37  C   UNL     1       7.882  21.515  55.767  1.00  0.00     0.009 A 
ENDBRANCH  31  32
ENDBRANCH   1  31
TORSDOF 9
ENDMDL
MODEL 3
REMARK VINA RESULT:      -9.2      3.608     10.176
REMARK  9 active torsions:
REMARK  status: ('A' for Active; 'I' for Inactive)
REMARK    1  A    between atoms: C_4  and  C_5 
REMARK    2  A    between atoms: C_5  and  N_6 
REMARK    3  A    between atoms: C_11  and  C_12 
REMARK       I    between atoms: C_12  and  N_13 
REMARK    4  A    between atoms: C_15  and  N_16 
REMARK       I    between atoms: N_16  and  C_17 
REMARK    5  A    between atoms: C_17  and  C_18 
REMARK    6  A    between atoms: C_18  and  C_19 
REMARK    7  A    between atoms: C_19  and  C_20 
REMARK    8  A    between atoms: C_20  and  S_21 
REMARK    9  A    between atoms: S_21  and  C_22 
ROOT
HETATM    1  N   UNL     1       7.781  24.258  56.935  1.00  0.00    -0.063 N 
HETATM    2  H   UNL     1       7.960  23.511  57.612  1.00  0.00     0.280 HD
HETATM    3  C   UNL     1       7.956  25.563  57.708  1.00  0.00     0.282 C 
HETATM    4  C   UNL     1       7.312  26.699  56.993  1.00  0.00     0.018 C 
HETATM    5  C   UNL     1       6.411  26.585  55.954  1.00  0.00    -0.023 C 
HETATM    6  C   UNL     1       6.088  27.875  55.390  1.00  0.00     0.073 C 
HETATM    7  C   UNL     1       6.528  28.889  56.231  1.00  0.00     0.093 C 
HETATM    8  S   UNL     1       7.582  28.310  57.437  1.00  0.00    -0.074 SA
HETATM    9  C   UNL     1       5.934  25.238  55.480  1.00  0.00     0.068 C 
HETATM   10  C   UNL     1       6.337  24.112  56.458  1.00  0.00     0.240 C 
ENDROOT
BRANCH   7  11
HETATM   11  N   UNL     1       6.240  30.242  56.132  1.00  0.00    -0.320 N 
HETATM   12  C   UNL     1       5.000  30.823  56.373  1.00  0.00     0.222 C 
HETATM   13  O   UNL     1       3.971  30.240  56.689  1.00  0.00    -0.273 OA
HETATM   14  H   UNL     1       6.885  30.787  55.569  1.00  0.00     0.169 HD
BRANCH  12  15
HETATM   15  C   UNL     1       5.046  32.335  56.196  1.00  0.00     0.104 C 
BRANCH  15  16
HETATM   16  C   UNL     1       5.165  33.099  57.515  1.00  0.00     0.020 C 
BRANCH  16  17
HETATM   17  C   UNL     1       5.308  32.282  58.804  1.00  0.00     0.080 C 
BRANCH  17  18
HETATM   18  S   UNL     1       7.007  31.916  59.376  1.00  0.00    -0.130 SA
BRANCH  18  19
HETATM   19  C   UNL     1       7.007  32.474  61.069  1.00  0.00     0.000 A 
HETATM   20  C   UNL     1       6.047  33.339  61.602  1.00  0.00     0.020 A 
HETATM   21  C   UNL     1       6.125  33.747  62.939  1.00  0.00     0.025 A 
HETATM   22  C   UNL     1       7.152  33.271  63.751  1.00  0.00     0.034 A 
HETATM   23 CL   UNL     1       7.253  33.780  65.391  1.00  0.00    -0.084 Cl
HETATM   24  C   UNL     1       8.097  32.385  63.243  1.00  0.00     0.025 A 
HETATM   25  C   UNL     1       8.020  31.986  61.906  1.00  0.00     0.020 A 
ENDBRANCH  18  19
ENDBRANCH  17  18
ENDBRANCH  16  17
ENDBRANCH  15  16
ENDBRANCH  12  15
ENDBRANCH   7  11
BRANCH   6  26
HETATM   26  C   UNL     1       5.319  28.075  54.165  1.00  0.00     0.252 C 
HETATM   27  N   UNL     1       3.956  28.038  54.305  1.00  0.00    -0.366 N 
HETATM   28  H   UNL     1       3.541  28.261  55.202  1.00  0.00     0.159 HD
HETATM   29  H   UNL     1       3.440  28.357  53.491  1.00  0.00     0.159 HD
HETATM   30  O   UNL     1       5.835  28.349  53.090  1.00  0.00    -0.268 OA
ENDBRANCH   6  26
BRANCH   1  31
HETATM   31  C   UNL     1       8.767  24.049  55.806  1.00  0.00     0.273 C 
BRANCH  31  32
HETATM   32  C   UNL     1       8.589  22.792  55.001  1.00  0.00    -0.033 A 
HETATM   33  C   UNL     1       8.723  21.519  55.574  1.00  0.00     0.009 A 
HETATM   34  C   UNL     1       8.525  20.375  54.798  1.00  0.00     0.001 A 
HETATM   35  C   UNL     1       8.175  20.489  53.454  1.00  0.00     0.000 A 
HETATM   36  C   UNL     1       8.023  21.746  52.878  1.00  0.00     0.001 A 
HETATM   37  C   UNL     1       8.230  22.892  53.646  1.00  0.00     0.009 A 
ENDBRANCH  31  32
ENDBRANCH   1  31
TORSDOF 9
ENDMDL
MODEL 4
REMARK VINA RESULT:      -9.1      3.951     10.797
REMARK  9 active torsions:
REMARK  status: ('A' for Active; 'I' for Inactive)
REMARK    1  A    between atoms: C_4  and  C_5 
REMARK    2  A    between atoms: C_5  and  N_6 
REMARK    3  A    between atoms: C_11  and  C_12 
REMARK       I    between atoms: C_12  and  N_13 
REMARK    4  A    between atoms: C_15  and  N_16 
REMARK       I    between atoms: N_16  and  C_17 
REMARK    5  A    between atoms: C_17  and  C_18 
REMARK    6  A    between atoms: C_18  and  C_19 
REMARK    7  A    between atoms: C_19  and  C_20 
REMARK    8  A    between atoms: C_20  and  S_21 
REMARK    9  A    between atoms: S_21  and  C_22 
ROOT
HETATM    1  N   UNL     1       6.872  27.138  54.496  1.00  0.00    -0.063 N 
HETATM    2  H   UNL     1       6.846  26.738  53.554  1.00  0.00     0.280 HD
HETATM    3  C   UNL     1       5.493  27.753  54.720  1.00  0.00     0.282 C 
HETATM    4  C   UNL     1       5.520  28.734  55.840  1.00  0.00     0.018 C 
HETATM    5  C   UNL     1       6.658  29.273  56.406  1.00  0.00    -0.023 C 
HETATM    6  C   UNL     1       6.341  30.078  57.564  1.00  0.00     0.073 C 
HETATM    7  C   UNL     1       4.978  30.337  57.608  1.00  0.00     0.093 C 
HETATM    8  S   UNL     1       4.103  29.359  56.522  1.00  0.00    -0.074 SA
HETATM    9  C   UNL     1       8.025  28.947  55.869  1.00  0.00     0.068 C 
HETATM   10  C   UNL     1       7.947  28.224  54.506  1.00  0.00     0.240 C 
ENDROOT
BRANCH   7  11
HETATM   11  N   UNL     1       4.321  31.223  58.450  1.00  0.00    -0.320 N 
HETATM   12  C   UNL     1       4.209  32.594  58.249  1.00  0.00     0.222 C 
HETATM   13  O   UNL     1       4.683  33.236  57.320  1.00  0.00    -0.273 OA
HETATM   14  H   UNL     1       4.178  30.899  59.401  1.00  0.00     0.169 HD
BRANCH  12  15
HETATM   15  C   UNL     1       3.401  33.258  59.355  1.00  0.00     0.104 C 
BRANCH  15  16
HETATM   16  C   UNL     1       3.980  33.034  60.752  1.00  0.00     0.020 C 
BRANCH  16  17
HETATM   17  C   UNL     1       5.138  33.934  61.198  1.00  0.00     0.080 C 
BRANCH  17  18
HETATM   18  S   UNL     1       6.546  33.127  62.042  1.00  0.00    -0.130 SA
BRANCH  18  19
HETATM   19  C   UNL     1       6.252  33.472  63.766  1.00  0.00     0.000 A 
HETATM   20  C   UNL     1       7.271  33.644  64.708  1.00  0.00     0.020 A 
HETATM   21  C   UNL     1       6.960  33.895  66.050  1.00  0.00     0.025 A 
HETATM   22  C   UNL     1       5.628  33.997  66.447  1.00  0.00     0.034 A 
HETATM   23 CL   UNL     1       5.246  34.297  68.097  1.00  0.00    -0.084 Cl
HETATM   24  C   UNL     1       4.605  33.860  65.514  1.00  0.00     0.025 A 
HETATM   25  C   UNL     1       4.919  33.601  64.177  1.00  0.00     0.020 A 
ENDBRANCH  18  19
ENDBRANCH  17  18
ENDBRANCH  16  17
ENDBRANCH  15  16
ENDBRANCH  12  15
ENDBRANCH   7  11
BRANCH   6  26
HETATM   26  C   UNL     1       7.331  30.625  58.488  1.00  0.00     0.252 C 
HETATM   27  N   UNL     1       8.018  29.707  59.237  1.00  0.00    -0.366 N 
HETATM   28  H   UNL     1       8.120  28.759  58.893  1.00  0.00     0.159 HD
HETATM   29  H   UNL     1       8.819  30.082  59.733  1.00  0.00     0.159 HD
HETATM   30  O   UNL     1       7.609  31.816  58.539  1.00  0.00    -0.268 OA
ENDBRANCH   6  26
BRANCH   1  31
HETATM   31  C   UNL     1       7.221  25.997  55.427  1.00  0.00     0.273 C 
BRANCH  31  32
HETATM   32  C   UNL     1       7.477  24.668  54.774  1.00  0.00    -0.033 A 
HETATM   33  C   UNL     1       7.559  23.481  55.516  1.00  0.00     0.009 A 
HETATM   34  C   UNL     1       7.772  22.261  54.871  1.00  0.00     0.001 A 
HETATM   35  C   UNL     1       7.886  22.212  53.483  1.00  0.00     0.000 A 
HETATM   36  C   UNL     1       7.789  23.380  52.734  1.00  0.00     0.001 A 
HETATM   37  C   UNL     1       7.588  24.602  53.375  1.00  0.00     0.009 A 
ENDBRANCH  31  32
ENDBRANCH   1  31
TORSDOF 9
ENDMDL
MODEL 5
REMARK VINA RESULT:      -9.0      3.258      9.673
REMARK  9 active torsions:
REMARK  status: ('A' for Active; 'I' for Inactive)
REMARK    1  A    between atoms: C_4  and  C_5 
REMARK    2  A    between atoms: C_5  and  N_6 
REMARK    3  A    between atoms: C_11  and  C_12 
REMARK       I    between atoms: C_12  and  N_13 
REMARK    4  A    between atoms: C_15  and  N_16 
REMARK       I    between atoms: N_16  and  C_17 
REMARK    5  A    between atoms: C_17  and  C_18 
REMARK    6  A    between atoms: C_18  and  C_19 
REMARK    7  A    between atoms: C_19  and  C_20 
REMARK    8  A    between atoms: C_20  and  S_21 
REMARK    9  A    between atoms: S_21  and  C_22 
ROOT
HETATM    1  N   UNL     1       7.700  24.381  57.048  1.00  0.00    -0.063 N 
HETATM    2  H   UNL     1       7.870  23.685  57.779  1.00  0.00     0.280 HD
HETATM    3  C   UNL     1       7.841  25.739  57.731  1.00  0.00     0.282 C 
HETATM    4  C   UNL     1       7.202  26.813  56.922  1.00  0.00     0.018 C 
HETATM    5  C   UNL     1       6.330  26.615  55.871  1.00  0.00    -0.023 C 
HETATM    6  C   UNL     1       6.007  27.858  55.209  1.00  0.00     0.073 C 
HETATM    7  C   UNL     1       6.414  28.934  55.988  1.00  0.00     0.093 C 
HETATM    8  S   UNL     1       7.443  28.455  57.257  1.00  0.00    -0.074 SA
HETATM    9  C   UNL     1       5.881  25.232  55.481  1.00  0.00     0.068 C 
HETATM   10  C   UNL     1       6.271  24.183  56.547  1.00  0.00     0.240 C 
ENDROOT
BRANCH   7  11
HETATM   11  N   UNL     1       6.114  30.273  55.786  1.00  0.00    -0.320 N 
HETATM   12  C   UNL     1       4.933  30.901  56.166  1.00  0.00     0.222 C 
HETATM   13  O   UNL     1       3.973  30.377  56.715  1.00  0.00    -0.273 OA
HETATM   14  H   UNL     1       6.653  30.739  55.064  1.00  0.00     0.169 HD
BRANCH  12  15
HETATM   15  C   UNL     1       4.949  32.382  55.814  1.00  0.00     0.104 C 
BRANCH  15  16
HETATM   16  C   UNL     1       3.857  33.187  56.519  1.00  0.00     0.020 C 
BRANCH  16  17
HETATM   17  C   UNL     1       4.211  33.856  57.852  1.00  0.00     0.080 C 
BRANCH  17  18
HETATM   18  S   UNL     1       4.007  32.855  59.369  1.00  0.00    -0.130 SA
BRANCH  18  19
HETATM   19  C   UNL     1       5.682  32.562  59.905  1.00  0.00     0.000 A 
HETATM   20  C   UNL     1       6.631  31.871  59.146  1.00  0.00     0.020 A 
HETATM   21  C   UNL     1       7.923  31.666  59.643  1.00  0.00     0.025 A 
HETATM   22  C   UNL     1       8.275  32.173  60.893  1.00  0.00     0.034 A 
HETATM   23 CL   UNL     1       9.860  31.914  61.508  1.00  0.00    -0.084 Cl
HETATM   24  C   UNL     1       7.350  32.891  61.645  1.00  0.00     0.025 A 
HETATM   25  C   UNL     1       6.059  33.087  61.149  1.00  0.00     0.020 A 
ENDBRANCH  18  19
ENDBRANCH  17  18
ENDBRANCH  16  17
ENDBRANCH  15  16
ENDBRANCH  12  15
ENDBRANCH   7  11
BRANCH   6  26
HETATM   26  C   UNL     1       5.267  27.961  53.954  1.00  0.00     0.252 C 
HETATM   27  N   UNL     1       3.902  27.968  54.067  1.00  0.00    -0.366 N 
HETATM   28  H   UNL     1       3.475  28.282  54.931  1.00  0.00     0.159 HD
HETATM   29  H   UNL     1       3.410  28.222  53.217  1.00  0.00     0.159 HD
HETATM   30  O   UNL     1       5.812  28.124  52.871  1.00  0.00    -0.268 OA
ENDBRANCH   6  26
BRANCH   1  31
HETATM   31  C   UNL     1       8.717  24.105  55.961  1.00  0.00     0.273 C 
BRANCH  31  32
HETATM   32  C   UNL     1       8.512  22.843  55.172  1.00  0.00    -0.033 A 
HETATM   33  C   UNL     1       8.513  21.580  55.780  1.00  0.00     0.009 A 
HETATM   34  C   UNL     1       8.294  20.431  55.016  1.00  0.00     0.001 A 
HETATM   35  C   UNL     1       8.054  20.533  53.647  1.00  0.00     0.000 A 
HETATM   36  C   UNL     1       8.034  21.782  53.035  1.00  0.00     0.001 A 
HETATM   37  C   UNL     1       8.263  22.931  53.791  1.00  0.00     0.009 A 
ENDBRANCH  31  32
ENDBRANCH   1  31
TORSDOF 9
ENDMDL
MODEL 6
REMARK VINA RESULT:      -9.0      4.396     11.435
REMARK  9 active torsions:
REMARK  status: ('A' for Active; 'I' for Inactive)
REMARK    1  A    between atoms: C_4  and  C_5 
REMARK    2  A    between atoms: C_5  and  N_6 
REMARK    3  A    between atoms: C_11  and  C_12 
REMARK       I    between atoms: C_12  and  N_13 
REMARK    4  A    between atoms: C_15  and  N_16 
REMARK       I    between atoms: N_16  and  C_17 
REMARK    5  A    between atoms: C_17  and  C_18 
REMARK    6  A    between atoms: C_18  and  C_19 
REMARK    7  A    between atoms: C_19  and  C_20 
REMARK    8  A    between atoms: C_20  and  S_21 
REMARK    9  A    between atoms: S_21  and  C_22 
ROOT
HETATM    1  N   UNL     1       6.941  27.097  54.834  1.00  0.00    -0.063 N 
HETATM    2  H   UNL     1       6.279  26.721  54.150  1.00  0.00     0.280 HD
HETATM    3  C   UNL     1       6.098  27.893  55.828  1.00  0.00     0.282 C 
HETATM    4  C   UNL     1       6.941  28.841  56.606  1.00  0.00     0.018 C 
HETATM    5  C   UNL     1       8.233  29.209  56.292  1.00  0.00    -0.023 C 
HETATM    6  C   UNL     1       8.816  30.031  57.328  1.00  0.00     0.073 C 
HETATM    7  C   UNL     1       7.829  30.474  58.198  1.00  0.00     0.093 C 
HETATM    8  S   UNL     1       6.358  29.644  57.978  1.00  0.00    -0.074 SA
HETATM    9  C   UNL     1       8.904  28.707  55.042  1.00  0.00     0.068 C 
HETATM   10  C   UNL     1       7.898  28.024  54.087  1.00  0.00     0.240 C 
ENDROOT
BRANCH   7  11
HETATM   11  N   UNL     1       7.961  31.427  59.197  1.00  0.00    -0.320 N 
HETATM   12  C   UNL     1       8.488  31.201  60.464  1.00  0.00     0.222 C 
HETATM   13  O   UNL     1       8.898  30.133  60.902  1.00  0.00    -0.273 OA
HETATM   14  H   UNL     1       7.372  32.248  59.101  1.00  0.00     0.169 HD
BRANCH  12  15
HETATM   15  C   UNL     1       8.508  32.474  61.298  1.00  0.00     0.104 C 
BRANCH  15  16
HETATM   16  C   UNL     1       7.117  33.045  61.571  1.00  0.00     0.020 C 
BRANCH  16  17
HETATM   17  C   UNL     1       6.378  32.559  62.822  1.00  0.00     0.080 C 
BRANCH  17  18
HETATM   18  S   UNL     1       4.934  33.538  63.373  1.00  0.00    -0.130 SA
BRANCH  18  19
HETATM   19  C   UNL     1       5.278  33.860  65.092  1.00  0.00     0.000 A 
HETATM   20  C   UNL     1       6.568  33.952  65.623  1.00  0.00     0.020 A 
HETATM   21  C   UNL     1       6.757  34.190  66.989  1.00  0.00     0.025 A 
HETATM   22  C   UNL     1       5.654  34.359  67.823  1.00  0.00     0.034 A 
HETATM   23 CL   UNL     1       5.886  34.643  69.504  1.00  0.00    -0.084 Cl
HETATM   24  C   UNL     1       4.365  34.302  67.303  1.00  0.00     0.025 A 
HETATM   25  C   UNL     1       4.180  34.056  65.940  1.00  0.00     0.020 A 
ENDBRANCH  18  19
ENDBRANCH  17  18
ENDBRANCH  16  17
ENDBRANCH  15  16
ENDBRANCH  12  15
ENDBRANCH   7  11
BRANCH   6  26
HETATM   26  C   UNL     1      10.222  30.421  57.383  1.00  0.00     0.252 C 
HETATM   27  N   UNL     1      11.119  29.471  56.971  1.00  0.00    -0.366 N 
HETATM   28  H   UNL     1      10.822  28.752  56.323  1.00  0.00     0.159 HD
HETATM   29  H   UNL     1      12.066  29.814  56.842  1.00  0.00     0.159 HD
HETATM   30  O   UNL     1      10.590  31.548  57.687  1.00  0.00    -0.268 OA
ENDBRANCH   6  26
BRANCH   1  31
HETATM   31  C   UNL     1       7.663  25.904  55.422  1.00  0.00     0.273 C 
BRANCH  31  32
HETATM   32  C   UNL     1       7.745  24.686  54.545  1.00  0.00    -0.033 A 
HETATM   33  C   UNL     1       8.473  23.549  54.922  1.00  0.00     0.009 A 
HETATM   34  C   UNL     1       8.505  22.426  54.092  1.00  0.00     0.001 A 
HETATM   35  C   UNL     1       7.798  22.421  52.891  1.00  0.00     0.000 A 
HETATM   36  C   UNL     1       7.058  23.537  52.513  1.00  0.00     0.001 A 
HETATM   37  C   UNL     1       7.033  24.664  53.334  1.00  0.00     0.009 A 
ENDBRANCH  31  32
ENDBRANCH   1  31
TORSDOF 9
ENDMDL
MODEL 7
REMARK VINA RESULT:      -9.0      2.730      3.687
REMARK  9 active torsions:
REMARK  status: ('A' for Active; 'I' for Inactive)
REMARK    1  A    between atoms: C_4  and  C_5 
REMARK    2  A    between atoms: C_5  and  N_6 
REMARK    3  A    between atoms: C_11  and  C_12 
REMARK       I    between atoms: C_12  and  N_13 
REMARK    4  A    between atoms: C_15  and  N_16 
REMARK       I    between atoms: N_16  and  C_17 
REMARK    5  A    between atoms: C_17  and  C_18 
REMARK    6  A    between atoms: C_18  and  C_19 
REMARK    7  A    between atoms: C_19  and  C_20 
REMARK    8  A    between atoms: C_20  and  S_21 
REMARK    9  A    between atoms: S_21  and  C_22 
ROOT
HETATM    1  N   UNL     1       3.859  33.454  61.232  1.00  0.00    -0.063 N 
HETATM    2  H   UNL     1       2.956  33.506  61.712  1.00  0.00     0.280 HD
HETATM    3  C   UNL     1       3.619  32.585  59.999  1.00  0.00     0.282 C 
HETATM    4  C   UNL     1       4.903  32.065  59.455  1.00  0.00     0.018 C 
HETATM    5  C   UNL     1       6.117  32.075  60.112  1.00  0.00    -0.023 C 
HETATM    6  C   UNL     1       7.189  31.630  59.252  1.00  0.00     0.073 C 
HETATM    7  C   UNL     1       6.669  31.030  58.112  1.00  0.00     0.093 C 
HETATM    8  S   UNL     1       5.001  31.323  57.936  1.00  0.00    -0.074 SA
HETATM    9  C   UNL     1       6.232  32.578  61.526  1.00  0.00     0.068 C 
HETATM   10  C   UNL     1       4.845  32.774  62.179  1.00  0.00     0.240 C 
ENDROOT
BRANCH   7  11
HETATM   11  N   UNL     1       7.368  30.316  57.150  1.00  0.00    -0.320 N 
HETATM   12  C   UNL     1       7.980  29.083  57.347  1.00  0.00     0.222 C 
HETATM   13  O   UNL     1       8.017  28.446  58.392  1.00  0.00    -0.273 OA
HETATM   14  H   UNL     1       7.701  30.856  56.359  1.00  0.00     0.169 HD
BRANCH  12  15
HETATM   15  C   UNL     1       8.636  28.573  56.071  1.00  0.00     0.104 C 
BRANCH  15  16
HETATM   16  C   UNL     1       7.647  28.334  54.931  1.00  0.00     0.020 C 
BRANCH  16  17
HETATM   17  C   UNL     1       7.000  26.948  54.826  1.00  0.00     0.080 C 
BRANCH  17  18
HETATM   18  S   UNL     1       7.556  25.674  56.015  1.00  0.00    -0.130 SA
BRANCH  18  19
HETATM   19  C   UNL     1       7.770  24.222  55.004  1.00  0.00     0.000 A 
HETATM   20  C   UNL     1       7.499  24.183  53.633  1.00  0.00     0.020 A 
HETATM   21  C   UNL     1       7.675  22.998  52.910  1.00  0.00     0.025 A 
HETATM   22  C   UNL     1       8.145  21.855  53.553  1.00  0.00     0.034 A 
HETATM   23 CL   UNL     1       8.354  20.396  52.666  1.00  0.00    -0.084 Cl
HETATM   24  C   UNL     1       8.450  21.888  54.910  1.00  0.00     0.025 A 
HETATM   25  C   UNL     1       8.265  23.070  55.631  1.00  0.00     0.020 A 
ENDBRANCH  18  19
ENDBRANCH  17  18
ENDBRANCH  16  17
ENDBRANCH  15  16
ENDBRANCH  12  15
ENDBRANCH   7  11
BRANCH   6  26
HETATM   26  C   UNL     1       8.607  31.707  59.588  1.00  0.00     0.252 C 
HETATM   27  N   UNL     1       9.066  30.754  60.459  1.00  0.00    -0.366 N 
HETATM   28  H   UNL     1       8.580  29.868  60.529  1.00  0.00     0.159 HD
HETATM   29  H   UNL     1      10.077  30.708  60.539  1.00  0.00     0.159 HD
HETATM   30  O   UNL     1       9.374  32.507  59.067  1.00  0.00    -0.268 OA
ENDBRANCH   6  26
BRANCH   1  31
HETATM   31  C   UNL     1       4.261  34.883  60.937  1.00  0.00     0.273 C 
BRANCH  31  32
HETATM   32  C   UNL     1       4.564  35.743  62.132  1.00  0.00    -0.033 A 
HETATM   33  C   UNL     1       5.675  36.596  62.167  1.00  0.00     0.009 A 
HETATM   34  C   UNL     1       5.910  37.399  63.286  1.00  0.00     0.001 A 
HETATM   35  C   UNL     1       5.031  37.371  64.367  1.00  0.00     0.000 A 
HETATM   36  C   UNL     1       3.916  36.541  64.337  1.00  0.00     0.001 A 
HETATM   37  C   UNL     1       3.683  35.729  63.227  1.00  0.00     0.009 A 
ENDBRANCH  31  32
ENDBRANCH   1  31
TORSDOF 9
ENDMDL
MODEL 8
REMARK VINA RESULT:      -8.7      3.026      9.831
REMARK  9 active torsions:
REMARK  status: ('A' for Active; 'I' for Inactive)
REMARK    1  A    between atoms: C_4  and  C_5 
REMARK    2  A    between atoms: C_5  and  N_6 
REMARK    3  A    between atoms: C_11  and  C_12 
REMARK       I    between atoms: C_12  and  N_13 
REMARK    4  A    between atoms: C_15  and  N_16 
REMARK       I    between atoms: N_16  and  C_17 
REMARK    5  A    between atoms: C_17  and  C_18 
REMARK    6  A    between atoms: C_18  and  C_19 
REMARK    7  A    between atoms: C_19  and  C_20 
REMARK    8  A    between atoms: C_20  and  S_21 
REMARK    9  A    between atoms: S_21  and  C_22 
ROOT
HETATM    1  N   UNL     1       6.130  26.535  54.190  1.00  0.00    -0.063 N 
HETATM    2  H   UNL     1       5.922  26.152  53.263  1.00  0.00     0.280 HD
HETATM    3  C   UNL     1       4.994  27.509  54.496  1.00  0.00     0.282 C 
HETATM    4  C   UNL     1       5.376  28.451  55.584  1.00  0.00     0.018 C 
HETATM    5  C   UNL     1       6.658  28.658  56.052  1.00  0.00    -0.023 C 
HETATM    6  C   UNL     1       6.665  29.527  57.207  1.00  0.00     0.073 C 
HETATM    7  C   UNL     1       5.433  30.153  57.342  1.00  0.00     0.093 C 
HETATM    8  S   UNL     1       4.242  29.447  56.349  1.00  0.00    -0.074 SA
HETATM    9  C   UNL     1       7.838  27.964  55.427  1.00  0.00     0.068 C 
HETATM   10  C   UNL     1       7.459  27.281  54.093  1.00  0.00     0.240 C 
ENDROOT
BRANCH   7  11
HETATM   11  N   UNL     1       5.112  31.190  58.205  1.00  0.00    -0.320 N 
HETATM   12  C   UNL     1       5.073  32.538  57.866  1.00  0.00     0.222 C 
HETATM   13  O   UNL     1       5.332  33.022  56.771  1.00  0.00    -0.273 OA
HETATM   14  H   UNL     1       5.203  30.983  59.193  1.00  0.00     0.169 HD
BRANCH  12  15
HETATM   15  C   UNL     1       4.658  33.401  59.049  1.00  0.00     0.104 C 
BRANCH  15  16
HETATM   16  C   UNL     1       3.974  32.615  60.167  1.00  0.00     0.020 C 
BRANCH  16  17
HETATM   17  C   UNL     1       3.909  33.258  61.557  1.00  0.00     0.080 C 
BRANCH  17  18
HETATM   18  S   UNL     1       5.344  34.264  62.079  1.00  0.00    -0.130 SA
BRANCH  18  19
HETATM   19  C   UNL     1       6.704  33.114  62.022  1.00  0.00     0.000 A 
HETATM   20  C   UNL     1       7.603  33.025  60.955  1.00  0.00     0.020 A 
HETATM   21  C   UNL     1       8.638  32.083  60.976  1.00  0.00     0.025 A 
HETATM   22  C   UNL     1       8.788  31.242  62.077  1.00  0.00     0.034 A 
HETATM   23 CL   UNL     1      10.054  30.077  62.099  1.00  0.00    -0.084 Cl
HETATM   24  C   UNL     1       7.921  31.340  63.160  1.00  0.00     0.025 A 
HETATM   25  C   UNL     1       6.885  32.277  63.132  1.00  0.00     0.020 A 
ENDBRANCH  18  19
ENDBRANCH  17  18
ENDBRANCH  16  17
ENDBRANCH  15  16
ENDBRANCH  12  15
ENDBRANCH   7  11
BRANCH   6  26
HETATM   26  C   UNL     1       7.834  29.784  58.042  1.00  0.00     0.252 C 
HETATM   27  N   UNL     1       8.564  30.898  57.719  1.00  0.00    -0.366 N 
HETATM   28  H   UNL     1       8.114  31.665  57.233  1.00  0.00     0.159 HD
HETATM   29  H   UNL     1       9.257  31.164  58.411  1.00  0.00     0.159 HD
HETATM   30  O   UNL     1       8.110  29.114  59.028  1.00  0.00    -0.268 OA
ENDBRANCH   6  26
BRANCH   1  31
HETATM   31  C   UNL     1       6.222  25.348  55.124  1.00  0.00     0.273 C 
BRANCH  31  32
HETATM   32  C   UNL     1       7.093  24.213  54.665  1.00  0.00    -0.033 A 
HETATM   33  C   UNL     1       6.980  23.665  53.380  1.00  0.00     0.009 A 
HETATM   34  C   UNL     1       7.826  22.628  52.980  1.00  0.00     0.001 A 
HETATM   35  C   UNL     1       8.801  22.142  53.850  1.00  0.00     0.000 A 
HETATM   36  C   UNL     1       8.934  22.689  55.122  1.00  0.00     0.001 A 
HETATM   37  C   UNL     1       8.085  23.717  55.529  1.00  0.00     0.009 A 
ENDBRANCH  31  32
ENDBRANCH   1  31
TORSDOF 9
ENDMDL
MODEL 9
REMARK VINA RESULT:      -8.5      3.490      5.029
REMARK  9 active torsions:
REMARK  status: ('A' for Active; 'I' for Inactive)
REMARK    1  A    between atoms: C_4  and  C_5 
REMARK    2  A    between atoms: C_5  and  N_6 
REMARK    3  A    between atoms: C_11  and  C_12 
REMARK       I    between atoms: C_12  and  N_13 
REMARK    4  A    between atoms: C_15  and  N_16 
REMARK       I    between atoms: N_16  and  C_17 
REMARK    5  A    between atoms: C_17  and  C_18 
REMARK    6  A    between atoms: C_18  and  C_19 
REMARK    7  A    between atoms: C_19  and  C_20 
REMARK    8  A    between atoms: C_20  and  S_21 
REMARK    9  A    between atoms: S_21  and  C_22 
ROOT
HETATM    1  N   UNL     1       5.043  34.345  62.429  1.00  0.00    -0.063 N 
HETATM    2  H   UNL     1       4.110  34.709  62.642  1.00  0.00     0.280 HD
HETATM    3  C   UNL     1       4.936  33.728  61.037  1.00  0.00     0.282 C 
HETATM    4  C   UNL     1       6.064  32.791  60.779  1.00  0.00     0.018 C 
HETATM    5  C   UNL     1       6.919  32.282  61.736  1.00  0.00    -0.023 C 
HETATM    6  C   UNL     1       7.989  31.518  61.137  1.00  0.00     0.073 C 
HETATM    7  C   UNL     1       7.698  31.251  59.806  1.00  0.00     0.093 C 
HETATM    8  S   UNL     1       6.391  32.181  59.234  1.00  0.00    -0.074 SA
HETATM    9  C   UNL     1       6.731  32.598  63.195  1.00  0.00     0.068 C 
HETATM   10  C   UNL     1       5.365  33.269  63.465  1.00  0.00     0.240 C 
ENDROOT
BRANCH   7  11
HETATM   11  N   UNL     1       8.381  30.392  58.956  1.00  0.00    -0.320 N 
HETATM   12  C   UNL     1       9.513  30.720  58.218  1.00  0.00     0.222 C 
HETATM   13  O   UNL     1      10.071  31.810  58.184  1.00  0.00    -0.273 OA
HETATM   14  H   UNL     1       7.856  29.587  58.632  1.00  0.00     0.169 HD
BRANCH  12  15
HETATM   15  C   UNL     1      10.019  29.532  57.412  1.00  0.00     0.104 C 
BRANCH  15  16
HETATM   16  C   UNL     1       9.507  29.510  55.972  1.00  0.00     0.020 C 
BRANCH  16  17
HETATM   17  C   UNL     1       8.017  29.230  55.748  1.00  0.00     0.080 C 
BRANCH  17  18
HETATM   18  S   UNL     1       7.288  27.815  56.648  1.00  0.00    -0.130 SA
BRANCH  18  19
HETATM   19  C   UNL     1       7.477  26.455  55.512  1.00  0.00     0.000 A 
HETATM   20  C   UNL     1       7.413  26.588  54.121  1.00  0.00     0.020 A 
HETATM   21  C   UNL     1       7.555  25.468  53.294  1.00  0.00     0.025 A 
HETATM   22  C   UNL     1       7.783  24.214  53.857  1.00  0.00     0.034 A 
HETATM   23 CL   UNL     1       7.948  22.836  52.841  1.00  0.00    -0.084 Cl
HETATM   24  C   UNL     1       7.881  24.071  55.237  1.00  0.00     0.025 A 
HETATM   25  C   UNL     1       7.732  25.190  56.060  1.00  0.00     0.020 A 
ENDBRANCH  18  19
ENDBRANCH  17  18
ENDBRANCH  16  17
ENDBRANCH  15  16
ENDBRANCH  12  15
ENDBRANCH   7  11
BRANCH   6  26
HETATM   26  C   UNL     1       9.153  31.015  61.860  1.00  0.00     0.252 C 
HETATM   27  N   UNL     1       8.969  29.839  62.539  1.00  0.00    -0.366 N 
HETATM   28  H   UNL     1       8.248  29.195  62.235  1.00  0.00     0.159 HD
HETATM   29  H   UNL     1       9.824  29.411  62.880  1.00  0.00     0.159 HD
HETATM   30  O   UNL     1      10.255  31.544  61.802  1.00  0.00    -0.268 OA
ENDBRANCH   6  26
BRANCH   1  31
HETATM   31  C   UNL     1       5.988  35.523  62.534  1.00  0.00     0.273 C 
BRANCH  31  32
HETATM   32  C   UNL     1       5.383  36.877  62.289  1.00  0.00    -0.033 A 
HETATM   33  C   UNL     1       4.177  37.035  61.592  1.00  0.00     0.009 A 
HETATM   34  C   UNL     1       3.633  38.308  61.407  1.00  0.00     0.001 A 
HETATM   35  C   UNL     1       4.276  39.429  61.929  1.00  0.00     0.000 A 
HETATM   36  C   UNL     1       5.464  39.284  62.637  1.00  0.00     0.001 A 
HETATM   37  C   UNL     1       6.017  38.016  62.815  1.00  0.00     0.009 A 
ENDBRANCH  31  32
ENDBRANCH   1  31
TORSDOF 9
ENDMDL
MODEL 10
REMARK VINA RESULT:      -8.5      4.503     11.225
REMARK  9 active torsions:
REMARK  status: ('A' for Active; 'I' for Inactive)
REMARK    1  A    between atoms: C_4  and  C_5 
REMARK    2  A    between atoms: C_5  and  N_6 
REMARK    3  A    between atoms: C_11  and  C_12 
REMARK       I    between atoms: C_12  and  N_13 
REMARK    4  A    between atoms: C_15  and  N_16 
REMARK       I    between atoms: N_16  and  C_17 
REMARK    5  A    between atoms: C_17  and  C_18 
REMARK    6  A    between atoms: C_18  and  C_19 
REMARK    7  A    between atoms: C_19  and  C_20 
REMARK    8  A    between atoms: C_20  and  S_21 
REMARK    9  A    between atoms: S_21  and  C_22 
ROOT
HETATM    1  N   UNL     1       7.773  28.037  56.154  1.00  0.00    -0.063 N 
HETATM    2  H   UNL     1       7.682  27.628  55.220  1.00  0.00     0.280 HD
HETATM    3  C   UNL     1       6.594  28.996  56.301  1.00  0.00     0.282 C 
HETATM    4  C   UNL     1       6.830  29.970  57.401  1.00  0.00     0.018 C 
HETATM    5  C   UNL     1       8.045  30.213  58.010  1.00  0.00    -0.023 C 
HETATM    6  C   UNL     1       7.903  31.109  59.135  1.00  0.00     0.073 C 
HETATM    7  C   UNL     1       6.653  31.714  59.110  1.00  0.00     0.093 C 
HETATM    8  S   UNL     1       5.598  30.962  58.003  1.00  0.00    -0.074 SA
HETATM    9  C   UNL     1       9.301  29.527  57.544  1.00  0.00     0.068 C 
HETATM   10  C   UNL     1       9.092  28.806  56.193  1.00  0.00     0.240 C 
ENDROOT
BRANCH   7  11
HETATM   11  N   UNL     1       6.216  32.765  59.902  1.00  0.00    -0.320 N 
HETATM   12  C   UNL     1       6.021  32.711  61.278  1.00  0.00     0.222 C 
HETATM   13  O   UNL     1       6.182  31.735  61.999  1.00  0.00    -0.273 OA
HETATM   14  H   UNL     1       5.733  33.511  59.413  1.00  0.00     0.169 HD
BRANCH  12  15
HETATM   15  C   UNL     1       5.562  34.053  61.831  1.00  0.00     0.104 C 
BRANCH  15  16
HETATM   16  C   UNL     1       4.218  34.516  61.270  1.00  0.00     0.020 C 
BRANCH  16  17
HETATM   17  C   UNL     1       3.196  35.099  62.253  1.00  0.00     0.080 C 
BRANCH  17  18
HETATM   18  S   UNL     1       3.712  36.562  63.223  1.00  0.00    -0.130 SA
BRANCH  18  19
HETATM   19  C   UNL     1       4.141  35.879  64.812  1.00  0.00     0.000 A 
HETATM   20  C   UNL     1       4.451  36.655  65.934  1.00  0.00     0.020 A 
HETATM   21  C   UNL     1       4.795  36.044  67.145  1.00  0.00     0.025 A 
HETATM   22  C   UNL     1       4.808  34.655  67.243  1.00  0.00     0.034 A 
HETATM   23 CL   UNL     1       5.240  33.904  68.729  1.00  0.00    -0.084 Cl
HETATM   24  C   UNL     1       4.471  33.870  66.145  1.00  0.00     0.025 A 
HETATM   25  C   UNL     1       4.135  34.483  64.935  1.00  0.00     0.020 A 
ENDBRANCH  18  19
ENDBRANCH  17  18
ENDBRANCH  16  17
ENDBRANCH  15  16
ENDBRANCH  12  15
ENDBRANCH   7  11
BRANCH   6  26
HETATM   26  C   UNL     1       8.962  31.408  60.094  1.00  0.00     0.252 C 
HETATM   27  N   UNL     1       9.038  30.575  61.178  1.00  0.00    -0.366 N 
HETATM   28  H   UNL     1       8.675  29.631  61.108  1.00  0.00     0.159 HD
HETATM   29  H   UNL     1       9.881  30.680  61.733  1.00  0.00     0.159 HD
HETATM   30  O   UNL     1       9.796  32.286  59.913  1.00  0.00    -0.268 OA
ENDBRANCH   6  26
BRANCH   1  31
HETATM   31  C   UNL     1       7.774  26.874  57.123  1.00  0.00     0.273 C 
BRANCH  31  32
HETATM   32  C   UNL     1       7.815  25.504  56.508  1.00  0.00    -0.033 A 
HETATM   33  C   UNL     1       8.636  24.487  57.017  1.00  0.00     0.009 A 
HETATM   34  C   UNL     1       8.627  23.218  56.433  1.00  0.00     0.001 A 
HETATM   35  C   UNL     1       7.789  22.948  55.353  1.00  0.00     0.000 A 
HETATM   36  C   UNL     1       6.959  23.943  54.849  1.00  0.00     0.001 A 
HETATM   37  C   UNL     1       6.972  25.215  55.421  1.00  0.00     0.009 A 
ENDBRANCH  31  32
ENDBRANCH   1  31
TORSDOF 9
ENDMDL
