MODEL 1
REMARK VINA RESULT:     -11.9      0.000      0.000
REMARK  6 active torsions:
REMARK  status: ('A' for Active; 'I' for Inactive)
REMARK    1  A    between atoms: C_8  and  C_9 
REMARK    2  A    between atoms: C_9  and  C_10 
REMARK    3  A    between atoms: C_10  and  N_11 
REMARK       I    between atoms: N_11  and  C_12 
REMARK    4  A    between atoms: C_12  and  C_13 
REMARK    5  A    between atoms: C_18  and  C_19 
REMARK    6  A    between atoms: C_29  and  C_30 
ROOT
HETATM    1  C   UNL     1       7.906  28.902  57.528  1.00  0.00     0.148 A 
HETATM    2  N   UNL     1       7.383  29.265  56.332  1.00  0.00    -0.165 NA
HETATM    3  N   UNL     1       6.850  28.122  55.869  1.00  0.00    -0.240 N 
HETATM    4  C   UNL     1       7.057  27.041  56.677  1.00  0.00     0.123 A 
HETATM    5  N   UNL     1       6.681  25.802  56.303  1.00  0.00    -0.366 N 
HETATM    6  C   UNL     1       6.267  25.488  54.936  1.00  0.00     0.118 C 
HETATM    7  C   UNL     1       6.601  26.638  53.960  1.00  0.00     0.066 C 
HETATM    8  C   UNL     1       6.260  28.017  54.549  1.00  0.00     0.221 C 
HETATM    9  C   UNL     1       7.692  27.521  57.789  1.00  0.00     0.088 A 
HETATM   10  H   UNL     1       6.845  24.998  56.908  1.00  0.00     0.161 HD
ENDROOT
BRANCH   1  11
HETATM   11  C   UNL     1       8.632  29.843  58.394  1.00  0.00     0.272 C 
HETATM   12  N   UNL     1       8.028  30.053  59.614  1.00  0.00    -0.355 N 
HETATM   13  H   UNL     1       7.289  29.392  59.846  1.00  0.00     0.162 HD
HETATM   14  O   UNL     1       9.677  30.388  58.055  1.00  0.00    -0.266 OA
BRANCH  12  15
HETATM   15  C   UNL     1       8.670  30.835  60.647  1.00  0.00     0.127 C 
BRANCH  15  16
HETATM   16  C   UNL     1       8.292  32.316  60.604  1.00  0.00     0.060 C 
BRANCH  16  17
HETATM   17  C   UNL     1       7.022  32.611  61.342  1.00  0.00    -0.029 A 
HETATM   18  C   UNL     1       6.882  32.933  62.731  1.00  0.00    -0.002 A 
HETATM   19  C   UNL     1       7.785  33.068  63.805  1.00  0.00     0.014 A 
HETATM   20  C   UNL     1       5.525  33.149  62.974  1.00  0.00     0.042 A 
HETATM   21  C   UNL     1       7.302  33.413  65.073  1.00  0.00     0.001 A 
HETATM   22  C   UNL     1       5.940  33.623  65.282  1.00  0.00     0.002 A 
HETATM   23  C   UNL     1       5.025  33.495  64.234  1.00  0.00     0.030 A 
HETATM   24  N   UNL     1       4.864  32.960  61.783  1.00  0.00    -0.365 N 
HETATM   25  H   UNL     1       3.867  33.054  61.661  1.00  0.00     0.165 HD
HETATM   26  C   UNL     1       5.753  32.631  60.796  1.00  0.00     0.096 A 
ENDBRANCH  16  17
ENDBRANCH  15  16
ENDBRANCH  12  15
ENDBRANCH   1  11
BRANCH   8  27
HETATM   27  C   UNL     1       4.772  28.271  54.619  1.00  0.00     0.409 C 
HETATM   28  F   UNL     1       4.245  27.949  55.819  1.00  0.00    -0.169 F 
HETATM   29  F   UNL     1       4.528  29.596  54.436  1.00  0.00    -0.169 F 
HETATM   30  F   UNL     1       4.067  27.620  53.670  1.00  0.00    -0.169 F 
ENDBRANCH   8  27
BRANCH   6  31
HETATM   31  C   UNL     1       6.937  24.187  54.524  1.00  0.00    -0.033 A 
HETATM   32  C   UNL     1       7.243  23.202  55.485  1.00  0.00     0.049 A 
HETATM   33  C   UNL     1       7.815  22.023  55.060  1.00  0.00     0.105 A 
HETATM   34  C   UNL     1       8.084  21.787  53.734  1.00  0.00     0.105 A 
HETATM   35  O   UNL     1       8.162  20.978  55.856  1.00  0.00    -0.323 OA
HETATM   36  O   UNL     1       8.635  20.561  53.528  1.00  0.00    -0.323 OA
HETATM   37  C   UNL     1       7.797  22.719  52.760  1.00  0.00     0.040 A 
HETATM   38  C   UNL     1       8.674  20.050  54.876  1.00  0.00     0.352 A 
HETATM   39  C   UNL     1       7.219  23.928  53.162  1.00  0.00     0.012 A 
ENDBRANCH   6  31
TORSDOF 6
ENDMDL
MODEL 2
REMARK VINA RESULT:     -11.3      1.981      2.463
REMARK  6 active torsions:
REMARK  status: ('A' for Active; 'I' for Inactive)
REMARK    1  A    between atoms: C_8  and  C_9 
REMARK    2  A    between atoms: C_9  and  C_10 
REMARK    3  A    between atoms: C_10  and  N_11 
REMARK       I    between atoms: N_11  and  C_12 
REMARK    4  A    between atoms: C_12  and  C_13 
REMARK    5  A    between atoms: C_18  and  C_19 
REMARK    6  A    between atoms: C_29  and  C_30 
ROOT
HETATM    1  C   UNL     1       5.513  28.532  56.297  1.00  0.00     0.148 A 
HETATM    2  N   UNL     1       6.091  28.808  55.104  1.00  0.00    -0.165 NA
HETATM    3  N   UNL     1       6.094  27.617  54.480  1.00  0.00    -0.240 N 
HETATM    4  C   UNL     1       5.604  26.590  55.235  1.00  0.00     0.123 A 
HETATM    5  N   UNL     1       5.642  25.316  54.795  1.00  0.00    -0.366 N 
HETATM    6  C   UNL     1       6.417  24.914  53.623  1.00  0.00     0.118 C 
HETATM    7  C   UNL     1       7.385  26.030  53.168  1.00  0.00     0.066 C 
HETATM    8  C   UNL     1       6.722  27.417  53.189  1.00  0.00     0.221 C 
HETATM    9  C   UNL     1       5.167  27.156  56.400  1.00  0.00     0.088 A 
HETATM   10  H   UNL     1       5.280  24.553  55.366  1.00  0.00     0.161 HD
ENDROOT
BRANCH   1  11
HETATM   11  C   UNL     1       5.323  29.550  57.341  1.00  0.00     0.272 C 
HETATM   12  N   UNL     1       6.501  30.072  57.828  1.00  0.00    -0.355 N 
HETATM   13  H   UNL     1       7.328  29.851  57.278  1.00  0.00     0.162 HD
HETATM   14  O   UNL     1       4.215  29.898  57.737  1.00  0.00    -0.266 OA
BRANCH  12  15
HETATM   15  C   UNL     1       6.506  31.181  58.756  1.00  0.00     0.127 C 
BRANCH  15  16
HETATM   16  C   UNL     1       7.912  31.635  59.146  1.00  0.00     0.060 C 
BRANCH  16  17
HETATM   17  C   UNL     1       8.145  31.589  60.626  1.00  0.00    -0.029 A 
HETATM   18  C   UNL     1       7.588  32.459  61.618  1.00  0.00    -0.002 A 
HETATM   19  C   UNL     1       6.719  33.568  61.577  1.00  0.00     0.014 A 
HETATM   20  C   UNL     1       8.063  32.035  62.859  1.00  0.00     0.042 A 
HETATM   21  C   UNL     1       6.356  34.205  62.769  1.00  0.00     0.001 A 
HETATM   22  C   UNL     1       6.847  33.755  63.993  1.00  0.00     0.002 A 
HETATM   23  C   UNL     1       7.711  32.659  64.061  1.00  0.00     0.030 A 
HETATM   24  N   UNL     1       8.881  30.952  62.632  1.00  0.00    -0.365 N 
HETATM   25  H   UNL     1       9.362  30.437  63.355  1.00  0.00     0.165 HD
HETATM   26  C   UNL     1       8.942  30.678  61.293  1.00  0.00     0.096 A 
ENDBRANCH  16  17
ENDBRANCH  15  16
ENDBRANCH  12  15
ENDBRANCH   1  11
BRANCH   8  27
HETATM   27  C   UNL     1       5.711  27.599  52.081  1.00  0.00     0.409 C 
HETATM   28  F   UNL     1       4.441  27.410  52.500  1.00  0.00    -0.169 F 
HETATM   29  F   UNL     1       5.775  28.873  51.612  1.00  0.00    -0.169 F 
HETATM   30  F   UNL     1       5.920  26.792  51.021  1.00  0.00    -0.169 F 
ENDBRANCH   8  27
BRANCH   6  31
HETATM   31  C   UNL     1       7.157  23.629  53.961  1.00  0.00    -0.033 A 
HETATM   32  C   UNL     1       7.376  23.260  55.303  1.00  0.00     0.049 A 
HETATM   33  C   UNL     1       8.017  22.068  55.561  1.00  0.00     0.105 A 
HETATM   34  C   UNL     1       8.436  21.239  54.551  1.00  0.00     0.105 A 
HETATM   35  O   UNL     1       8.297  21.570  56.795  1.00  0.00    -0.323 OA
HETATM   36  O   UNL     1       9.033  20.111  55.020  1.00  0.00    -0.323 OA
HETATM   37  C   UNL     1       8.239  21.557  53.224  1.00  0.00     0.040 A 
HETATM   38  C   UNL     1       8.934  20.323  56.443  1.00  0.00     0.352 A 
HETATM   39  C   UNL     1       7.593  22.764  52.930  1.00  0.00     0.012 A 
ENDBRANCH   6  31
TORSDOF 6
ENDMDL
MODEL 3
REMARK VINA RESULT:     -11.1      1.358      1.701
REMARK  6 active torsions:
REMARK  status: ('A' for Active; 'I' for Inactive)
REMARK    1  A    between atoms: C_8  and  C_9 
REMARK    2  A    between atoms: C_9  and  C_10 
REMARK    3  A    between atoms: C_10  and  N_11 
REMARK       I    between atoms: N_11  and  C_12 
REMARK    4  A    between atoms: C_12  and  C_13 
REMARK    5  A    between atoms: C_18  and  C_19 
REMARK    6  A    between atoms: C_29  and  C_30 
ROOT
HETATM    1  C   UNL     1       7.103  28.701  56.970  1.00  0.00     0.148 A 
HETATM    2  N   UNL     1       7.359  28.975  55.669  1.00  0.00    -0.165 NA
HETATM    3  N   UNL     1       6.989  27.848  55.038  1.00  0.00    -0.240 N 
HETATM    4  C   UNL     1       6.568  26.852  55.872  1.00  0.00     0.123 A 
HETATM    5  N   UNL     1       6.268  25.625  55.404  1.00  0.00    -0.366 N 
HETATM    6  C   UNL     1       6.604  25.200  54.046  1.00  0.00     0.118 C 
HETATM    7  C   UNL     1       7.575  26.187  53.362  1.00  0.00     0.066 C 
HETATM    8  C   UNL     1       7.185  27.654  53.614  1.00  0.00     0.221 C 
HETATM    9  C   UNL     1       6.577  27.389  57.129  1.00  0.00     0.088 A 
HETATM   10  H   UNL     1       5.960  24.884  56.033  1.00  0.00     0.161 HD
ENDROOT
BRANCH   1  11
HETATM   11  C   UNL     1       7.386  29.655  58.053  1.00  0.00     0.272 C 
HETATM   12  N   UNL     1       6.685  30.836  57.951  1.00  0.00    -0.355 N 
HETATM   13  H   UNL     1       5.922  30.824  57.278  1.00  0.00     0.162 HD
HETATM   14  O   UNL     1       8.177  29.414  58.960  1.00  0.00    -0.266 OA
BRANCH  12  15
HETATM   15  C   UNL     1       6.731  31.831  58.999  1.00  0.00     0.127 C 
BRANCH  15  16
HETATM   16  C   UNL     1       5.475  31.849  59.869  1.00  0.00     0.060 C 
BRANCH  16  17
HETATM   17  C   UNL     1       5.478  32.966  60.868  1.00  0.00    -0.029 A 
HETATM   18  C   UNL     1       6.236  33.041  62.081  1.00  0.00    -0.002 A 
HETATM   19  C   UNL     1       7.151  32.182  62.724  1.00  0.00     0.014 A 
HETATM   20  C   UNL     1       5.941  34.265  62.682  1.00  0.00     0.042 A 
HETATM   21  C   UNL     1       7.735  32.577  63.933  1.00  0.00     0.001 A 
HETATM   22  C   UNL     1       7.421  33.808  64.506  1.00  0.00     0.002 A 
HETATM   23  C   UNL     1       6.516  34.676  63.890  1.00  0.00     0.030 A 
HETATM   24  N   UNL     1       5.037  34.908  61.870  1.00  0.00    -0.365 N 
HETATM   25  H   UNL     1       4.648  35.821  62.057  1.00  0.00     0.165 HD
HETATM   26  C   UNL     1       4.747  34.135  60.779  1.00  0.00     0.096 A 
ENDBRANCH  16  17
ENDBRANCH  15  16
ENDBRANCH  12  15
ENDBRANCH   1  11
BRANCH   8  27
HETATM   27  C   UNL     1       5.947  28.069  52.854  1.00  0.00     0.409 C 
HETATM   28  F   UNL     1       6.138  29.185  52.120  1.00  0.00    -0.169 F 
HETATM   29  F   UNL     1       5.603  27.087  51.978  1.00  0.00    -0.169 F 
HETATM   30  F   UNL     1       4.871  28.271  53.642  1.00  0.00    -0.169 F 
ENDBRANCH   8  27
BRANCH   6  31
HETATM   31  C   UNL     1       7.185  23.796  54.118  1.00  0.00    -0.033 A 
HETATM   32  C   UNL     1       7.354  23.152  55.361  1.00  0.00     0.049 A 
HETATM   33  C   UNL     1       7.848  21.867  55.374  1.00  0.00     0.105 A 
HETATM   34  C   UNL     1       8.170  21.204  54.215  1.00  0.00     0.105 A 
HETATM   35  O   UNL     1       8.062  21.111  56.483  1.00  0.00    -0.323 OA
HETATM   36  O   UNL     1       8.627  19.945  54.449  1.00  0.00    -0.323 OA
HETATM   37  C   UNL     1       8.017  21.792  52.978  1.00  0.00     0.040 A 
HETATM   38  C   UNL     1       8.548  19.890  55.888  1.00  0.00     0.352 A 
HETATM   39  C   UNL     1       7.520  23.100  52.933  1.00  0.00     0.012 A 
ENDBRANCH   6  31
TORSDOF 6
ENDMDL
MODEL 4
REMARK VINA RESULT:     -11.0      2.998     10.965
REMARK  6 active torsions:
REMARK  status: ('A' for Active; 'I' for Inactive)
REMARK    1  A    between atoms: C_8  and  C_9 
REMARK    2  A    between atoms: C_9  and  C_10 
REMARK    3  A    between atoms: C_10  and  N_11 
REMARK       I    between atoms: N_11  and  C_12 
REMARK    4  A    between atoms: C_12  and  C_13 
REMARK    5  A    between atoms: C_18  and  C_19 
REMARK    6  A    between atoms: C_29  and  C_30 
ROOT
HETATM    1  C   UNL     1       7.012  29.221  57.457  1.00  0.00     0.148 A 
HETATM    2  N   UNL     1       5.718  29.599  57.332  1.00  0.00    -0.165 NA
HETATM    3  N   UNL     1       5.658  30.736  58.047  1.00  0.00    -0.240 N 
HETATM    4  C   UNL     1       6.828  31.068  58.667  1.00  0.00     0.123 A 
HETATM    5  N   UNL     1       6.903  32.118  59.508  1.00  0.00    -0.366 N 
HETATM    6  C   UNL     1       5.715  32.808  60.008  1.00  0.00     0.118 C 
HETATM    7  C   UNL     1       4.424  32.015  59.704  1.00  0.00     0.066 C 
HETATM    8  C   UNL     1       4.415  31.446  58.275  1.00  0.00     0.221 C 
HETATM    9  C   UNL     1       7.744  30.137  58.262  1.00  0.00     0.088 A 
HETATM   10  H   UNL     1       7.778  32.357  59.972  1.00  0.00     0.161 HD
ENDROOT
BRANCH   1  11
HETATM   11  C   UNL     1       7.541  27.989  56.852  1.00  0.00     0.272 C 
HETATM   12  N   UNL     1       7.569  26.915  57.714  1.00  0.00    -0.355 N 
HETATM   13  H   UNL     1       7.042  27.043  58.575  1.00  0.00     0.162 HD
HETATM   14  O   UNL     1       7.921  27.931  55.687  1.00  0.00    -0.266 OA
BRANCH  12  15
HETATM   15  C   UNL     1       7.925  25.591  57.255  1.00  0.00     0.127 C 
BRANCH  15  16
HETATM   16  C   UNL     1       6.734  24.799  56.716  1.00  0.00     0.060 C 
BRANCH  16  17
HETATM   17  C   UNL     1       6.993  24.216  55.361  1.00  0.00    -0.029 A 
HETATM   18  C   UNL     1       7.411  22.879  55.058  1.00  0.00    -0.002 A 
HETATM   19  C   UNL     1       7.713  21.743  55.837  1.00  0.00     0.014 A 
HETATM   20  C   UNL     1       7.507  22.776  53.670  1.00  0.00     0.042 A 
HETATM   21  C   UNL     1       8.094  20.554  55.204  1.00  0.00     0.001 A 
HETATM   22  C   UNL     1       8.177  20.484  53.815  1.00  0.00     0.002 A 
HETATM   23  C   UNL     1       7.885  21.596  53.021  1.00  0.00     0.030 A 
HETATM   24  N   UNL     1       7.166  24.002  53.148  1.00  0.00    -0.365 N 
HETATM   25  H   UNL     1       7.144  24.217  52.162  1.00  0.00     0.165 HD
HETATM   26  C   UNL     1       6.860  24.876  54.155  1.00  0.00     0.096 A 
ENDBRANCH  16  17
ENDBRANCH  15  16
ENDBRANCH  12  15
ENDBRANCH   1  11
BRANCH   8  27
HETATM   27  C   UNL     1       4.220  32.511  57.222  1.00  0.00     0.409 C 
HETATM   28  F   UNL     1       5.386  32.948  56.701  1.00  0.00    -0.169 F 
HETATM   29  F   UNL     1       3.504  32.000  56.186  1.00  0.00    -0.169 F 
HETATM   30  F   UNL     1       3.536  33.588  57.663  1.00  0.00    -0.169 F 
ENDBRANCH   8  27
BRANCH   6  31
HETATM   31  C   UNL     1       5.894  33.042  61.500  1.00  0.00    -0.033 A 
HETATM   32  C   UNL     1       4.778  33.268  62.330  1.00  0.00     0.049 A 
HETATM   33  C   UNL     1       4.986  33.437  63.681  1.00  0.00     0.105 A 
HETATM   34  C   UNL     1       6.243  33.385  64.231  1.00  0.00     0.105 A 
HETATM   35  O   UNL     1       4.019  33.655  64.611  1.00  0.00    -0.323 OA
HETATM   36  O   UNL     1       6.227  33.564  65.579  1.00  0.00    -0.323 OA
HETATM   37  C   UNL     1       7.363  33.162  63.459  1.00  0.00     0.040 A 
HETATM   38  C   UNL     1       4.813  33.726  65.814  1.00  0.00     0.352 A 
HETATM   39  C   UNL     1       7.183  32.990  62.081  1.00  0.00     0.012 A 
ENDBRANCH   6  31
TORSDOF 6
ENDMDL
MODEL 5
REMARK VINA RESULT:     -10.5      2.117      3.054
REMARK  6 active torsions:
REMARK  status: ('A' for Active; 'I' for Inactive)
REMARK    1  A    between atoms: C_8  and  C_9 
REMARK    2  A    between atoms: C_9  and  C_10 
REMARK    3  A    between atoms: C_10  and  N_11 
REMARK       I    between atoms: N_11  and  C_12 
REMARK    4  A    between atoms: C_12  and  C_13 
REMARK    5  A    between atoms: C_18  and  C_19 
REMARK    6  A    between atoms: C_29  and  C_30 
ROOT
HETATM    1  C   UNL     1       5.173  29.186  55.457  1.00  0.00     0.148 A 
HETATM    2  N   UNL     1       5.808  29.135  54.262  1.00  0.00    -0.165 NA
HETATM    3  N   UNL     1       5.858  27.819  53.994  1.00  0.00    -0.240 N 
HETATM    4  C   UNL     1       5.343  27.028  54.981  1.00  0.00     0.123 A 
HETATM    5  N   UNL     1       5.418  25.684  54.915  1.00  0.00    -0.366 N 
HETATM    6  C   UNL     1       6.257  24.994  53.937  1.00  0.00     0.118 C 
HETATM    7  C   UNL     1       7.234  25.964  53.235  1.00  0.00     0.066 C 
HETATM    8  C   UNL     1       6.554  27.286  52.839  1.00  0.00     0.221 C 
HETATM    9  C   UNL     1       4.840  27.883  55.922  1.00  0.00     0.088 A 
HETATM   10  H   UNL     1       5.037  25.100  55.658  1.00  0.00     0.161 HD
ENDROOT
BRANCH   1  11
HETATM   11  C   UNL     1       4.919  30.448  56.167  1.00  0.00     0.272 C 
HETATM   12  N   UNL     1       4.748  30.296  57.526  1.00  0.00    -0.355 N 
HETATM   13  H   UNL     1       5.020  29.387  57.893  1.00  0.00     0.162 HD
HETATM   14  O   UNL     1       4.863  31.532  55.596  1.00  0.00    -0.266 OA
BRANCH  12  15
HETATM   15  C   UNL     1       4.628  31.441  58.401  1.00  0.00     0.127 C 
BRANCH  15  16
HETATM   16  C   UNL     1       5.908  32.272  58.486  1.00  0.00     0.060 C 
BRANCH  16  17
HETATM   17  C   UNL     1       6.887  31.729  59.481  1.00  0.00    -0.029 A 
HETATM   18  C   UNL     1       7.099  32.183  60.824  1.00  0.00    -0.002 A 
HETATM   19  C   UNL     1       6.537  33.203  61.617  1.00  0.00     0.014 A 
HETATM   20  C   UNL     1       8.089  31.376  61.385  1.00  0.00     0.042 A 
HETATM   21  C   UNL     1       6.980  33.377  62.934  1.00  0.00     0.001 A 
HETATM   22  C   UNL     1       7.969  32.552  63.465  1.00  0.00     0.002 A 
HETATM   23  C   UNL     1       8.544  31.534  62.699  1.00  0.00     0.030 A 
HETATM   24  N   UNL     1       8.469  30.470  60.422  1.00  0.00    -0.365 N 
HETATM   25  H   UNL     1       9.171  29.757  60.553  1.00  0.00     0.165 HD
HETATM   26  C   UNL     1       7.757  30.677  59.272  1.00  0.00     0.096 A 
ENDBRANCH  16  17
ENDBRANCH  15  16
ENDBRANCH  12  15
ENDBRANCH   1  11
BRANCH   8  27
HETATM   27  C   UNL     1       5.598  27.128  51.680  1.00  0.00     0.409 C 
HETATM   28  F   UNL     1       4.307  27.074  52.073  1.00  0.00    -0.169 F 
HETATM   29  F   UNL     1       5.703  28.203  50.855  1.00  0.00    -0.169 F 
HETATM   30  F   UNL     1       5.844  26.040  50.921  1.00  0.00    -0.169 F 
ENDBRANCH   8  27
BRANCH   6  31
HETATM   31  C   UNL     1       6.994  23.872  54.652  1.00  0.00    -0.033 A 
HETATM   32  C   UNL     1       7.301  22.672  53.979  1.00  0.00     0.049 A 
HETATM   33  C   UNL     1       8.004  21.700  54.656  1.00  0.00     0.105 A 
HETATM   34  C   UNL     1       8.413  21.875  55.955  1.00  0.00     0.105 A 
HETATM   35  O   UNL     1       8.380  20.496  54.148  1.00  0.00    -0.323 OA
HETATM   36  O   UNL     1       9.101  20.803  56.430  1.00  0.00    -0.323 OA
HETATM   37  C   UNL     1       8.140  23.033  56.650  1.00  0.00     0.040 A 
HETATM   38  C   UNL     1       9.084  19.936  55.277  1.00  0.00     0.352 A 
HETATM   39  C   UNL     1       7.424  24.039  55.990  1.00  0.00     0.012 A 
ENDBRANCH   6  31
TORSDOF 6
ENDMDL
MODEL 6
REMARK VINA RESULT:     -10.5      4.078      5.266
REMARK  6 active torsions:
REMARK  status: ('A' for Active; 'I' for Inactive)
REMARK    1  A    between atoms: C_8  and  C_9 
REMARK    2  A    between atoms: C_9  and  C_10 
REMARK    3  A    between atoms: C_10  and  N_11 
REMARK       I    between atoms: N_11  and  C_12 
REMARK    4  A    between atoms: C_12  and  C_13 
REMARK    5  A    between atoms: C_18  and  C_19 
REMARK    6  A    between atoms: C_29  and  C_30 
ROOT
HETATM    1  C   UNL     1       6.479  27.852  55.929  1.00  0.00     0.148 A 
HETATM    2  N   UNL     1       6.059  26.565  55.875  1.00  0.00    -0.165 NA
HETATM    3  N   UNL     1       6.146  26.267  54.568  1.00  0.00    -0.240 N 
HETATM    4  C   UNL     1       6.542  27.311  53.781  1.00  0.00     0.123 A 
HETATM    5  N   UNL     1       6.572  27.205  52.438  1.00  0.00    -0.366 N 
HETATM    6  C   UNL     1       5.960  26.085  51.726  1.00  0.00     0.118 C 
HETATM    7  C   UNL     1       5.050  25.247  52.653  1.00  0.00     0.066 C 
HETATM    8  C   UNL     1       5.694  25.000  54.028  1.00  0.00     0.221 C 
HETATM    9  C   UNL     1       6.819  28.340  54.637  1.00  0.00     0.088 A 
HETATM   10  H   UNL     1       6.863  27.990  51.857  1.00  0.00     0.161 HD
ENDROOT
BRANCH   1  11
HETATM   11  C   UNL     1       6.523  28.620  57.182  1.00  0.00     0.272 C 
HETATM   12  N   UNL     1       7.794  28.796  57.682  1.00  0.00    -0.355 N 
HETATM   13  H   UNL     1       8.545  28.562  57.036  1.00  0.00     0.162 HD
HETATM   14  O   UNL     1       5.515  29.061  57.727  1.00  0.00    -0.266 OA
BRANCH  12  15
HETATM   15  C   UNL     1       8.042  29.643  58.827  1.00  0.00     0.127 C 
BRANCH  15  16
HETATM   16  C   UNL     1       8.003  31.134  58.494  1.00  0.00     0.060 C 
BRANCH  16  17
HETATM   17  C   UNL     1       7.125  31.912  59.426  1.00  0.00    -0.029 A 
HETATM   18  C   UNL     1       7.376  32.211  60.805  1.00  0.00    -0.002 A 
HETATM   19  C   UNL     1       8.419  31.910  61.703  1.00  0.00     0.014 A 
HETATM   20  C   UNL     1       6.302  32.973  61.268  1.00  0.00     0.042 A 
HETATM   21  C   UNL     1       8.354  32.378  63.020  1.00  0.00     0.001 A 
HETATM   22  C   UNL     1       7.268  33.139  63.450  1.00  0.00     0.002 A 
HETATM   23  C   UNL     1       6.220  33.451  62.580  1.00  0.00     0.030 A 
HETATM   24  N   UNL     1       5.430  33.127  60.215  1.00  0.00    -0.365 N 
HETATM   25  H   UNL     1       4.563  33.641  60.262  1.00  0.00     0.165 HD
HETATM   26  C   UNL     1       5.912  32.490  59.105  1.00  0.00     0.096 A 
ENDBRANCH  16  17
ENDBRANCH  15  16
ENDBRANCH  12  15
ENDBRANCH   1  11
BRANCH   8  27
HETATM   27  C   UNL     1       6.840  24.017  53.969  1.00  0.00     0.409 C 
HETATM   28  F   UNL     1       6.832  23.276  52.840  1.00  0.00    -0.169 F 
HETATM   29  F   UNL     1       8.019  24.693  53.976  1.00  0.00    -0.169 F 
HETATM   30  F   UNL     1       6.880  23.170  55.018  1.00  0.00    -0.169 F 
ENDBRANCH   8  27
BRANCH   6  31
HETATM   31  C   UNL     1       5.192  26.642  50.537  1.00  0.00    -0.033 A 
HETATM   32  C   UNL     1       4.367  25.804  49.760  1.00  0.00     0.049 A 
HETATM   33  C   UNL     1       3.662  26.360  48.716  1.00  0.00     0.105 A 
HETATM   34  C   UNL     1       3.739  27.699  48.423  1.00  0.00     0.105 A 
HETATM   35  O   UNL     1       2.823  25.692  47.881  1.00  0.00    -0.323 OA
HETATM   36  O   UNL     1       2.957  28.045  47.366  1.00  0.00    -0.323 OA
HETATM   37  C   UNL     1       4.529  28.557  49.158  1.00  0.00     0.040 A 
HETATM   38  C   UNL     1       2.372  26.769  47.032  1.00  0.00     0.352 A 
HETATM   39  C   UNL     1       5.261  28.020  50.224  1.00  0.00     0.012 A 
ENDBRANCH   6  31
TORSDOF 6
ENDMDL
MODEL 7
REMARK VINA RESULT:     -10.4      5.137      9.497
REMARK  6 active torsions:
REMARK  status: ('A' for Active; 'I' for Inactive)
REMARK    1  A    between atoms: C_8  and  C_9 
REMARK    2  A    between atoms: C_9  and  C_10 
REMARK    3  A    between atoms: C_10  and  N_11 
REMARK       I    between atoms: N_11  and  C_12 
REMARK    4  A    between atoms: C_12  and  C_13 
REMARK    5  A    between atoms: C_18  and  C_19 
REMARK    6  A    between atoms: C_29  and  C_30 
ROOT
HETATM    1  C   UNL     1       4.650  28.442  52.756  1.00  0.00     0.148 A 
HETATM    2  N   UNL     1       4.326  28.268  54.060  1.00  0.00    -0.165 NA
HETATM    3  N   UNL     1       5.319  27.489  54.523  1.00  0.00    -0.240 N 
HETATM    4  C   UNL     1       6.223  27.111  53.571  1.00  0.00     0.123 A 
HETATM    5  N   UNL     1       7.214  26.241  53.851  1.00  0.00    -0.366 N 
HETATM    6  C   UNL     1       7.247  25.461  55.087  1.00  0.00     0.118 C 
HETATM    7  C   UNL     1       5.902  25.534  55.844  1.00  0.00     0.066 C 
HETATM    8  C   UNL     1       5.328  26.961  55.873  1.00  0.00     0.221 C 
HETATM    9  C   UNL     1       5.850  27.755  52.425  1.00  0.00     0.088 A 
HETATM   10  H   UNL     1       7.881  25.959  53.134  1.00  0.00     0.161 HD
ENDROOT
BRANCH   1  11
HETATM   11  C   UNL     1       3.814  29.218  51.828  1.00  0.00     0.272 C 
HETATM   12  N   UNL     1       4.501  30.201  51.151  1.00  0.00    -0.355 N 
HETATM   13  H   UNL     1       5.515  30.136  51.214  1.00  0.00     0.162 HD
HETATM   14  O   UNL     1       2.615  29.005  51.677  1.00  0.00    -0.266 OA
BRANCH  12  15
HETATM   15  C   UNL     1       3.875  30.968  50.098  1.00  0.00     0.127 C 
BRANCH  15  16
HETATM   16  C   UNL     1       4.422  30.644  48.708  1.00  0.00     0.060 C 
BRANCH  16  17
HETATM   17  C   UNL     1       3.532  29.716  47.938  1.00  0.00    -0.029 A 
HETATM   18  C   UNL     1       3.479  28.288  48.034  1.00  0.00    -0.002 A 
HETATM   19  C   UNL     1       4.173  27.327  48.797  1.00  0.00     0.014 A 
HETATM   20  C   UNL     1       2.494  27.847  47.150  1.00  0.00     0.042 A 
HETATM   21  C   UNL     1       3.859  25.971  48.651  1.00  0.00     0.001 A 
HETATM   22  C   UNL     1       2.868  25.563  47.759  1.00  0.00     0.002 A 
HETATM   23  C   UNL     1       2.166  26.495  46.991  1.00  0.00     0.030 A 
HETATM   24  N   UNL     1       1.973  28.960  46.535  1.00  0.00    -0.365 N 
HETATM   25  H   UNL     1       1.236  28.941  45.844  1.00  0.00     0.165 HD
HETATM   26  C   UNL     1       2.592  30.089  46.997  1.00  0.00     0.096 A 
ENDBRANCH  16  17
ENDBRANCH  15  16
ENDBRANCH  12  15
ENDBRANCH   1  11
BRANCH   8  27
HETATM   27  C   UNL     1       6.097  27.882  56.790  1.00  0.00     0.409 C 
HETATM   28  F   UNL     1       6.879  28.753  56.117  1.00  0.00    -0.169 F 
HETATM   29  F   UNL     1       5.225  28.630  57.517  1.00  0.00    -0.169 F 
HETATM   30  F   UNL     1       6.875  27.232  57.681  1.00  0.00    -0.169 F 
ENDBRANCH   8  27
BRANCH   6  31
HETATM   31  C   UNL     1       7.619  24.030  54.735  1.00  0.00    -0.033 A 
HETATM   32  C   UNL     1       7.971  23.111  55.744  1.00  0.00     0.049 A 
HETATM   33  C   UNL     1       8.264  21.815  55.381  1.00  0.00     0.105 A 
HETATM   34  C   UNL     1       8.213  21.402  54.073  1.00  0.00     0.105 A 
HETATM   35  O   UNL     1       8.613  20.814  56.231  1.00  0.00    -0.323 OA
HETATM   36  O   UNL     1       8.524  20.085  53.933  1.00  0.00    -0.323 OA
HETATM   37  C   UNL     1       7.869  22.263  53.054  1.00  0.00     0.040 A 
HETATM   38  C   UNL     1       8.769  19.717  55.306  1.00  0.00     0.352 A 
HETATM   39  C   UNL     1       7.570  23.589  53.391  1.00  0.00     0.012 A 
ENDBRANCH   6  31
TORSDOF 6
ENDMDL
MODEL 8
REMARK VINA RESULT:     -10.4      3.313      4.709
REMARK  6 active torsions:
REMARK  status: ('A' for Active; 'I' for Inactive)
REMARK    1  A    between atoms: C_8  and  C_9 
REMARK    2  A    between atoms: C_9  and  C_10 
REMARK    3  A    between atoms: C_10  and  N_11 
REMARK       I    between atoms: N_11  and  C_12 
REMARK    4  A    between atoms: C_12  and  C_13 
REMARK    5  A    between atoms: C_18  and  C_19 
REMARK    6  A    between atoms: C_29  and  C_30 
ROOT
HETATM    1  C   UNL     1       7.267  31.028  59.411  1.00  0.00     0.148 A 
HETATM    2  N   UNL     1       8.476  30.423  59.327  1.00  0.00    -0.165 NA
HETATM    3  N   UNL     1       8.519  29.994  58.055  1.00  0.00    -0.240 N 
HETATM    4  C   UNL     1       7.380  30.241  57.342  1.00  0.00     0.123 A 
HETATM    5  N   UNL     1       7.223  29.776  56.087  1.00  0.00    -0.366 N 
HETATM    6  C   UNL     1       8.123  28.785  55.500  1.00  0.00     0.118 C 
HETATM    7  C   UNL     1       9.043  28.146  56.565  1.00  0.00     0.066 C 
HETATM    8  C   UNL     1       9.611  29.189  57.542  1.00  0.00     0.221 C 
HETATM    9  C   UNL     1       6.567  30.959  58.174  1.00  0.00     0.088 A 
HETATM   10  H   UNL     1       6.368  29.959  55.564  1.00  0.00     0.161 HD
ENDROOT
BRANCH   1  11
HETATM   11  C   UNL     1       6.766  31.632  60.654  1.00  0.00     0.272 C 
HETATM   12  N   UNL     1       7.226  31.014  61.796  1.00  0.00    -0.355 N 
HETATM   13  H   UNL     1       7.999  30.368  61.652  1.00  0.00     0.162 HD
HETATM   14  O   UNL     1       6.008  32.597  60.666  1.00  0.00    -0.266 OA
BRANCH  12  15
HETATM   15  C   UNL     1       6.951  31.556  63.108  1.00  0.00     0.127 C 
BRANCH  15  16
HETATM   16  C   UNL     1       7.709  32.852  63.396  1.00  0.00     0.060 C 
BRANCH  16  17
HETATM   17  C   UNL     1       6.926  33.804  64.248  1.00  0.00    -0.029 A 
HETATM   18  C   UNL     1       6.101  34.887  63.801  1.00  0.00    -0.002 A 
HETATM   19  C   UNL     1       5.765  35.411  62.537  1.00  0.00     0.014 A 
HETATM   20  C   UNL     1       5.553  35.488  64.935  1.00  0.00     0.042 A 
HETATM   21  C   UNL     1       4.897  36.506  62.452  1.00  0.00     0.001 A 
HETATM   22  C   UNL     1       4.365  37.082  63.604  1.00  0.00     0.002 A 
HETATM   23  C   UNL     1       4.684  36.583  64.869  1.00  0.00     0.030 A 
HETATM   24  N   UNL     1       6.029  34.802  66.028  1.00  0.00    -0.365 N 
HETATM   25  H   UNL     1       5.793  35.018  66.986  1.00  0.00     0.165 HD
HETATM   26  C   UNL     1       6.859  33.791  65.627  1.00  0.00     0.096 A 
ENDBRANCH  16  17
ENDBRANCH  15  16
ENDBRANCH  12  15
ENDBRANCH   1  11
BRANCH   8  27
HETATM   27  C   UNL     1      10.660  30.072  56.910  1.00  0.00     0.409 C 
HETATM   28  F   UNL     1      11.918  29.668  57.189  1.00  0.00    -0.169 F 
HETATM   29  F   UNL     1      10.534  30.030  55.557  1.00  0.00    -0.169 F 
HETATM   30  F   UNL     1      10.557  31.371  57.262  1.00  0.00    -0.169 F 
ENDBRANCH   8  27
BRANCH   6  31
HETATM   31  C   UNL     1       7.279  27.742  54.785  1.00  0.00    -0.033 A 
HETATM   32  C   UNL     1       6.953  27.893  53.422  1.00  0.00     0.049 A 
HETATM   33  C   UNL     1       6.218  26.904  52.807  1.00  0.00     0.105 A 
HETATM   34  C   UNL     1       5.807  25.782  53.484  1.00  0.00     0.105 A 
HETATM   35  O   UNL     1       5.830  26.898  51.505  1.00  0.00    -0.323 OA
HETATM   36  O   UNL     1       5.107  24.927  52.692  1.00  0.00    -0.323 OA
HETATM   37  C   UNL     1       6.106  25.589  54.816  1.00  0.00     0.040 A 
HETATM   38  C   UNL     1       5.133  25.637  51.436  1.00  0.00     0.352 A 
HETATM   39  C   UNL     1       6.848  26.580  55.469  1.00  0.00     0.012 A 
ENDBRANCH   6  31
TORSDOF 6
ENDMDL
MODEL 9
REMARK VINA RESULT:     -10.2      3.767     11.022
REMARK  6 active torsions:
REMARK  status: ('A' for Active; 'I' for Inactive)
REMARK    1  A    between atoms: C_8  and  C_9 
REMARK    2  A    between atoms: C_9  and  C_10 
REMARK    3  A    between atoms: C_10  and  N_11 
REMARK       I    between atoms: N_11  and  C_12 
REMARK    4  A    between atoms: C_12  and  C_13 
REMARK    5  A    between atoms: C_18  and  C_19 
REMARK    6  A    between atoms: C_29  and  C_30 
ROOT
HETATM    1  C   UNL     1       8.409  30.211  57.458  1.00  0.00     0.148 A 
HETATM    2  N   UNL     1       9.245  30.893  58.276  1.00  0.00    -0.165 NA
HETATM    3  N   UNL     1       8.432  31.329  59.254  1.00  0.00    -0.240 N 
HETATM    4  C   UNL     1       7.117  31.011  59.070  1.00  0.00     0.123 A 
HETATM    5  N   UNL     1       6.162  31.469  59.903  1.00  0.00    -0.366 N 
HETATM    6  C   UNL     1       6.418  32.518  60.888  1.00  0.00     0.118 C 
HETATM    7  C   UNL     1       7.777  33.212  60.644  1.00  0.00     0.066 C 
HETATM    8  C   UNL     1       8.891  32.205  60.314  1.00  0.00     0.221 C 
HETATM    9  C   UNL     1       7.072  30.239  57.943  1.00  0.00     0.088 A 
HETATM   10  H   UNL     1       5.181  31.233  59.757  1.00  0.00     0.161 HD
ENDROOT
BRANCH   1  11
HETATM   11  C   UNL     1       8.863  29.572  56.214  1.00  0.00     0.272 C 
HETATM   12  N   UNL     1       7.924  28.745  55.639  1.00  0.00    -0.355 N 
HETATM   13  H   UNL     1       6.984  28.836  56.018  1.00  0.00     0.162 HD
HETATM   14  O   UNL     1       9.978  29.762  55.738  1.00  0.00    -0.266 OA
BRANCH  12  15
HETATM   15  C   UNL     1       8.143  28.144  54.342  1.00  0.00     0.127 C 
BRANCH  15  16
HETATM   16  C   UNL     1       7.021  27.196  53.920  1.00  0.00     0.060 C 
BRANCH  16  17
HETATM   17  C   UNL     1       7.022  25.915  54.698  1.00  0.00    -0.029 A 
HETATM   18  C   UNL     1       7.371  24.611  54.218  1.00  0.00    -0.002 A 
HETATM   19  C   UNL     1       7.786  24.099  52.972  1.00  0.00     0.014 A 
HETATM   20  C   UNL     1       7.247  23.726  55.290  1.00  0.00     0.042 A 
HETATM   21  C   UNL     1       8.063  22.733  52.844  1.00  0.00     0.001 A 
HETATM   22  C   UNL     1       7.931  21.877  53.934  1.00  0.00     0.002 A 
HETATM   23  C   UNL     1       7.520  22.358  55.180  1.00  0.00     0.030 A 
HETATM   24  N   UNL     1       6.834  24.460  56.377  1.00  0.00    -0.365 N 
HETATM   25  H   UNL     1       6.665  24.077  57.295  1.00  0.00     0.165 HD
HETATM   26  C   UNL     1       6.691  25.776  56.031  1.00  0.00     0.096 A 
ENDBRANCH  16  17
ENDBRANCH  15  16
ENDBRANCH  12  15
ENDBRANCH   1  11
BRANCH   8  27
HETATM   27  C   UNL     1       9.320  31.393  61.514  1.00  0.00     0.409 C 
HETATM   28  F   UNL     1       9.058  30.076  61.373  1.00  0.00    -0.169 F 
HETATM   29  F   UNL     1      10.666  31.501  61.678  1.00  0.00    -0.169 F 
HETATM   30  F   UNL     1       8.762  31.803  62.672  1.00  0.00    -0.169 F 
ENDBRANCH   8  27
BRANCH   6  31
HETATM   31  C   UNL     1       5.264  33.507  60.840  1.00  0.00    -0.033 A 
HETATM   32  C   UNL     1       4.248  33.378  59.871  1.00  0.00     0.049 A 
HETATM   33  C   UNL     1       3.203  34.274  59.890  1.00  0.00     0.105 A 
HETATM   34  C   UNL     1       3.126  35.275  60.826  1.00  0.00     0.105 A 
HETATM   35  O   UNL     1       2.148  34.280  59.032  1.00  0.00    -0.323 OA
HETATM   36  O   UNL     1       2.011  36.040  60.676  1.00  0.00    -0.323 OA
HETATM   37  C   UNL     1       4.093  35.437  61.795  1.00  0.00     0.040 A 
HETATM   38  C   UNL     1       1.392  35.398  59.542  1.00  0.00     0.352 A 
HETATM   39  C   UNL     1       5.170  34.543  61.799  1.00  0.00     0.012 A 
ENDBRANCH   6  31
TORSDOF 6
ENDMDL
MODEL 10
REMARK VINA RESULT:     -10.2      3.402      4.588
REMARK  6 active torsions:
REMARK  status: ('A' for Active; 'I' for Inactive)
REMARK    1  A    between atoms: C_8  and  C_9 
REMARK    2  A    between atoms: C_9  and  C_10 
REMARK    3  A    between atoms: C_10  and  N_11 
REMARK       I    between atoms: N_11  and  C_12 
REMARK    4  A    between atoms: C_12  and  C_13 
REMARK    5  A    between atoms: C_18  and  C_19 
REMARK    6  A    between atoms: C_29  and  C_30 
ROOT
HETATM    1  C   UNL     1       7.386  28.969  57.230  1.00  0.00     0.148 A 
HETATM    2  N   UNL     1       6.691  27.815  57.372  1.00  0.00    -0.165 NA
HETATM    3  N   UNL     1       6.705  27.292  56.134  1.00  0.00    -0.240 N 
HETATM    4  C   UNL     1       7.319  28.079  55.201  1.00  0.00     0.123 A 
HETATM    5  N   UNL     1       7.320  27.748  53.895  1.00  0.00    -0.366 N 
HETATM    6  C   UNL     1       6.471  26.688  53.354  1.00  0.00     0.118 C 
HETATM    7  C   UNL     1       5.402  26.236  54.374  1.00  0.00     0.066 C 
HETATM    8  C   UNL     1       5.980  26.084  55.792  1.00  0.00     0.221 C 
HETATM    9  C   UNL     1       7.821  29.149  55.888  1.00  0.00     0.088 A 
HETATM   10  H   UNL     1       7.775  28.343  53.204  1.00  0.00     0.161 HD
ENDROOT
BRANCH   1  11
HETATM   11  C   UNL     1       7.604  29.906  58.342  1.00  0.00     0.272 C 
HETATM   12  N   UNL     1       6.869  31.066  58.243  1.00  0.00    -0.355 N 
HETATM   13  H   UNL     1       6.128  31.046  57.546  1.00  0.00     0.162 HD
HETATM   14  O   UNL     1       8.373  29.669  59.269  1.00  0.00    -0.266 OA
BRANCH  12  15
HETATM   15  C   UNL     1       6.849  32.038  59.314  1.00  0.00     0.127 C 
BRANCH  15  16
HETATM   16  C   UNL     1       5.450  32.288  59.875  1.00  0.00     0.060 C 
BRANCH  16  17
HETATM   17  C   UNL     1       5.445  33.284  60.995  1.00  0.00    -0.029 A 
HETATM   18  C   UNL     1       6.229  33.243  62.193  1.00  0.00    -0.002 A 
HETATM   19  C   UNL     1       7.182  32.346  62.715  1.00  0.00     0.014 A 
HETATM   20  C   UNL     1       5.913  34.382  62.936  1.00  0.00     0.042 A 
HETATM   21  C   UNL     1       7.783  32.618  63.950  1.00  0.00     0.001 A 
HETATM   22  C   UNL     1       7.448  33.766  64.665  1.00  0.00     0.002 A 
HETATM   23  C   UNL     1       6.505  34.670  64.171  1.00  0.00     0.030 A 
HETATM   24  N   UNL     1       4.972  35.085  62.221  1.00  0.00    -0.365 N 
HETATM   25  H   UNL     1       4.562  35.958  62.520  1.00  0.00     0.165 HD
HETATM   26  C   UNL     1       4.679  34.432  61.055  1.00  0.00     0.096 A 
ENDBRANCH  16  17
ENDBRANCH  15  16
ENDBRANCH  12  15
ENDBRANCH   1  11
BRANCH   8  27
HETATM   27  C   UNL     1       6.879  24.878  55.931  1.00  0.00     0.409 C 
HETATM   28  F   UNL     1       8.180  25.172  55.724  1.00  0.00    -0.169 F 
HETATM   29  F   UNL     1       6.791  24.390  57.197  1.00  0.00    -0.169 F 
HETATM   30  F   UNL     1       6.549  23.861  55.108  1.00  0.00    -0.169 F 
ENDBRANCH   8  27
BRANCH   6  31
HETATM   31  C   UNL     1       5.842  27.195  52.066  1.00  0.00    -0.033 A 
HETATM   32  C   UNL     1       5.323  26.291  51.117  1.00  0.00     0.049 A 
HETATM   33  C   UNL     1       4.728  26.797  49.983  1.00  0.00     0.105 A 
HETATM   34  C   UNL     1       4.625  28.148  49.762  1.00  0.00     0.105 A 
HETATM   35  O   UNL     1       4.177  26.061  48.981  1.00  0.00    -0.323 OA
HETATM   36  O   UNL     1       3.994  28.435  48.592  1.00  0.00    -0.323 OA
HETATM   37  C   UNL     1       5.113  29.069  50.664  1.00  0.00     0.040 A 
HETATM   38  C   UNL     1       3.706  27.108  48.106  1.00  0.00     0.352 A 
HETATM   39  C   UNL     1       5.727  28.584  51.825  1.00  0.00     0.012 A 
ENDBRANCH   6  31
TORSDOF 6
ENDMDL
