MODEL 1
REMARK VINA RESULT:      -9.8      0.000      0.000
REMARK  4 active torsions:
REMARK  status: ('A' for Active; 'I' for Inactive)
REMARK    1  A    between atoms: C_4  and  O_5 
REMARK    2  A    between atoms: C_6  and  N_7 
REMARK       I    between atoms: N_7  and  C_8 
REMARK    3  A    between atoms: C_8  and  C_9 
REMARK    4  A    between atoms: C_9  and  N_10 
ROOT
HETATM    1  N   UNL     1       6.866  29.262  56.648  1.00  0.00    -0.259 N 
HETATM    2  C   UNL     1       5.725  28.560  56.892  1.00  0.00     0.326 C 
HETATM    3  O   UNL     1       4.686  28.974  57.376  1.00  0.00    -0.247 OA
HETATM    4  N   UNL     1       5.935  27.249  56.532  1.00  0.00    -0.320 N 
HETATM    5  C   UNL     1       7.313  27.004  56.208  1.00  0.00     0.144 C 
HETATM    6  C   UNL     1       7.493  26.118  55.017  1.00  0.00    -0.014 A 
HETATM    7  C   UNL     1       7.888  24.835  55.428  1.00  0.00    -0.049 A 
HETATM    8  C   UNL     1       8.079  23.813  54.515  1.00  0.00     0.007 A 
HETATM    9  C   UNL     1       7.876  24.089  53.162  1.00  0.00     0.001 A 
HETATM   10  C   UNL     1       7.475  25.367  52.747  1.00  0.00     0.001 A 
HETATM   11  C   UNL     1       7.274  26.391  53.677  1.00  0.00     0.011 A 
HETATM   12  C   UNL     1       7.992  24.746  56.919  1.00  0.00     0.042 C 
HETATM   13  C   UNL     1       8.050  26.227  57.318  1.00  0.00     0.051 C 
HETATM   14  C   UNL     1       7.833  28.441  56.134  1.00  0.00     0.261 C 
HETATM   15  O   UNL     1       8.932  28.823  55.750  1.00  0.00    -0.270 OA
HETATM   16  H   UNL     1       5.226  26.541  56.675  1.00  0.00     0.165 HD
ENDROOT
BRANCH   1  17
HETATM   17  C   UNL     1       7.077  30.638  57.041  1.00  0.00     0.240 C 
BRANCH  17  18
HETATM   18  C   UNL     1       7.706  30.808  58.420  1.00  0.00     0.240 C 
HETATM   19  N   UNL     1       6.802  31.069  59.429  1.00  0.00    -0.323 N 
HETATM   20  H   UNL     1       5.823  30.866  59.223  1.00  0.00     0.169 HD
HETATM   21  O   UNL     1       8.927  30.800  58.562  1.00  0.00    -0.271 OA
BRANCH  19  22
HETATM   22  C   UNL     1       7.056  31.575  60.730  1.00  0.00     0.068 A 
HETATM   23  C   UNL     1       7.979  31.076  61.663  1.00  0.00     0.092 A 
HETATM   24  C   UNL     1       8.192  31.729  62.883  1.00  0.00     0.045 A 
HETATM   25  C   UNL     1       7.485  32.887  63.213  1.00  0.00    -0.059 A 
HETATM   26  C   UNL     1       7.700  33.549  64.541  1.00  0.00     0.048 C 
HETATM   27  C   UNL     1       6.545  33.378  62.305  1.00  0.00     0.009 A 
HETATM   28  C   UNL     1       6.348  32.739  61.074  1.00  0.00     0.033 A 
BRANCH  23  29
HETATM   29  O   UNL     1       8.777  29.983  61.480  1.00  0.00    -0.358 OA
HETATM   30  H   UNL     1       9.699  30.293  61.367  1.00  0.00     0.218 HD
ENDBRANCH  23  29
ENDBRANCH  19  22
ENDBRANCH  17  18
ENDBRANCH   1  17
TORSDOF 4
ENDMDL
MODEL 2
REMARK VINA RESULT:      -9.7      2.473      8.469
REMARK  4 active torsions:
REMARK  status: ('A' for Active; 'I' for Inactive)
REMARK    1  A    between atoms: C_4  and  O_5 
REMARK    2  A    between atoms: C_6  and  N_7 
REMARK       I    between atoms: N_7  and  C_8 
REMARK    3  A    between atoms: C_8  and  C_9 
REMARK    4  A    between atoms: C_9  and  N_10 
ROOT
HETATM    1  N   UNL     1       6.219  28.074  56.475  1.00  0.00    -0.259 N 
HETATM    2  C   UNL     1       6.216  29.166  55.661  1.00  0.00     0.326 C 
HETATM    3  O   UNL     1       5.485  29.383  54.710  1.00  0.00    -0.247 OA
HETATM    4  N   UNL     1       7.225  30.011  56.061  1.00  0.00    -0.320 N 
HETATM    5  C   UNL     1       8.062  29.399  57.055  1.00  0.00     0.144 C 
HETATM    6  C   UNL     1       8.458  30.334  58.153  1.00  0.00    -0.014 A 
HETATM    7  C   UNL     1       9.797  30.724  57.994  1.00  0.00    -0.049 A 
HETATM    8  C   UNL     1      10.394  31.624  58.859  1.00  0.00     0.007 A 
HETATM    9  C   UNL     1       9.631  32.137  59.908  1.00  0.00     0.001 A 
HETATM   10  C   UNL     1       8.290  31.757  60.068  1.00  0.00     0.001 A 
HETATM   11  C   UNL     1       7.692  30.854  59.183  1.00  0.00     0.011 A 
HETATM   12  C   UNL     1      10.407  30.100  56.777  1.00  0.00     0.042 C 
HETATM   13  C   UNL     1       9.425  28.956  56.486  1.00  0.00     0.051 C 
HETATM   14  C   UNL     1       7.214  28.176  57.408  1.00  0.00     0.261 C 
HETATM   15  O   UNL     1       7.396  27.374  58.316  1.00  0.00    -0.270 OA
HETATM   16  H   UNL     1       7.430  30.865  55.559  1.00  0.00     0.165 HD
ENDROOT
BRANCH   1  17
HETATM   17  C   UNL     1       5.400  26.900  56.268  1.00  0.00     0.240 C 
BRANCH  17  18
HETATM   18  C   UNL     1       6.173  25.586  56.275  1.00  0.00     0.240 C 
HETATM   19  N   UNL     1       6.952  25.378  55.155  1.00  0.00    -0.323 N 
HETATM   20  H   UNL     1       7.143  26.199  54.579  1.00  0.00     0.169 HD
HETATM   21  O   UNL     1       6.015  24.766  57.177  1.00  0.00    -0.271 OA
BRANCH  19  22
HETATM   22  C   UNL     1       7.537  24.168  54.701  1.00  0.00     0.068 A 
HETATM   23  C   UNL     1       8.414  23.335  55.415  1.00  0.00     0.092 A 
HETATM   24  C   UNL     1       8.848  22.118  54.876  1.00  0.00     0.045 A 
HETATM   25  C   UNL     1       8.432  21.702  53.610  1.00  0.00    -0.059 A 
HETATM   26  C   UNL     1       8.939  20.413  53.035  1.00  0.00     0.048 C 
HETATM   27  C   UNL     1       7.581  22.533  52.879  1.00  0.00     0.009 A 
HETATM   28  C   UNL     1       7.127  23.740  53.427  1.00  0.00     0.033 A 
BRANCH  23  29
HETATM   29  O   UNL     1       8.881  23.574  56.675  1.00  0.00    -0.358 OA
HETATM   30  H   UNL     1       8.315  23.086  57.309  1.00  0.00     0.218 HD
ENDBRANCH  23  29
ENDBRANCH  19  22
ENDBRANCH  17  18
ENDBRANCH   1  17
TORSDOF 4
ENDMDL
MODEL 3
REMARK VINA RESULT:      -9.6      1.724      3.379
REMARK  4 active torsions:
REMARK  status: ('A' for Active; 'I' for Inactive)
REMARK    1  A    between atoms: C_4  and  O_5 
REMARK    2  A    between atoms: C_6  and  N_7 
REMARK       I    between atoms: N_7  and  C_8 
REMARK    3  A    between atoms: C_8  and  C_9 
REMARK    4  A    between atoms: C_9  and  N_10 
ROOT
HETATM    1  N   UNL     1       6.318  27.884  54.750  1.00  0.00    -0.259 N 
HETATM    2  C   UNL     1       7.668  27.962  54.592  1.00  0.00     0.326 C 
HETATM    3  O   UNL     1       8.389  28.918  54.818  1.00  0.00    -0.247 OA
HETATM    4  N   UNL     1       8.119  26.765  54.086  1.00  0.00    -0.320 N 
HETATM    5  C   UNL     1       7.029  25.908  53.709  1.00  0.00     0.144 C 
HETATM    6  C   UNL     1       7.248  24.475  54.075  1.00  0.00    -0.014 A 
HETATM    7  C   UNL     1       7.566  23.729  52.929  1.00  0.00    -0.049 A 
HETATM    8  C   UNL     1       7.858  22.379  53.006  1.00  0.00     0.007 A 
HETATM    9  C   UNL     1       7.824  21.766  54.259  1.00  0.00     0.001 A 
HETATM   10  C   UNL     1       7.514  22.508  55.408  1.00  0.00     0.001 A 
HETATM   11  C   UNL     1       7.230  23.874  55.323  1.00  0.00     0.011 A 
HETATM   12  C   UNL     1       7.601  24.593  51.706  1.00  0.00     0.042 C 
HETATM   13  C   UNL     1       6.837  25.837  52.180  1.00  0.00     0.051 C 
HETATM   14  C   UNL     1       5.861  26.656  54.354  1.00  0.00     0.261 C 
HETATM   15  O   UNL     1       4.698  26.283  54.461  1.00  0.00    -0.270 OA
HETATM   16  H   UNL     1       9.092  26.624  53.848  1.00  0.00     0.165 HD
ENDROOT
BRANCH   1  17
HETATM   17  C   UNL     1       5.473  28.999  55.117  1.00  0.00     0.240 C 
BRANCH  17  18
HETATM   18  C   UNL     1       5.542  29.378  56.593  1.00  0.00     0.240 C 
HETATM   19  N   UNL     1       6.518  30.304  56.897  1.00  0.00    -0.323 N 
HETATM   20  H   UNL     1       6.905  30.828  56.111  1.00  0.00     0.169 HD
HETATM   21  O   UNL     1       4.833  28.812  57.423  1.00  0.00    -0.271 OA
BRANCH  19  22
HETATM   22  C   UNL     1       7.051  30.636  58.169  1.00  0.00     0.068 A 
HETATM   23  C   UNL     1       8.122  30.008  58.825  1.00  0.00     0.092 A 
HETATM   24  C   UNL     1       8.605  30.496  60.045  1.00  0.00     0.045 A 
HETATM   25  C   UNL     1       8.030  31.616  60.651  1.00  0.00    -0.059 A 
HETATM   26  C   UNL     1       8.537  32.100  61.976  1.00  0.00     0.048 C 
HETATM   27  C   UNL     1       6.948  32.234  60.022  1.00  0.00     0.009 A 
HETATM   28  C   UNL     1       6.479  31.759  58.790  1.00  0.00     0.033 A 
BRANCH  23  29
HETATM   29  O   UNL     1       8.819  28.933  58.351  1.00  0.00    -0.358 OA
HETATM   30  H   UNL     1       9.657  28.865  58.855  1.00  0.00     0.218 HD
ENDBRANCH  23  29
ENDBRANCH  19  22
ENDBRANCH  17  18
ENDBRANCH   1  17
TORSDOF 4
ENDMDL
MODEL 4
REMARK VINA RESULT:      -9.4      1.750      2.674
REMARK  4 active torsions:
REMARK  status: ('A' for Active; 'I' for Inactive)
REMARK    1  A    between atoms: C_4  and  O_5 
REMARK    2  A    between atoms: C_6  and  N_7 
REMARK       I    between atoms: N_7  and  C_8 
REMARK    3  A    between atoms: C_8  and  C_9 
REMARK    4  A    between atoms: C_9  and  N_10 
ROOT
HETATM    1  N   UNL     1       8.710  28.514  56.430  1.00  0.00    -0.259 N 
HETATM    2  C   UNL     1       9.009  29.006  55.196  1.00  0.00     0.326 C 
HETATM    3  O   UNL     1       9.897  29.787  54.903  1.00  0.00    -0.247 OA
HETATM    4  N   UNL     1       8.102  28.502  54.294  1.00  0.00    -0.320 N 
HETATM    5  C   UNL     1       7.039  27.795  54.952  1.00  0.00     0.144 C 
HETATM    6  C   UNL     1       6.642  26.536  54.251  1.00  0.00    -0.014 A 
HETATM    7  C   UNL     1       5.421  26.722  53.582  1.00  0.00    -0.049 A 
HETATM    8  C   UNL     1       4.856  25.715  52.820  1.00  0.00     0.007 A 
HETATM    9  C   UNL     1       5.528  24.496  52.732  1.00  0.00     0.001 A 
HETATM   10  C   UNL     1       6.752  24.307  53.392  1.00  0.00     0.001 A 
HETATM   11  C   UNL     1       7.321  25.332  54.153  1.00  0.00     0.011 A 
HETATM   12  C   UNL     1       4.905  28.116  53.765  1.00  0.00     0.042 C 
HETATM   13  C   UNL     1       5.721  28.597  54.973  1.00  0.00     0.051 C 
HETATM   14  C   UNL     1       7.617  27.693  56.365  1.00  0.00     0.261 C 
HETATM   15  O   UNL     1       7.176  27.052  57.312  1.00  0.00    -0.270 OA
HETATM   16  H   UNL     1       8.114  28.779  53.321  1.00  0.00     0.165 HD
ENDROOT
BRANCH   1  17
HETATM   17  C   UNL     1       9.350  28.938  57.655  1.00  0.00     0.240 C 
BRANCH  17  18
HETATM   18  C   UNL     1       8.541  29.942  58.471  1.00  0.00     0.240 C 
HETATM   19  N   UNL     1       9.183  30.406  59.600  1.00  0.00    -0.323 N 
HETATM   20  H   UNL     1      10.192  30.254  59.641  1.00  0.00     0.169 HD
HETATM   21  O   UNL     1       7.382  30.215  58.165  1.00  0.00    -0.271 OA
BRANCH  19  22
HETATM   22  C   UNL     1       8.625  31.083  60.716  1.00  0.00     0.068 A 
HETATM   23  C   UNL     1       8.644  30.660  62.054  1.00  0.00     0.092 A 
HETATM   24  C   UNL     1       8.130  31.472  63.072  1.00  0.00     0.045 A 
HETATM   25  C   UNL     1       7.575  32.721  62.786  1.00  0.00    -0.059 A 
HETATM   26  C   UNL     1       6.996  33.559  63.886  1.00  0.00     0.048 C 
HETATM   27  C   UNL     1       7.527  33.142  61.456  1.00  0.00     0.009 A 
HETATM   28  C   UNL     1       8.061  32.339  60.439  1.00  0.00     0.033 A 
BRANCH  23  29
HETATM   29  O   UNL     1       9.185  29.490  62.507  1.00  0.00    -0.358 OA
HETATM   30  H   UNL     1       9.527  28.992  61.736  1.00  0.00     0.218 HD
ENDBRANCH  23  29
ENDBRANCH  19  22
ENDBRANCH  17  18
ENDBRANCH   1  17
TORSDOF 4
ENDMDL
MODEL 5
REMARK VINA RESULT:      -9.0      5.457      8.640
REMARK  4 active torsions:
REMARK  status: ('A' for Active; 'I' for Inactive)
REMARK    1  A    between atoms: C_4  and  O_5 
REMARK    2  A    between atoms: C_6  and  N_7 
REMARK       I    between atoms: N_7  and  C_8 
REMARK    3  A    between atoms: C_8  and  C_9 
REMARK    4  A    between atoms: C_9  and  N_10 
ROOT
HETATM    1  N   UNL     1       5.490  27.301  54.488  1.00  0.00    -0.259 N 
HETATM    2  C   UNL     1       6.791  27.667  54.653  1.00  0.00     0.326 C 
HETATM    3  O   UNL     1       7.218  28.747  55.023  1.00  0.00    -0.247 OA
HETATM    4  N   UNL     1       7.592  26.608  54.293  1.00  0.00    -0.320 N 
HETATM    5  C   UNL     1       6.829  25.552  53.686  1.00  0.00     0.144 C 
HETATM    6  C   UNL     1       7.256  24.188  54.124  1.00  0.00    -0.014 A 
HETATM    7  C   UNL     1       7.986  23.561  53.101  1.00  0.00    -0.049 A 
HETATM    8  C   UNL     1       8.531  22.301  53.274  1.00  0.00     0.007 A 
HETATM    9  C   UNL     1       8.334  21.657  54.495  1.00  0.00     0.001 A 
HETATM   10  C   UNL     1       7.611  22.281  55.523  1.00  0.00     0.001 A 
HETATM   11  C   UNL     1       7.071  23.558  55.344  1.00  0.00     0.011 A 
HETATM   12  C   UNL     1       8.124  24.450  51.904  1.00  0.00     0.042 C 
HETATM   13  C   UNL     1       7.023  25.489  52.158  1.00  0.00     0.051 C 
HETATM   14  C   UNL     1       5.411  26.017  54.021  1.00  0.00     0.261 C 
HETATM   15  O   UNL     1       4.362  25.404  53.857  1.00  0.00    -0.270 OA
HETATM   16  H   UNL     1       8.601  26.683  54.296  1.00  0.00     0.165 HD
ENDROOT
BRANCH   1  17
HETATM   17  C   UNL     1       4.365  28.200  54.621  1.00  0.00     0.240 C 
BRANCH  17  18
HETATM   18  C   UNL     1       4.017  28.962  53.347  1.00  0.00     0.240 C 
HETATM   19  N   UNL     1       3.389  28.200  52.383  1.00  0.00    -0.323 N 
HETATM   20  H   UNL     1       2.990  27.314  52.696  1.00  0.00     0.169 HD
HETATM   21  O   UNL     1       4.368  30.130  53.194  1.00  0.00    -0.271 OA
BRANCH  19  22
HETATM   22  C   UNL     1       3.212  28.493  51.006  1.00  0.00     0.068 A 
HETATM   23  C   UNL     1       4.099  28.195  49.959  1.00  0.00     0.092 A 
HETATM   24  C   UNL     1       3.758  28.463  48.629  1.00  0.00     0.045 A 
HETATM   25  C   UNL     1       2.530  29.044  48.303  1.00  0.00    -0.059 A 
HETATM   26  C   UNL     1       2.199  29.358  46.875  1.00  0.00     0.048 C 
HETATM   27  C   UNL     1       1.650  29.369  49.336  1.00  0.00     0.009 A 
HETATM   28  C   UNL     1       1.981  29.080  50.667  1.00  0.00     0.033 A 
BRANCH  23  29
HETATM   29  O   UNL     1       5.316  27.591  50.101  1.00  0.00    -0.358 OA
HETATM   30  H   UNL     1       5.778  27.625  49.238  1.00  0.00     0.218 HD
ENDBRANCH  23  29
ENDBRANCH  19  22
ENDBRANCH  17  18
ENDBRANCH   1  17
TORSDOF 4
ENDMDL
MODEL 6
REMARK VINA RESULT:      -9.0      3.693      8.286
REMARK  4 active torsions:
REMARK  status: ('A' for Active; 'I' for Inactive)
REMARK    1  A    between atoms: C_4  and  O_5 
REMARK    2  A    between atoms: C_6  and  N_7 
REMARK       I    between atoms: N_7  and  C_8 
REMARK    3  A    between atoms: C_8  and  C_9 
REMARK    4  A    between atoms: C_9  and  N_10 
ROOT
HETATM    1  N   UNL     1       7.121  27.376  57.251  1.00  0.00    -0.259 N 
HETATM    2  C   UNL     1       7.849  28.496  56.991  1.00  0.00     0.326 C 
HETATM    3  O   UNL     1       9.016  28.706  57.271  1.00  0.00    -0.247 OA
HETATM    4  N   UNL     1       7.033  29.414  56.372  1.00  0.00    -0.320 N 
HETATM    5  C   UNL     1       5.661  28.986  56.374  1.00  0.00     0.144 C 
HETATM    6  C   UNL     1       4.952  29.261  55.087  1.00  0.00    -0.014 A 
HETATM    7  C   UNL     1       4.083  30.353  55.239  1.00  0.00    -0.049 A 
HETATM    8  C   UNL     1       3.340  30.836  54.177  1.00  0.00     0.007 A 
HETATM    9  C   UNL     1       3.468  30.206  52.940  1.00  0.00     0.001 A 
HETATM   10  C   UNL     1       4.340  29.119  52.780  1.00  0.00     0.001 A 
HETATM   11  C   UNL     1       5.095  28.642  53.856  1.00  0.00     0.011 A 
HETATM   12  C   UNL     1       4.144  30.910  56.628  1.00  0.00     0.042 C 
HETATM   13  C   UNL     1       4.805  29.759  57.399  1.00  0.00     0.051 C 
HETATM   14  C   UNL     1       5.832  27.532  56.818  1.00  0.00     0.261 C 
HETATM   15  O   UNL     1       4.979  26.653  56.853  1.00  0.00    -0.270 OA
HETATM   16  H   UNL     1       7.363  30.339  56.131  1.00  0.00     0.165 HD
ENDROOT
BRANCH   1  17
HETATM   17  C   UNL     1       7.599  26.254  58.029  1.00  0.00     0.240 C 
BRANCH  17  18
HETATM   18  C   UNL     1       8.329  25.192  57.215  1.00  0.00     0.240 C 
HETATM   19  N   UNL     1       7.654  24.778  56.084  1.00  0.00    -0.323 N 
HETATM   20  H   UNL     1       6.896  25.382  55.764  1.00  0.00     0.169 HD
HETATM   21  O   UNL     1       9.383  24.702  57.617  1.00  0.00    -0.271 OA
BRANCH  19  22
HETATM   22  C   UNL     1       7.884  23.622  55.295  1.00  0.00     0.068 A 
HETATM   23  C   UNL     1       8.172  22.328  55.758  1.00  0.00     0.092 A 
HETATM   24  C   UNL     1       8.290  21.255  54.867  1.00  0.00     0.045 A 
HETATM   25  C   UNL     1       8.135  21.440  53.491  1.00  0.00    -0.059 A 
HETATM   26  C   UNL     1       8.303  20.285  52.551  1.00  0.00     0.048 C 
HETATM   27  C   UNL     1       7.875  22.727  53.016  1.00  0.00     0.009 A 
HETATM   28  C   UNL     1       7.734  23.797  53.909  1.00  0.00     0.033 A 
BRANCH  23  29
HETATM   29  O   UNL     1       8.311  21.969  57.068  1.00  0.00    -0.358 OA
HETATM   30  H   UNL     1       9.218  22.205  57.356  1.00  0.00     0.218 HD
ENDBRANCH  23  29
ENDBRANCH  19  22
ENDBRANCH  17  18
ENDBRANCH   1  17
TORSDOF 4
ENDMDL
MODEL 7
REMARK VINA RESULT:      -9.0      5.857      9.471
REMARK  4 active torsions:
REMARK  status: ('A' for Active; 'I' for Inactive)
REMARK    1  A    between atoms: C_4  and  O_5 
REMARK    2  A    between atoms: C_6  and  N_7 
REMARK       I    between atoms: N_7  and  C_8 
REMARK    3  A    between atoms: C_8  and  C_9 
REMARK    4  A    between atoms: C_9  and  N_10 
ROOT
HETATM    1  N   UNL     1       5.728  27.447  52.897  1.00  0.00    -0.259 N 
HETATM    2  C   UNL     1       4.610  26.862  53.410  1.00  0.00     0.326 C 
HETATM    3  O   UNL     1       3.454  27.223  53.274  1.00  0.00    -0.247 OA
HETATM    4  N   UNL     1       4.991  25.779  54.167  1.00  0.00    -0.320 N 
HETATM    5  C   UNL     1       6.417  25.727  54.333  1.00  0.00     0.144 C 
HETATM    6  C   UNL     1       6.976  24.345  54.224  1.00  0.00    -0.014 A 
HETATM    7  C   UNL     1       7.319  23.863  55.498  1.00  0.00    -0.049 A 
HETATM    8  C   UNL     1       7.820  22.585  55.674  1.00  0.00     0.007 A 
HETATM    9  C   UNL     1       7.985  21.779  54.548  1.00  0.00     0.001 A 
HETATM   10  C   UNL     1       7.638  22.253  53.274  1.00  0.00     0.001 A 
HETATM   11  C   UNL     1       7.123  23.542  53.105  1.00  0.00     0.011 A 
HETATM   12  C   UNL     1       7.009  24.867  56.564  1.00  0.00     0.042 C 
HETATM   13  C   UNL     1       6.862  26.158  55.746  1.00  0.00     0.051 C 
HETATM   14  C   UNL     1       6.848  26.773  53.302  1.00  0.00     0.261 C 
HETATM   15  O   UNL     1       7.985  27.032  52.927  1.00  0.00    -0.270 OA
HETATM   16  H   UNL     1       4.316  25.227  54.679  1.00  0.00     0.165 HD
ENDROOT
BRANCH   1  17
HETATM   17  C   UNL     1       5.736  28.699  52.175  1.00  0.00     0.240 C 
BRANCH  17  18
HETATM   18  C   UNL     1       5.228  28.599  50.740  1.00  0.00     0.240 C 
HETATM   19  N   UNL     1       3.854  28.640  50.619  1.00  0.00    -0.323 N 
HETATM   20  H   UNL     1       3.340  28.989  51.428  1.00  0.00     0.169 HD
HETATM   21  O   UNL     1       6.006  28.403  49.808  1.00  0.00    -0.271 OA
BRANCH  19  22
HETATM   22  C   UNL     1       3.057  28.270  49.505  1.00  0.00     0.068 A 
HETATM   23  C   UNL     1       3.057  27.033  48.842  1.00  0.00     0.092 A 
HETATM   24  C   UNL     1       2.151  26.771  47.808  1.00  0.00     0.045 A 
HETATM   25  C   UNL     1       1.228  27.736  47.397  1.00  0.00    -0.059 A 
HETATM   26  C   UNL     1       0.292  27.450  46.261  1.00  0.00     0.048 C 
HETATM   27  C   UNL     1       1.236  28.980  48.031  1.00  0.00     0.009 A 
HETATM   28  C   UNL     1       2.127  29.234  49.082  1.00  0.00     0.033 A 
BRANCH  23  29
HETATM   29  O   UNL     1       3.861  25.972  49.146  1.00  0.00    -0.358 OA
HETATM   30  H   UNL     1       3.382  25.394  49.775  1.00  0.00     0.218 HD
ENDBRANCH  23  29
ENDBRANCH  19  22
ENDBRANCH  17  18
ENDBRANCH   1  17
TORSDOF 4
ENDMDL
MODEL 8
REMARK VINA RESULT:      -8.9      4.287      8.249
REMARK  4 active torsions:
REMARK  status: ('A' for Active; 'I' for Inactive)
REMARK    1  A    between atoms: C_4  and  O_5 
REMARK    2  A    between atoms: C_6  and  N_7 
REMARK       I    between atoms: N_7  and  C_8 
REMARK    3  A    between atoms: C_8  and  C_9 
REMARK    4  A    between atoms: C_9  and  N_10 
ROOT
HETATM    1  N   UNL     1       6.348  27.413  56.778  1.00  0.00    -0.259 N 
HETATM    2  C   UNL     1       5.160  26.763  56.635  1.00  0.00     0.326 C 
HETATM    3  O   UNL     1       4.792  25.752  57.208  1.00  0.00    -0.247 OA
HETATM    4  N   UNL     1       4.414  27.420  55.684  1.00  0.00    -0.320 N 
HETATM    5  C   UNL     1       5.183  28.436  55.020  1.00  0.00     0.144 C 
HETATM    6  C   UNL     1       4.415  29.696  54.780  1.00  0.00    -0.014 A 
HETATM    7  C   UNL     1       4.060  29.793  53.424  1.00  0.00    -0.049 A 
HETATM    8  C   UNL     1       3.305  30.851  52.951  1.00  0.00     0.007 A 
HETATM    9  C   UNL     1       2.905  31.834  53.855  1.00  0.00     0.001 A 
HETATM   10  C   UNL     1       3.250  31.739  55.212  1.00  0.00     0.001 A 
HETATM   11  C   UNL     1       4.005  30.662  55.684  1.00  0.00     0.011 A 
HETATM   12  C   UNL     1       4.543  28.607  52.647  1.00  0.00     0.042 C 
HETATM   13  C   UNL     1       5.600  28.021  53.594  1.00  0.00     0.051 C 
HETATM   14  C   UNL     1       6.408  28.490  55.935  1.00  0.00     0.261 C 
HETATM   15  O   UNL     1       7.328  29.298  55.909  1.00  0.00    -0.270 OA
HETATM   16  H   UNL     1       3.510  27.074  55.389  1.00  0.00     0.165 HD
ENDROOT
BRANCH   1  17
HETATM   17  C   UNL     1       7.452  26.930  57.577  1.00  0.00     0.240 C 
BRANCH  17  18
HETATM   18  C   UNL     1       8.196  25.746  56.968  1.00  0.00     0.240 C 
HETATM   19  N   UNL     1       7.653  25.279  55.789  1.00  0.00    -0.323 N 
HETATM   20  H   UNL     1       7.001  25.903  55.312  1.00  0.00     0.169 HD
HETATM   21  O   UNL     1       9.138  25.221  57.559  1.00  0.00    -0.271 OA
BRANCH  19  22
HETATM   22  C   UNL     1       7.892  24.040  55.139  1.00  0.00     0.068 A 
HETATM   23  C   UNL     1       8.134  22.800  55.751  1.00  0.00     0.092 A 
HETATM   24  C   UNL     1       8.266  21.634  54.986  1.00  0.00     0.045 A 
HETATM   25  C   UNL     1       8.174  21.673  53.593  1.00  0.00    -0.059 A 
HETATM   26  C   UNL     1       8.357  20.420  52.790  1.00  0.00     0.048 C 
HETATM   27  C   UNL     1       7.960  22.904  52.971  1.00  0.00     0.009 A 
HETATM   28  C   UNL     1       7.804  24.067  53.737  1.00  0.00     0.033 A 
BRANCH  23  29
HETATM   29  O   UNL     1       8.210  22.583  57.097  1.00  0.00    -0.358 OA
HETATM   30  H   UNL     1       7.432  23.002  57.519  1.00  0.00     0.218 HD
ENDBRANCH  23  29
ENDBRANCH  19  22
ENDBRANCH  17  18
ENDBRANCH   1  17
TORSDOF 4
ENDMDL
MODEL 9
REMARK VINA RESULT:      -8.8      2.637      8.619
REMARK  4 active torsions:
REMARK  status: ('A' for Active; 'I' for Inactive)
REMARK    1  A    between atoms: C_4  and  O_5 
REMARK    2  A    between atoms: C_6  and  N_7 
REMARK       I    between atoms: N_7  and  C_8 
REMARK    3  A    between atoms: C_8  and  C_9 
REMARK    4  A    between atoms: C_9  and  N_10 
ROOT
HETATM    1  N   UNL     1       5.213  29.111  55.665  1.00  0.00    -0.259 N 
HETATM    2  C   UNL     1       4.990  28.264  56.708  1.00  0.00     0.326 C 
HETATM    3  O   UNL     1       4.842  27.055  56.666  1.00  0.00    -0.247 OA
HETATM    4  N   UNL     1       4.917  29.005  57.865  1.00  0.00    -0.320 N 
HETATM    5  C   UNL     1       4.902  30.414  57.588  1.00  0.00     0.144 C 
HETATM    6  C   UNL     1       5.736  31.213  58.537  1.00  0.00    -0.014 A 
HETATM    7  C   UNL     1       4.911  31.897  59.445  1.00  0.00    -0.049 A 
HETATM    8  C   UNL     1       5.444  32.676  60.457  1.00  0.00     0.007 A 
HETATM    9  C   UNL     1       6.832  32.774  60.554  1.00  0.00     0.001 A 
HETATM   10  C   UNL     1       7.661  32.088  59.654  1.00  0.00     0.001 A 
HETATM   11  C   UNL     1       7.115  31.295  58.640  1.00  0.00     0.011 A 
HETATM   12  C   UNL     1       3.464  31.607  59.194  1.00  0.00     0.042 C 
HETATM   13  C   UNL     1       3.502  31.035  57.769  1.00  0.00     0.051 C 
HETATM   14  C   UNL     1       5.287  30.403  56.107  1.00  0.00     0.261 C 
HETATM   15  O   UNL     1       5.559  31.363  55.396  1.00  0.00    -0.270 OA
HETATM   16  H   UNL     1       4.709  28.575  58.757  1.00  0.00     0.165 HD
ENDROOT
BRANCH   1  17
HETATM   17  C   UNL     1       5.199  28.714  54.275  1.00  0.00     0.240 C 
BRANCH  17  18
HETATM   18  C   UNL     1       6.250  27.671  53.909  1.00  0.00     0.240 C 
HETATM   19  N   UNL     1       5.776  26.375  53.872  1.00  0.00    -0.323 N 
HETATM   20  H   UNL     1       4.762  26.266  53.827  1.00  0.00     0.169 HD
HETATM   21  O   UNL     1       7.428  27.987  53.761  1.00  0.00    -0.271 OA
BRANCH  19  22
HETATM   22  C   UNL     1       6.517  25.166  53.875  1.00  0.00     0.068 A 
HETATM   23  C   UNL     1       6.730  24.310  54.968  1.00  0.00     0.092 A 
HETATM   24  C   UNL     1       7.410  23.097  54.810  1.00  0.00     0.045 A 
HETATM   25  C   UNL     1       7.908  22.707  53.565  1.00  0.00    -0.059 A 
HETATM   26  C   UNL     1       8.668  21.423  53.425  1.00  0.00     0.048 C 
HETATM   27  C   UNL     1       7.726  23.562  52.476  1.00  0.00     0.009 A 
HETATM   28  C   UNL     1       7.025  24.765  52.628  1.00  0.00     0.033 A 
BRANCH  23  29
HETATM   29  O   UNL     1       6.275  24.521  56.239  1.00  0.00    -0.358 OA
HETATM   30  H   UNL     1       7.040  24.761  56.802  1.00  0.00     0.218 HD
ENDBRANCH  23  29
ENDBRANCH  19  22
ENDBRANCH  17  18
ENDBRANCH   1  17
TORSDOF 4
ENDMDL
MODEL 10
REMARK VINA RESULT:      -8.8      3.156      8.446
REMARK  4 active torsions:
REMARK  status: ('A' for Active; 'I' for Inactive)
REMARK    1  A    between atoms: C_4  and  O_5 
REMARK    2  A    between atoms: C_6  and  N_7 
REMARK       I    between atoms: N_7  and  C_8 
REMARK    3  A    between atoms: C_8  and  C_9 
REMARK    4  A    between atoms: C_9  and  N_10 
ROOT
HETATM    1  N   UNL     1       5.446  27.744  54.300  1.00  0.00    -0.259 N 
HETATM    2  C   UNL     1       6.430  28.481  53.713  1.00  0.00     0.326 C 
HETATM    3  O   UNL     1       6.649  28.613  52.522  1.00  0.00    -0.247 OA
HETATM    4  N   UNL     1       7.197  29.051  54.702  1.00  0.00    -0.320 N 
HETATM    5  C   UNL     1       6.847  28.544  56.000  1.00  0.00     0.144 C 
HETATM    6  C   UNL     1       6.819  29.598  57.060  1.00  0.00    -0.014 A 
HETATM    7  C   UNL     1       7.953  29.485  57.880  1.00  0.00    -0.049 A 
HETATM    8  C   UNL     1       8.186  30.374  58.915  1.00  0.00     0.007 A 
HETATM    9  C   UNL     1       7.257  31.392  59.132  1.00  0.00     0.001 A 
HETATM   10  C   UNL     1       6.126  31.514  58.311  1.00  0.00     0.001 A 
HETATM   11  C   UNL     1       5.903  30.617  57.262  1.00  0.00     0.011 A 
HETATM   12  C   UNL     1       8.840  28.364  57.436  1.00  0.00     0.042 C 
HETATM   13  C   UNL     1       7.892  27.549  56.544  1.00  0.00     0.051 C 
HETATM   14  C   UNL     1       5.546  27.812  55.663  1.00  0.00     0.261 C 
HETATM   15  O   UNL     1       4.745  27.309  56.442  1.00  0.00    -0.270 OA
HETATM   16  H   UNL     1       8.015  29.605  54.484  1.00  0.00     0.165 HD
ENDROOT
BRANCH   1  17
HETATM   17  C   UNL     1       4.537  26.877  53.582  1.00  0.00     0.240 C 
BRANCH  17  18
HETATM   18  C   UNL     1       4.923  25.402  53.611  1.00  0.00     0.240 C 
HETATM   19  N   UNL     1       6.024  25.118  54.393  1.00  0.00    -0.323 N 
HETATM   20  H   UNL     1       6.302  25.837  55.062  1.00  0.00     0.169 HD
HETATM   21  O   UNL     1       4.336  24.583  52.908  1.00  0.00    -0.271 OA
BRANCH  19  22
HETATM   22  C   UNL     1       6.821  23.943  54.398  1.00  0.00     0.068 A 
HETATM   23  C   UNL     1       7.302  23.256  55.524  1.00  0.00     0.092 A 
HETATM   24  C   UNL     1       8.006  22.054  55.386  1.00  0.00     0.045 A 
HETATM   25  C   UNL     1       8.261  21.509  54.126  1.00  0.00    -0.059 A 
HETATM   26  C   UNL     1       9.050  20.241  53.998  1.00  0.00     0.048 C 
HETATM   27  C   UNL     1       7.811  22.197  52.997  1.00  0.00     0.009 A 
HETATM   28  C   UNL     1       7.086  23.388  53.135  1.00  0.00     0.033 A 
BRANCH  23  29
HETATM   29  O   UNL     1       7.104  23.629  56.823  1.00  0.00    -0.358 OA
HETATM   30  H   UNL     1       7.481  22.934  57.402  1.00  0.00     0.218 HD
ENDBRANCH  23  29
ENDBRANCH  19  22
ENDBRANCH  17  18
ENDBRANCH   1  17
TORSDOF 4
ENDMDL
