MODEL 1
REMARK VINA RESULT:      -9.5      0.000      0.000
REMARK  7 active torsions:
REMARK  status: ('A' for Active; 'I' for Inactive)
REMARK    1  A    between atoms: C_2  and  N_3 
REMARK    2  A    between atoms: C_4  and  C_5 
REMARK       I    between atoms: C_5  and  N_6 
REMARK    3  A    between atoms: N_6  and  C_7 
REMARK    4  A    between atoms: C_7  and  C_8 
REMARK    5  A    between atoms: C_19  and  N_20 
REMARK       I    between atoms: N_20  and  C_21 
REMARK    6  A    between atoms: C_21  and  C_22 
REMARK    7  A    between atoms: C_25  and  O_26 
ROOT
HETATM    1  N   UNL     1       7.552  31.477  59.066  1.00  0.00    -0.342 N 
HETATM    2  C   UNL     1       6.188  31.738  59.092  1.00  0.00     0.104 A 
HETATM    3  C   UNL     1       5.601  30.755  58.305  1.00  0.00     0.049 A 
HETATM    4  C   UNL     1       6.608  29.885  57.814  1.00  0.00    -0.005 A 
HETATM    5  C   UNL     1       7.826  30.356  58.297  1.00  0.00     0.045 A 
HETATM    6  C   UNL     1       6.583  28.726  57.008  1.00  0.00     0.043 A 
HETATM    7  C   UNL     1       7.774  28.058  56.703  1.00  0.00     0.035 A 
HETATM    8  C   UNL     1       8.984  28.562  57.190  1.00  0.00     0.032 A 
HETATM    9  C   UNL     1       9.033  29.708  57.993  1.00  0.00     0.033 A 
ENDROOT
BRANCH   7  10
HETATM   10  N   UNL     1       7.836  26.885  55.919  1.00  0.00    -0.323 N 
HETATM   11  C   UNL     1       7.416  25.617  56.284  1.00  0.00     0.256 C 
HETATM   12  O   UNL     1       6.960  25.270  57.368  1.00  0.00    -0.267 OA
HETATM   13  H   UNL     1       8.324  26.968  55.039  1.00  0.00     0.169 HD
BRANCH  11  14
HETATM   14  C   UNL     1       7.598  24.577  55.237  1.00  0.00     0.032 A 
HETATM   15  C   UNL     1       7.623  23.235  55.629  1.00  0.00     0.020 A 
HETATM   16  C   UNL     1       7.774  22.232  54.671  1.00  0.00     0.038 A 
HETATM   17  C   UNL     1       7.871  22.555  53.315  1.00  0.00     0.068 A 
HETATM   18  C   UNL     1       7.848  23.896  52.923  1.00  0.00     0.038 A 
HETATM   19  C   UNL     1       7.708  24.907  53.880  1.00  0.00     0.020 A 
BRANCH  17  20
HETATM   20  O   UNL     1       7.998  21.482  52.476  1.00  0.00    -0.356 OA
HETATM   21  C   UNL     1       8.565  20.306  53.041  1.00  0.00     0.210 C 
ENDBRANCH  17  20
ENDBRANCH  11  14
ENDBRANCH   7  10
BRANCH   2  22
HETATM   22  C   UNL     1       5.551  32.813  59.840  1.00  0.00     0.268 C 
HETATM   23  N   UNL     1       5.420  32.590  61.192  1.00  0.00    -0.353 N 
HETATM   24  H   UNL     1       5.570  31.659  61.556  1.00  0.00     0.162 HD
HETATM   25  O   UNL     1       5.150  33.854  59.326  1.00  0.00    -0.266 OA
BRANCH  23  26
HETATM   26  C   UNL     1       4.710  33.515  62.059  1.00  0.00     0.160 C 
BRANCH  26  27
HETATM   27  C   UNL     1       5.627  34.162  63.115  1.00  0.00     0.073 C 
HETATM   28  C   UNL     1       5.859  35.633  62.744  1.00  0.00     0.047 C 
HETATM   29  O   UNL     1       4.978  34.135  64.406  1.00  0.00    -0.379 OA
HETATM   30  C   UNL     1       5.947  33.786  65.407  1.00  0.00     0.169 C 
HETATM   31  C   UNL     1       7.304  33.740  64.736  1.00  0.00     0.029 C 
HETATM   32  C   UNL     1       6.949  33.416  63.305  1.00  0.00     0.041 C 
ENDBRANCH  26  27
ENDBRANCH  23  26
ENDBRANCH   2  22
BRANCH   1  33
HETATM   33  C   UNL     1       8.580  32.258  59.743  1.00  0.00     0.125 C 
HETATM   34  C   UNL     1       9.041  31.609  61.037  1.00  0.00     0.027 C 
ENDBRANCH   1  33
TORSDOF 7
ENDMDL
MODEL 2
REMARK VINA RESULT:      -9.4      2.076     11.161
REMARK  7 active torsions:
REMARK  status: ('A' for Active; 'I' for Inactive)
REMARK    1  A    between atoms: C_2  and  N_3 
REMARK    2  A    between atoms: C_4  and  C_5 
REMARK       I    between atoms: C_5  and  N_6 
REMARK    3  A    between atoms: N_6  and  C_7 
REMARK    4  A    between atoms: C_7  and  C_8 
REMARK    5  A    between atoms: C_19  and  N_20 
REMARK       I    between atoms: N_20  and  C_21 
REMARK    6  A    between atoms: C_21  and  C_22 
REMARK    7  A    between atoms: C_25  and  O_26 
ROOT
HETATM    1  N   UNL     1       6.567  27.859  54.636  1.00  0.00    -0.342 N 
HETATM    2  C   UNL     1       7.275  26.707  54.955  1.00  0.00     0.104 A 
HETATM    3  C   UNL     1       7.701  26.878  56.267  1.00  0.00     0.049 A 
HETATM    4  C   UNL     1       7.236  28.127  56.750  1.00  0.00    -0.005 A 
HETATM    5  C   UNL     1       6.531  28.731  55.713  1.00  0.00     0.045 A 
HETATM    6  C   UNL     1       7.346  28.791  57.992  1.00  0.00     0.043 A 
HETATM    7  C   UNL     1       6.747  30.042  58.175  1.00  0.00     0.035 A 
HETATM    8  C   UNL     1       6.058  30.631  57.111  1.00  0.00     0.032 A 
HETATM    9  C   UNL     1       5.934  29.991  55.871  1.00  0.00     0.033 A 
ENDROOT
BRANCH   7  10
HETATM   10  N   UNL     1       6.795  30.764  59.387  1.00  0.00    -0.323 N 
HETATM   11  C   UNL     1       7.680  31.775  59.720  1.00  0.00     0.256 C 
HETATM   12  O   UNL     1       8.614  32.195  59.046  1.00  0.00    -0.267 OA
HETATM   13  H   UNL     1       6.176  30.439  60.118  1.00  0.00     0.169 HD
BRANCH  11  14
HETATM   14  C   UNL     1       7.476  32.359  61.073  1.00  0.00     0.032 A 
HETATM   15  C   UNL     1       8.380  32.024  62.086  1.00  0.00     0.020 A 
HETATM   16  C   UNL     1       8.229  32.568  63.362  1.00  0.00     0.038 A 
HETATM   17  C   UNL     1       7.197  33.471  63.631  1.00  0.00     0.068 A 
HETATM   18  C   UNL     1       6.293  33.804  62.619  1.00  0.00     0.038 A 
HETATM   19  C   UNL     1       6.432  33.254  61.340  1.00  0.00     0.020 A 
BRANCH  17  20
HETATM   20  O   UNL     1       7.168  33.945  64.913  1.00  0.00    -0.356 OA
HETATM   21  C   UNL     1       5.882  34.077  65.505  1.00  0.00     0.210 C 
ENDBRANCH  17  20
ENDBRANCH  11  14
ENDBRANCH   7  10
BRANCH   2  22
HETATM   22  C   UNL     1       7.467  25.566  54.071  1.00  0.00     0.268 C 
HETATM   23  N   UNL     1       6.979  24.368  54.542  1.00  0.00    -0.353 N 
HETATM   24  H   UNL     1       6.711  24.292  55.514  1.00  0.00     0.162 HD
HETATM   25  O   UNL     1       8.024  25.639  52.978  1.00  0.00    -0.266 OA
BRANCH  23  26
HETATM   26  C   UNL     1       7.188  23.119  53.832  1.00  0.00     0.160 C 
BRANCH  26  27
HETATM   27  C   UNL     1       8.137  22.163  54.578  1.00  0.00     0.073 C 
HETATM   28  C   UNL     1       9.482  22.113  53.840  1.00  0.00     0.047 C 
HETATM   29  O   UNL     1       8.388  22.667  55.910  1.00  0.00    -0.379 OA
HETATM   30  C   UNL     1       8.365  21.569  56.835  1.00  0.00     0.169 C 
HETATM   31  C   UNL     1       8.245  20.292  56.030  1.00  0.00     0.029 C 
HETATM   32  C   UNL     1       7.553  20.762  54.774  1.00  0.00     0.041 C 
ENDBRANCH  26  27
ENDBRANCH  23  26
ENDBRANCH   2  22
BRANCH   1  33
HETATM   33  C   UNL     1       5.937  28.141  53.351  1.00  0.00     0.125 C 
HETATM   34  C   UNL     1       4.494  27.669  53.299  1.00  0.00     0.027 C 
ENDBRANCH   1  33
TORSDOF 7
ENDMDL
MODEL 3
REMARK VINA RESULT:      -9.2      1.423      2.182
REMARK  7 active torsions:
REMARK  status: ('A' for Active; 'I' for Inactive)
REMARK    1  A    between atoms: C_2  and  N_3 
REMARK    2  A    between atoms: C_4  and  C_5 
REMARK       I    between atoms: C_5  and  N_6 
REMARK    3  A    between atoms: N_6  and  C_7 
REMARK    4  A    between atoms: C_7  and  C_8 
REMARK    5  A    between atoms: C_19  and  N_20 
REMARK       I    between atoms: N_20  and  C_21 
REMARK    6  A    between atoms: C_21  and  C_22 
REMARK    7  A    between atoms: C_25  and  O_26 
ROOT
HETATM    1  N   UNL     1       6.647  31.201  58.260  1.00  0.00    -0.342 N 
HETATM    2  C   UNL     1       7.653  31.198  59.219  1.00  0.00     0.104 A 
HETATM    3  C   UNL     1       8.307  29.981  59.074  1.00  0.00     0.049 A 
HETATM    4  C   UNL     1       7.711  29.251  58.015  1.00  0.00    -0.005 A 
HETATM    5  C   UNL     1       6.668  30.029  57.519  1.00  0.00     0.045 A 
HETATM    6  C   UNL     1       7.979  27.996  57.427  1.00  0.00     0.043 A 
HETATM    7  C   UNL     1       7.205  27.543  56.353  1.00  0.00     0.035 A 
HETATM    8  C   UNL     1       6.155  28.339  55.886  1.00  0.00     0.032 A 
HETATM    9  C   UNL     1       5.871  29.589  56.452  1.00  0.00     0.033 A 
ENDROOT
BRANCH   7  10
HETATM   10  N   UNL     1       7.417  26.311  55.698  1.00  0.00    -0.323 N 
HETATM   11  C   UNL     1       6.520  25.263  55.584  1.00  0.00     0.256 C 
HETATM   12  O   UNL     1       5.397  25.193  56.070  1.00  0.00    -0.267 OA
HETATM   13  H   UNL     1       8.356  26.147  55.363  1.00  0.00     0.169 HD
BRANCH  11  14
HETATM   14  C   UNL     1       7.027  24.091  54.821  1.00  0.00     0.032 A 
HETATM   15  C   UNL     1       7.396  22.945  55.531  1.00  0.00     0.020 A 
HETATM   16  C   UNL     1       7.859  21.820  54.847  1.00  0.00     0.038 A 
HETATM   17  C   UNL     1       7.929  21.818  53.451  1.00  0.00     0.068 A 
HETATM   18  C   UNL     1       7.562  22.965  52.742  1.00  0.00     0.038 A 
HETATM   19  C   UNL     1       7.107  24.100  53.423  1.00  0.00     0.020 A 
BRANCH  17  20
HETATM   20  O   UNL     1       8.382  20.652  52.900  1.00  0.00    -0.356 OA
HETATM   21  C   UNL     1       8.989  19.728  53.794  1.00  0.00     0.210 C 
ENDBRANCH  17  20
ENDBRANCH  11  14
ENDBRANCH   7  10
BRANCH   2  22
HETATM   22  C   UNL     1       7.943  32.291  60.136  1.00  0.00     0.268 C 
HETATM   23  N   UNL     1       7.054  32.437  61.176  1.00  0.00    -0.353 N 
HETATM   24  H   UNL     1       6.171  31.944  61.145  1.00  0.00     0.162 HD
HETATM   25  O   UNL     1       8.906  33.045  60.014  1.00  0.00    -0.266 OA
BRANCH  23  26
HETATM   26  C   UNL     1       7.140  33.543  62.114  1.00  0.00     0.160 C 
BRANCH  26  27
HETATM   27  C   UNL     1       6.408  33.258  63.439  1.00  0.00     0.073 C 
HETATM   28  C   UNL     1       5.566  31.984  63.283  1.00  0.00     0.047 C 
HETATM   29  O   UNL     1       7.375  33.016  64.487  1.00  0.00    -0.379 OA
HETATM   30  C   UNL     1       6.937  33.677  65.684  1.00  0.00     0.169 C 
HETATM   31  C   UNL     1       5.554  34.234  65.422  1.00  0.00     0.029 C 
HETATM   32  C   UNL     1       5.561  34.434  63.927  1.00  0.00     0.041 C 
ENDBRANCH  26  27
ENDBRANCH  23  26
ENDBRANCH   2  22
BRANCH   1  33
HETATM   33  C   UNL     1       5.685  32.274  58.041  1.00  0.00     0.125 C 
HETATM   34  C   UNL     1       4.383  32.044  58.789  1.00  0.00     0.027 C 
ENDBRANCH   1  33
TORSDOF 7
ENDMDL
MODEL 4
REMARK VINA RESULT:      -8.9      3.995     11.012
REMARK  7 active torsions:
REMARK  status: ('A' for Active; 'I' for Inactive)
REMARK    1  A    between atoms: C_2  and  N_3 
REMARK    2  A    between atoms: C_4  and  C_5 
REMARK       I    between atoms: C_5  and  N_6 
REMARK    3  A    between atoms: N_6  and  C_7 
REMARK    4  A    between atoms: C_7  and  C_8 
REMARK    5  A    between atoms: C_19  and  N_20 
REMARK       I    between atoms: N_20  and  C_21 
REMARK    6  A    between atoms: C_21  and  C_22 
REMARK    7  A    between atoms: C_25  and  O_26 
ROOT
HETATM    1  N   UNL     1       6.872  25.711  54.207  1.00  0.00    -0.342 N 
HETATM    2  C   UNL     1       5.763  26.235  53.555  1.00  0.00     0.104 A 
HETATM    3  C   UNL     1       5.329  27.295  54.342  1.00  0.00     0.049 A 
HETATM    4  C   UNL     1       6.187  27.427  55.463  1.00  0.00    -0.005 A 
HETATM    5  C   UNL     1       7.146  26.422  55.366  1.00  0.00     0.045 A 
HETATM    6  C   UNL     1       6.234  28.327  56.550  1.00  0.00     0.043 A 
HETATM    7  C   UNL     1       7.240  28.209  57.516  1.00  0.00     0.035 A 
HETATM    8  C   UNL     1       8.181  27.182  57.399  1.00  0.00     0.032 A 
HETATM    9  C   UNL     1       8.155  26.279  56.329  1.00  0.00     0.033 A 
ENDROOT
BRANCH   7  10
HETATM   10  N   UNL     1       7.370  29.077  58.622  1.00  0.00    -0.323 N 
HETATM   11  C   UNL     1       8.360  30.023  58.827  1.00  0.00     0.256 C 
HETATM   12  O   UNL     1       9.330  30.247  58.112  1.00  0.00    -0.267 OA
HETATM   13  H   UNL     1       6.723  28.920  59.383  1.00  0.00     0.169 HD
BRANCH  11  14
HETATM   14  C   UNL     1       8.225  30.800  60.087  1.00  0.00     0.032 A 
HETATM   15  C   UNL     1       9.151  30.575  61.111  1.00  0.00     0.020 A 
HETATM   16  C   UNL     1       9.065  31.300  62.300  1.00  0.00     0.038 A 
HETATM   17  C   UNL     1       8.077  32.274  62.467  1.00  0.00     0.068 A 
HETATM   18  C   UNL     1       7.151  32.498  61.446  1.00  0.00     0.038 A 
HETATM   19  C   UNL     1       7.224  31.766  60.255  1.00  0.00     0.020 A 
BRANCH  17  20
HETATM   20  O   UNL     1       8.110  32.925  63.669  1.00  0.00    -0.356 OA
HETATM   21  C   UNL     1       6.852  33.292  64.221  1.00  0.00     0.210 C 
ENDBRANCH  17  20
ENDBRANCH  11  14
ENDBRANCH   7  10
BRANCH   2  22
HETATM   22  C   UNL     1       5.230  25.757  52.287  1.00  0.00     0.268 C 
HETATM   23  N   UNL     1       5.362  26.627  51.229  1.00  0.00    -0.353 N 
HETATM   24  H   UNL     1       5.617  27.588  51.408  1.00  0.00     0.162 HD
HETATM   25  O   UNL     1       4.694  24.660  52.145  1.00  0.00    -0.266 OA
BRANCH  23  26
HETATM   26  C   UNL     1       4.785  26.346  49.925  1.00  0.00     0.160 C 
BRANCH  26  27
HETATM   27  C   UNL     1       4.236  27.609  49.235  1.00  0.00     0.073 C 
HETATM   28  C   UNL     1       2.936  27.254  48.499  1.00  0.00     0.047 C 
HETATM   29  O   UNL     1       3.915  28.608  50.230  1.00  0.00    -0.379 OA
HETATM   30  C   UNL     1       4.342  29.893  49.752  1.00  0.00     0.169 C 
HETATM   31  C   UNL     1       4.816  29.719  48.325  1.00  0.00     0.029 C 
HETATM   32  C   UNL     1       5.247  28.274  48.298  1.00  0.00     0.041 C 
ENDBRANCH  26  27
ENDBRANCH  23  26
ENDBRANCH   2  22
BRANCH   1  33
HETATM   33  C   UNL     1       7.661  24.570  53.759  1.00  0.00     0.125 C 
HETATM   34  C   UNL     1       7.171  23.260  54.354  1.00  0.00     0.027 C 
ENDBRANCH   1  33
TORSDOF 7
ENDMDL
MODEL 5
REMARK VINA RESULT:      -8.8      3.931     12.457
REMARK  7 active torsions:
REMARK  status: ('A' for Active; 'I' for Inactive)
REMARK    1  A    between atoms: C_2  and  N_3 
REMARK    2  A    between atoms: C_4  and  C_5 
REMARK       I    between atoms: C_5  and  N_6 
REMARK    3  A    between atoms: N_6  and  C_7 
REMARK    4  A    between atoms: C_7  and  C_8 
REMARK    5  A    between atoms: C_19  and  N_20 
REMARK       I    between atoms: N_20  and  C_21 
REMARK    6  A    between atoms: C_21  and  C_22 
REMARK    7  A    between atoms: C_25  and  O_26 
ROOT
HETATM    1  N   UNL     1       5.018  33.176  61.150  1.00  0.00    -0.342 N 
HETATM    2  C   UNL     1       6.146  32.642  60.541  1.00  0.00     0.104 A 
HETATM    3  C   UNL     1       7.097  32.525  61.549  1.00  0.00     0.049 A 
HETATM    4  C   UNL     1       6.539  32.972  62.773  1.00  0.00    -0.005 A 
HETATM    5  C   UNL     1       5.236  33.382  62.504  1.00  0.00     0.045 A 
HETATM    6  C   UNL     1       7.031  33.051  64.094  1.00  0.00     0.043 A 
HETATM    7  C   UNL     1       6.211  33.533  65.121  1.00  0.00     0.035 A 
HETATM    8  C   UNL     1       4.912  33.951  64.818  1.00  0.00     0.032 A 
HETATM    9  C   UNL     1       4.402  33.880  63.516  1.00  0.00     0.033 A 
ENDROOT
BRANCH   7  10
HETATM   10  N   UNL     1       6.619  33.628  66.470  1.00  0.00    -0.323 N 
HETATM   11  C   UNL     1       6.124  34.494  67.430  1.00  0.00     0.256 C 
HETATM   12  O   UNL     1       5.279  35.368  67.275  1.00  0.00    -0.267 OA
HETATM   13  H   UNL     1       7.420  33.068  66.728  1.00  0.00     0.169 HD
BRANCH  11  14
HETATM   14  C   UNL     1       6.745  34.352  68.774  1.00  0.00     0.032 A 
HETATM   15  C   UNL     1       6.072  33.599  69.742  1.00  0.00     0.020 A 
HETATM   16  C   UNL     1       6.634  33.430  71.007  1.00  0.00     0.038 A 
HETATM   17  C   UNL     1       7.882  33.982  71.309  1.00  0.00     0.068 A 
HETATM   18  C   UNL     1       8.554  34.735  70.343  1.00  0.00     0.038 A 
HETATM   19  C   UNL     1       7.990  34.918  69.075  1.00  0.00     0.020 A 
BRANCH  17  20
HETATM   20  O   UNL     1       8.331  33.730  72.576  1.00  0.00    -0.356 OA
HETATM   21  C   UNL     1       7.404  33.963  73.629  1.00  0.00     0.210 C 
ENDBRANCH  17  20
ENDBRANCH  11  14
ENDBRANCH   7  10
BRANCH   2  22
HETATM   22  C   UNL     1       6.247  32.263  59.139  1.00  0.00     0.268 C 
HETATM   23  N   UNL     1       6.642  30.966  58.908  1.00  0.00    -0.353 N 
HETATM   24  H   UNL     1       7.028  30.423  59.669  1.00  0.00     0.162 HD
HETATM   25  O   UNL     1       6.002  33.028  58.209  1.00  0.00    -0.266 OA
BRANCH  23  26
HETATM   26  C   UNL     1       6.896  30.465  57.568  1.00  0.00     0.160 C 
BRANCH  26  27
HETATM   27  C   UNL     1       8.197  29.646  57.476  1.00  0.00     0.073 C 
HETATM   28  C   UNL     1       7.925  28.215  57.963  1.00  0.00     0.047 C 
HETATM   29  O   UNL     1       8.625  29.564  56.097  1.00  0.00    -0.379 OA
HETATM   30  C   UNL     1      10.049  29.736  56.042  1.00  0.00     0.169 C 
HETATM   31  C   UNL     1      10.563  29.775  57.466  1.00  0.00     0.029 C 
HETATM   32  C   UNL     1       9.366  30.282  58.231  1.00  0.00     0.041 C 
ENDBRANCH  26  27
ENDBRANCH  23  26
ENDBRANCH   2  22
BRANCH   1  33
HETATM   33  C   UNL     1       3.760  33.491  60.482  1.00  0.00     0.125 C 
HETATM   34  C   UNL     1       3.682  34.947  60.055  1.00  0.00     0.027 C 
ENDBRANCH   1  33
TORSDOF 7
ENDMDL
MODEL 6
REMARK VINA RESULT:      -8.5      2.008      2.903
REMARK  7 active torsions:
REMARK  status: ('A' for Active; 'I' for Inactive)
REMARK    1  A    between atoms: C_2  and  N_3 
REMARK    2  A    between atoms: C_4  and  C_5 
REMARK       I    between atoms: C_5  and  N_6 
REMARK    3  A    between atoms: N_6  and  C_7 
REMARK    4  A    between atoms: C_7  and  C_8 
REMARK    5  A    between atoms: C_19  and  N_20 
REMARK       I    between atoms: N_20  and  C_21 
REMARK    6  A    between atoms: C_21  and  C_22 
REMARK    7  A    between atoms: C_25  and  O_26 
ROOT
HETATM    1  N   UNL     1       4.330  31.209  56.791  1.00  0.00    -0.342 N 
HETATM    2  C   UNL     1       5.219  31.643  57.767  1.00  0.00     0.104 A 
HETATM    3  C   UNL     1       6.148  30.619  57.912  1.00  0.00     0.049 A 
HETATM    4  C   UNL     1       5.833  29.571  57.010  1.00  0.00    -0.005 A 
HETATM    5  C   UNL     1       4.688  29.955  56.319  1.00  0.00     0.045 A 
HETATM    6  C   UNL     1       6.436  28.329  56.715  1.00  0.00     0.043 A 
HETATM    7  C   UNL     1       5.887  27.496  55.734  1.00  0.00     0.035 A 
HETATM    8  C   UNL     1       4.728  27.902  55.066  1.00  0.00     0.032 A 
HETATM    9  C   UNL     1       4.113  29.131  55.340  1.00  0.00     0.033 A 
ENDROOT
BRANCH   7  10
HETATM   10  N   UNL     1       6.436  26.249  55.367  1.00  0.00    -0.323 N 
HETATM   11  C   UNL     1       7.276  25.992  54.296  1.00  0.00     0.256 C 
HETATM   12  O   UNL     1       7.656  26.787  53.444  1.00  0.00    -0.267 OA
HETATM   13  H   UNL     1       6.103  25.450  55.888  1.00  0.00     0.169 HD
BRANCH  11  14
HETATM   14  C   UNL     1       7.704  24.574  54.169  1.00  0.00     0.032 A 
HETATM   15  C   UNL     1       8.201  23.924  55.304  1.00  0.00     0.020 A 
HETATM   16  C   UNL     1       8.595  22.588  55.225  1.00  0.00     0.038 A 
HETATM   17  C   UNL     1       8.470  21.881  54.027  1.00  0.00     0.068 A 
HETATM   18  C   UNL     1       7.975  22.530  52.892  1.00  0.00     0.038 A 
HETATM   19  C   UNL     1       7.589  23.873  52.962  1.00  0.00     0.020 A 
BRANCH  17  20
HETATM   20  O   UNL     1       8.874  20.576  54.085  1.00  0.00    -0.356 OA
HETATM   21  C   UNL     1       8.867  19.971  55.372  1.00  0.00     0.210 C 
ENDBRANCH  17  20
ENDBRANCH  11  14
ENDBRANCH   7  10
BRANCH   2  22
HETATM   22  C   UNL     1       5.165  32.933  58.440  1.00  0.00     0.268 C 
HETATM   23  N   UNL     1       4.955  32.878  59.798  1.00  0.00    -0.353 N 
HETATM   24  H   UNL     1       4.653  32.009  60.217  1.00  0.00     0.162 HD
HETATM   25  O   UNL     1       5.295  34.009  57.860  1.00  0.00    -0.266 OA
BRANCH  23  26
HETATM   26  C   UNL     1       4.767  34.077  60.597  1.00  0.00     0.160 C 
BRANCH  26  27
HETATM   27  C   UNL     1       5.560  34.042  61.917  1.00  0.00     0.073 C 
HETATM   28  C   UNL     1       5.785  35.480  62.406  1.00  0.00     0.047 C 
HETATM   29  O   UNL     1       4.793  33.352  62.929  1.00  0.00    -0.379 OA
HETATM   30  C   UNL     1       5.673  32.500  63.680  1.00  0.00     0.169 C 
HETATM   31  C   UNL     1       7.088  32.781  63.219  1.00  0.00     0.029 C 
HETATM   32  C   UNL     1       6.879  33.274  61.808  1.00  0.00     0.041 C 
ENDBRANCH  26  27
ENDBRANCH  23  26
ENDBRANCH   2  22
BRANCH   1  33
HETATM   33  C   UNL     1       3.170  31.949  56.309  1.00  0.00     0.125 C 
HETATM   34  C   UNL     1       3.482  32.768  55.068  1.00  0.00     0.027 C 
ENDBRANCH   1  33
TORSDOF 7
ENDMDL
MODEL 7
REMARK VINA RESULT:      -8.4      1.998     11.029
REMARK  7 active torsions:
REMARK  status: ('A' for Active; 'I' for Inactive)
REMARK    1  A    between atoms: C_2  and  N_3 
REMARK    2  A    between atoms: C_4  and  C_5 
REMARK       I    between atoms: C_5  and  N_6 
REMARK    3  A    between atoms: N_6  and  C_7 
REMARK    4  A    between atoms: C_7  and  C_8 
REMARK    5  A    between atoms: C_19  and  N_20 
REMARK       I    between atoms: N_20  and  C_21 
REMARK    6  A    between atoms: C_21  and  C_22 
REMARK    7  A    between atoms: C_25  and  O_26 
ROOT
HETATM    1  N   UNL     1       9.057  30.012  56.960  1.00  0.00    -0.342 N 
HETATM    2  C   UNL     1       7.916  29.344  56.534  1.00  0.00     0.104 A 
HETATM    3  C   UNL     1       6.972  29.536  57.536  1.00  0.00     0.049 A 
HETATM    4  C   UNL     1       7.535  30.336  58.563  1.00  0.00    -0.005 A 
HETATM    5  C   UNL     1       8.845  30.621  58.187  1.00  0.00     0.045 A 
HETATM    6  C   UNL     1       7.034  30.853  59.777  1.00  0.00     0.043 A 
HETATM    7  C   UNL     1       7.849  31.647  60.592  1.00  0.00     0.035 A 
HETATM    8  C   UNL     1       9.165  31.904  60.196  1.00  0.00     0.032 A 
HETATM    9  C   UNL     1       9.683  31.404  58.995  1.00  0.00     0.033 A 
ENDROOT
BRANCH   7  10
HETATM   10  N   UNL     1       7.422  32.217  61.811  1.00  0.00    -0.323 N 
HETATM   11  C   UNL     1       6.422  33.158  61.984  1.00  0.00     0.256 C 
HETATM   12  O   UNL     1       5.759  33.706  61.110  1.00  0.00    -0.267 OA
HETATM   13  H   UNL     1       7.971  31.978  62.625  1.00  0.00     0.169 HD
BRANCH  11  14
HETATM   14  C   UNL     1       6.187  33.562  63.396  1.00  0.00     0.032 A 
HETATM   15  C   UNL     1       7.232  33.414  64.314  1.00  0.00     0.020 A 
HETATM   16  C   UNL     1       7.053  33.799  65.643  1.00  0.00     0.038 A 
HETATM   17  C   UNL     1       5.844  34.362  66.061  1.00  0.00     0.068 A 
HETATM   18  C   UNL     1       4.799  34.509  65.145  1.00  0.00     0.038 A 
HETATM   19  C   UNL     1       4.969  34.114  63.813  1.00  0.00     0.020 A 
BRANCH  17  20
HETATM   20  O   UNL     1       5.800  34.714  67.382  1.00  0.00    -0.356 OA
HETATM   21  C   UNL     1       4.869  34.006  68.190  1.00  0.00     0.210 C 
ENDBRANCH  17  20
ENDBRANCH  11  14
ENDBRANCH   7  10
BRANCH   2  22
HETATM   22  C   UNL     1       7.777  28.637  55.269  1.00  0.00     0.268 C 
HETATM   23  N   UNL     1       6.584  27.974  55.094  1.00  0.00    -0.353 N 
HETATM   24  H   UNL     1       5.974  27.836  55.888  1.00  0.00     0.162 HD
HETATM   25  O   UNL     1       8.648  28.617  54.402  1.00  0.00    -0.266 OA
BRANCH  23  26
HETATM   26  C   UNL     1       6.334  27.132  53.937  1.00  0.00     0.160 C 
BRANCH  26  27
HETATM   27  C   UNL     1       6.411  25.630  54.267  1.00  0.00     0.073 C 
HETATM   28  C   UNL     1       5.481  24.859  53.319  1.00  0.00     0.047 C 
HETATM   29  O   UNL     1       7.756  25.150  54.043  1.00  0.00    -0.379 OA
HETATM   30  C   UNL     1       8.116  24.260  55.111  1.00  0.00     0.169 C 
HETATM   31  C   UNL     1       6.885  24.048  55.967  1.00  0.00     0.029 C 
HETATM   32  C   UNL     1       6.103  25.317  55.732  1.00  0.00     0.041 C 
ENDBRANCH  26  27
ENDBRANCH  23  26
ENDBRANCH   2  22
BRANCH   1  33
HETATM   33  C   UNL     1      10.322  30.079  56.237  1.00  0.00     0.125 C 
HETATM   34  C   UNL     1      11.457  29.414  56.997  1.00  0.00     0.027 C 
ENDBRANCH   1  33
TORSDOF 7
ENDMDL
MODEL 8
REMARK VINA RESULT:      -8.2      8.568     10.652
REMARK  7 active torsions:
REMARK  status: ('A' for Active; 'I' for Inactive)
REMARK    1  A    between atoms: C_2  and  N_3 
REMARK    2  A    between atoms: C_4  and  C_5 
REMARK       I    between atoms: C_5  and  N_6 
REMARK    3  A    between atoms: N_6  and  C_7 
REMARK    4  A    between atoms: C_7  and  C_8 
REMARK    5  A    between atoms: C_19  and  N_20 
REMARK       I    between atoms: N_20  and  C_21 
REMARK    6  A    between atoms: C_21  and  C_22 
REMARK    7  A    between atoms: C_25  and  O_26 
ROOT
HETATM    1  N   UNL     1       4.052  29.275  48.635  1.00  0.00    -0.342 N 
HETATM    2  C   UNL     1       4.389  30.432  49.326  1.00  0.00     0.104 A 
HETATM    3  C   UNL     1       4.976  30.005  50.511  1.00  0.00     0.049 A 
HETATM    4  C   UNL     1       5.012  28.588  50.531  1.00  0.00    -0.005 A 
HETATM    5  C   UNL     1       4.424  28.146  49.349  1.00  0.00     0.045 A 
HETATM    6  C   UNL     1       5.509  27.642  51.454  1.00  0.00     0.043 A 
HETATM    7  C   UNL     1       5.413  26.273  51.177  1.00  0.00     0.035 A 
HETATM    8  C   UNL     1       4.804  25.859  49.988  1.00  0.00     0.032 A 
HETATM    9  C   UNL     1       4.306  26.779  49.057  1.00  0.00     0.033 A 
ENDROOT
BRANCH   7  10
HETATM   10  N   UNL     1       5.899  25.264  52.036  1.00  0.00    -0.323 N 
HETATM   11  C   UNL     1       7.218  25.036  52.389  1.00  0.00     0.256 C 
HETATM   12  O   UNL     1       8.208  25.635  51.985  1.00  0.00    -0.267 OA
HETATM   13  H   UNL     1       5.219  24.584  52.346  1.00  0.00     0.169 HD
BRANCH  11  14
HETATM   14  C   UNL     1       7.422  23.900  53.327  1.00  0.00     0.032 A 
HETATM   15  C   UNL     1       7.154  24.101  54.685  1.00  0.00     0.020 A 
HETATM   16  C   UNL     1       7.317  23.051  55.590  1.00  0.00     0.038 A 
HETATM   17  C   UNL     1       7.719  21.788  55.147  1.00  0.00     0.068 A 
HETATM   18  C   UNL     1       7.989  21.588  53.790  1.00  0.00     0.038 A 
HETATM   19  C   UNL     1       7.838  22.639  52.879  1.00  0.00     0.020 A 
BRANCH  17  20
HETATM   20  O   UNL     1       7.826  20.842  56.128  1.00  0.00    -0.356 OA
HETATM   21  C   UNL     1       9.135  20.352  56.390  1.00  0.00     0.210 C 
ENDBRANCH  17  20
ENDBRANCH  11  14
ENDBRANCH   7  10
BRANCH   2  22
HETATM   22  C   UNL     1       4.182  31.790  48.843  1.00  0.00     0.268 C 
HETATM   23  N   UNL     1       5.112  32.239  47.935  1.00  0.00    -0.353 N 
HETATM   24  H   UNL     1       5.969  31.718  47.806  1.00  0.00     0.162 HD
HETATM   25  O   UNL     1       3.251  32.506  49.206  1.00  0.00    -0.266 OA
BRANCH  23  26
HETATM   26  C   UNL     1       5.110  33.606  47.442  1.00  0.00     0.160 C 
BRANCH  26  27
HETATM   27  C   UNL     1       6.489  34.052  46.922  1.00  0.00     0.073 C 
HETATM   28  C   UNL     1       6.771  33.354  45.583  1.00  0.00     0.047 C 
HETATM   29  O   UNL     1       6.481  35.477  46.677  1.00  0.00    -0.379 OA
HETATM   30  C   UNL     1       7.720  36.036  47.139  1.00  0.00     0.169 C 
HETATM   31  C   UNL     1       8.615  34.888  47.556  1.00  0.00     0.029 C 
HETATM   32  C   UNL     1       7.619  33.816  47.926  1.00  0.00     0.041 C 
ENDBRANCH  26  27
ENDBRANCH  23  26
ENDBRANCH   2  22
BRANCH   1  33
HETATM   33  C   UNL     1       3.395  29.222  47.334  1.00  0.00     0.125 C 
HETATM   34  C   UNL     1       1.885  29.109  47.454  1.00  0.00     0.027 C 
ENDBRANCH   1  33
TORSDOF 7
ENDMDL
MODEL 9
REMARK VINA RESULT:      -8.1      3.918     11.217
REMARK  7 active torsions:
REMARK  status: ('A' for Active; 'I' for Inactive)
REMARK    1  A    between atoms: C_2  and  N_3 
REMARK    2  A    between atoms: C_4  and  C_5 
REMARK       I    between atoms: C_5  and  N_6 
REMARK    3  A    between atoms: N_6  and  C_7 
REMARK    4  A    between atoms: C_7  and  C_8 
REMARK    5  A    between atoms: C_19  and  N_20 
REMARK       I    between atoms: N_20  and  C_21 
REMARK    6  A    between atoms: C_21  and  C_22 
REMARK    7  A    between atoms: C_25  and  O_26 
ROOT
HETATM    1  N   UNL     1       5.833  28.862  54.521  1.00  0.00    -0.342 N 
HETATM    2  C   UNL     1       4.662  29.455  54.065  1.00  0.00     0.104 A 
HETATM    3  C   UNL     1       4.239  30.291  55.092  1.00  0.00     0.049 A 
HETATM    4  C   UNL     1       5.164  30.220  56.164  1.00  0.00    -0.005 A 
HETATM    5  C   UNL     1       6.154  29.315  55.792  1.00  0.00     0.045 A 
HETATM    6  C   UNL     1       5.248  30.861  57.420  1.00  0.00     0.043 A 
HETATM    7  C   UNL     1       6.321  30.589  58.277  1.00  0.00     0.035 A 
HETATM    8  C   UNL     1       7.292  29.665  57.882  1.00  0.00     0.032 A 
HETATM    9  C   UNL     1       7.231  29.018  56.641  1.00  0.00     0.033 A 
ENDROOT
BRANCH   7  10
HETATM   10  N   UNL     1       6.489  31.198  59.539  1.00  0.00    -0.323 N 
HETATM   11  C   UNL     1       7.484  32.087  59.908  1.00  0.00     0.256 C 
HETATM   12  O   UNL     1       8.428  32.469  59.226  1.00  0.00    -0.267 OA
HETATM   13  H   UNL     1       5.870  30.875  60.270  1.00  0.00     0.169 HD
BRANCH  11  14
HETATM   14  C   UNL     1       7.394  32.573  61.311  1.00  0.00     0.032 A 
HETATM   15  C   UNL     1       6.337  33.422  61.655  1.00  0.00     0.020 A 
HETATM   16  C   UNL     1       6.212  33.882  62.966  1.00  0.00     0.038 A 
HETATM   17  C   UNL     1       7.118  33.477  63.950  1.00  0.00     0.068 A 
HETATM   18  C   UNL     1       8.175  32.630  63.606  1.00  0.00     0.038 A 
HETATM   19  C   UNL     1       8.313  32.174  62.290  1.00  0.00     0.020 A 
BRANCH  17  20
HETATM   20  O   UNL     1       6.876  33.983  65.197  1.00  0.00    -0.356 OA
HETATM   21  C   UNL     1       5.526  34.322  65.488  1.00  0.00     0.210 C 
ENDBRANCH  17  20
ENDBRANCH  11  14
ENDBRANCH   7  10
BRANCH   2  22
HETATM   22  C   UNL     1       4.064  29.239  52.755  1.00  0.00     0.268 C 
HETATM   23  N   UNL     1       4.753  29.787  51.698  1.00  0.00    -0.353 N 
HETATM   24  H   UNL     1       5.487  30.457  51.880  1.00  0.00     0.162 HD
HETATM   25  O   UNL     1       3.020  28.615  52.579  1.00  0.00    -0.266 OA
BRANCH  23  26
HETATM   26  C   UNL     1       4.233  29.755  50.341  1.00  0.00     0.160 C 
BRANCH  26  27
HETATM   27  C   UNL     1       4.646  28.483  49.577  1.00  0.00     0.073 C 
HETATM   28  C   UNL     1       5.506  28.879  48.369  1.00  0.00     0.047 C 
HETATM   29  O   UNL     1       5.456  27.642  50.431  1.00  0.00    -0.379 OA
HETATM   30  C   UNL     1       5.061  26.274  50.247  1.00  0.00     0.169 C 
HETATM   31  C   UNL     1       4.060  26.234  49.111  1.00  0.00     0.029 C 
HETATM   32  C   UNL     1       3.457  27.616  49.159  1.00  0.00     0.041 C 
ENDBRANCH  26  27
ENDBRANCH  23  26
ENDBRANCH   2  22
BRANCH   1  33
HETATM   33  C   UNL     1       6.635  27.891  53.787  1.00  0.00     0.125 C 
HETATM   34  C   UNL     1       6.193  26.461  54.049  1.00  0.00     0.027 C 
ENDBRANCH   1  33
TORSDOF 7
ENDMDL
MODEL 10
REMARK VINA RESULT:      -8.1      2.186      3.491
REMARK  7 active torsions:
REMARK  status: ('A' for Active; 'I' for Inactive)
REMARK    1  A    between atoms: C_2  and  N_3 
REMARK    2  A    between atoms: C_4  and  C_5 
REMARK       I    between atoms: C_5  and  N_6 
REMARK    3  A    between atoms: N_6  and  C_7 
REMARK    4  A    between atoms: C_7  and  C_8 
REMARK    5  A    between atoms: C_19  and  N_20 
REMARK       I    between atoms: N_20  and  C_21 
REMARK    6  A    between atoms: C_21  and  C_22 
REMARK    7  A    between atoms: C_25  and  O_26 
ROOT
HETATM    1  N   UNL     1       7.434  31.513  58.950  1.00  0.00    -0.342 N 
HETATM    2  C   UNL     1       6.080  31.824  58.916  1.00  0.00     0.104 A 
HETATM    3  C   UNL     1       5.488  30.842  58.131  1.00  0.00     0.049 A 
HETATM    4  C   UNL     1       6.480  29.924  57.703  1.00  0.00    -0.005 A 
HETATM    5  C   UNL     1       7.695  30.363  58.221  1.00  0.00     0.045 A 
HETATM    6  C   UNL     1       6.443  28.746  56.926  1.00  0.00     0.043 A 
HETATM    7  C   UNL     1       7.619  28.027  56.684  1.00  0.00     0.035 A 
HETATM    8  C   UNL     1       8.827  28.500  57.205  1.00  0.00     0.032 A 
HETATM    9  C   UNL     1       8.888  29.665  57.980  1.00  0.00     0.033 A 
ENDROOT
BRANCH   7  10
HETATM   10  N   UNL     1       7.667  26.832  55.933  1.00  0.00    -0.323 N 
HETATM   11  C   UNL     1       7.747  25.541  56.427  1.00  0.00     0.256 C 
HETATM   12  O   UNL     1       7.840  25.201  57.602  1.00  0.00    -0.267 OA
HETATM   13  H   UNL     1       7.745  26.944  54.932  1.00  0.00     0.169 HD
BRANCH  11  14
HETATM   14  C   UNL     1       7.769  24.478  55.388  1.00  0.00     0.032 A 
HETATM   15  C   UNL     1       7.747  23.143  55.801  1.00  0.00     0.020 A 
HETATM   16  C   UNL     1       7.748  22.120  54.851  1.00  0.00     0.038 A 
HETATM   17  C   UNL     1       7.741  22.419  53.486  1.00  0.00     0.068 A 
HETATM   18  C   UNL     1       7.764  23.753  53.073  1.00  0.00     0.038 A 
HETATM   19  C   UNL     1       7.775  24.784  54.020  1.00  0.00     0.020 A 
BRANCH  17  20
HETATM   20  O   UNL     1       7.725  21.330  52.659  1.00  0.00    -0.356 OA
HETATM   21  C   UNL     1       8.598  20.263  53.008  1.00  0.00     0.210 C 
ENDBRANCH  17  20
ENDBRANCH  11  14
ENDBRANCH   7  10
BRANCH   2  22
HETATM   22  C   UNL     1       5.456  32.941  59.612  1.00  0.00     0.268 C 
HETATM   23  N   UNL     1       4.642  33.735  58.837  1.00  0.00    -0.353 N 
HETATM   24  H   UNL     1       4.674  33.643  57.831  1.00  0.00     0.162 HD
HETATM   25  O   UNL     1       5.627  33.180  60.805  1.00  0.00    -0.266 OA
BRANCH  23  26
HETATM   26  C   UNL     1       4.034  34.949  59.353  1.00  0.00     0.160 C 
BRANCH  26  27
HETATM   27  C   UNL     1       3.742  35.983  58.249  1.00  0.00     0.073 C 
HETATM   28  C   UNL     1       3.979  37.394  58.806  1.00  0.00     0.047 C 
HETATM   29  O   UNL     1       4.658  35.790  57.146  1.00  0.00    -0.379 OA
HETATM   30  C   UNL     1       3.937  35.931  55.912  1.00  0.00     0.169 C 
HETATM   31  C   UNL     1       2.532  36.385  56.250  1.00  0.00     0.029 C 
HETATM   32  C   UNL     1       2.342  35.845  57.646  1.00  0.00     0.041 C 
ENDBRANCH  26  27
ENDBRANCH  23  26
ENDBRANCH   2  22
BRANCH   1  33
HETATM   33  C   UNL     1       8.463  32.275  59.646  1.00  0.00     0.125 C 
HETATM   34  C   UNL     1       8.792  31.690  61.009  1.00  0.00     0.027 C 
ENDBRANCH   1  33
TORSDOF 7
ENDMDL
