MODEL 1
REMARK VINA RESULT:      -8.3      0.000      0.000
REMARK  2 active torsions:
REMARK  status: ('A' for Active; 'I' for Inactive)
REMARK    1  A    between atoms: C_4  and  C_5 
REMARK    2  A    between atoms: C_10  and  C_11 
ROOT
HETATM    1  C   UNL     1       7.543  25.665  53.992  1.00  0.00     0.224 C 
HETATM    2  N   UNL     1       8.162  24.557  53.254  1.00  0.00    -0.359 N 
HETATM    3  C   UNL     1       8.321  24.765  51.820  1.00  0.00     0.152 C 
HETATM    4  C   UNL     1       7.976  23.272  53.765  1.00  0.00     0.047 A 
HETATM    5  C   UNL     1       7.712  23.087  55.136  1.00  0.00     0.058 A 
HETATM    6  C   UNL     1       7.672  24.277  56.009  1.00  0.00     0.255 C 
HETATM    7  O   UNL     1       7.555  24.189  57.226  1.00  0.00    -0.268 OA
HETATM    8  N   UNL     1       7.798  25.487  55.390  1.00  0.00    -0.331 N 
HETATM    9  C   UNL     1       8.072  22.111  52.982  1.00  0.00     0.030 A 
HETATM   10  C   UNL     1       7.877  20.836  53.531  1.00  0.00     0.002 A 
HETATM   11  C   UNL     1       7.595  20.688  54.885  1.00  0.00     0.001 A 
HETATM   12  C   UNL     1       7.519  21.816  55.694  1.00  0.00     0.019 A 
HETATM   13  H   UNL     1       7.679  26.287  55.994  1.00  0.00     0.165 HD
ENDROOT
BRANCH   1  14
HETATM   14  C   UNL     1       6.072  25.907  53.801  1.00  0.00     0.034 A 
HETATM   15  C   UNL     1       5.283  26.960  54.347  1.00  0.00     0.122 A 
HETATM   16  N   UNL     1       3.999  26.880  53.961  1.00  0.00    -0.172 NA
HETATM   17  N   UNL     1       3.955  25.773  53.209  1.00  0.00    -0.288 N 
HETATM   18  H   UNL     1       3.061  25.494  52.818  1.00  0.00     0.188 HD
HETATM   19  C   UNL     1       5.162  25.164  53.067  1.00  0.00     0.123 A 
BRANCH  15  20
HETATM   20  C   UNL     1       5.757  28.055  55.249  1.00  0.00     0.106 A 
HETATM   21  O   UNL     1       6.578  27.881  56.330  1.00  0.00    -0.313 OA
HETATM   22  C   UNL     1       6.789  29.105  56.887  1.00  0.00     0.050 A 
HETATM   23  C   UNL     1       7.666  29.152  58.075  1.00  0.00     0.076 C 
HETATM   24  C   UNL     1       6.104  30.071  56.185  1.00  0.00     0.035 A 
HETATM   25  C   UNL     1       5.440  29.396  55.132  1.00  0.00     0.042 A 
ENDBRANCH  15  20
ENDBRANCH   1  14
TORSDOF 2
ENDMDL
MODEL 2
REMARK VINA RESULT:      -8.2      2.077      3.133
REMARK  2 active torsions:
REMARK  status: ('A' for Active; 'I' for Inactive)
REMARK    1  A    between atoms: C_4  and  C_5 
REMARK    2  A    between atoms: C_10  and  C_11 
ROOT
HETATM    1  C   UNL     1       7.450  27.975  55.854  1.00  0.00     0.224 C 
HETATM    2  N   UNL     1       7.685  27.156  54.659  1.00  0.00    -0.359 N 
HETATM    3  C   UNL     1       7.409  27.806  53.384  1.00  0.00     0.152 C 
HETATM    4  C   UNL     1       7.533  25.775  54.796  1.00  0.00     0.047 A 
HETATM    5  C   UNL     1       7.693  25.168  56.056  1.00  0.00     0.058 A 
HETATM    6  C   UNL     1       8.056  26.022  57.205  1.00  0.00     0.255 C 
HETATM    7  O   UNL     1       8.317  25.554  58.309  1.00  0.00    -0.268 OA
HETATM    8  N   UNL     1       8.110  27.365  56.969  1.00  0.00    -0.331 N 
HETATM    9  C   UNL     1       7.254  24.921  53.718  1.00  0.00     0.030 A 
HETATM   10  C   UNL     1       7.107  23.538  53.896  1.00  0.00     0.002 A 
HETATM   11  C   UNL     1       7.250  22.972  55.158  1.00  0.00     0.001 A 
HETATM   12  C   UNL     1       7.551  23.786  56.243  1.00  0.00     0.019 A 
HETATM   13  H   UNL     1       8.272  27.934  57.787  1.00  0.00     0.165 HD
ENDROOT
BRANCH   1  14
HETATM   14  C   UNL     1       6.028  28.269  56.241  1.00  0.00     0.034 A 
HETATM   15  C   UNL     1       5.561  29.225  57.189  1.00  0.00     0.122 A 
HETATM   16  N   UNL     1       4.222  29.231  57.281  1.00  0.00    -0.172 NA
HETATM   17  N   UNL     1       3.834  28.271  56.433  1.00  0.00    -0.288 N 
HETATM   18  H   UNL     1       2.841  28.076  56.349  1.00  0.00     0.188 HD
HETATM   19  C   UNL     1       4.865  27.677  55.776  1.00  0.00     0.123 A 
BRANCH  15  20
HETATM   20  C   UNL     1       6.402  30.142  58.020  1.00  0.00     0.106 A 
HETATM   21  O   UNL     1       7.548  29.779  58.674  1.00  0.00    -0.313 OA
HETATM   22  C   UNL     1       8.027  30.884  59.309  1.00  0.00     0.050 A 
HETATM   23  C   UNL     1       9.279  30.719  60.075  1.00  0.00     0.076 C 
HETATM   24  C   UNL     1       7.196  31.958  59.082  1.00  0.00     0.035 A 
HETATM   25  C   UNL     1       6.151  31.481  58.255  1.00  0.00     0.042 A 
ENDBRANCH  15  20
ENDBRANCH   1  14
TORSDOF 2
ENDMDL
MODEL 3
REMARK VINA RESULT:      -8.2      1.865      2.252
REMARK  2 active torsions:
REMARK  status: ('A' for Active; 'I' for Inactive)
REMARK    1  A    between atoms: C_4  and  C_5 
REMARK    2  A    between atoms: C_10  and  C_11 
ROOT
HETATM    1  C   UNL     1       8.110  25.560  55.624  1.00  0.00     0.224 C 
HETATM    2  N   UNL     1       8.220  24.455  54.665  1.00  0.00    -0.359 N 
HETATM    3  C   UNL     1       7.804  24.758  53.302  1.00  0.00     0.152 C 
HETATM    4  C   UNL     1       8.092  23.160  55.172  1.00  0.00     0.047 A 
HETATM    5  C   UNL     1       8.391  22.896  56.522  1.00  0.00     0.058 A 
HETATM    6  C   UNL     1       8.870  24.010  57.365  1.00  0.00     0.255 C 
HETATM    7  O   UNL     1       9.251  23.838  58.518  1.00  0.00    -0.268 OA
HETATM    8  N   UNL     1       8.890  25.244  56.784  1.00  0.00    -0.331 N 
HETATM    9  C   UNL     1       7.704  22.062  54.388  1.00  0.00     0.030 A 
HETATM   10  C   UNL     1       7.585  20.775  54.933  1.00  0.00     0.002 A 
HETATM   11  C   UNL     1       7.866  20.552  56.276  1.00  0.00     0.001 A 
HETATM   12  C   UNL     1       8.278  21.613  57.075  1.00  0.00     0.019 A 
HETATM   13  H   UNL     1       9.135  26.002  57.404  1.00  0.00     0.165 HD
ENDROOT
BRANCH   1  14
HETATM   14  C   UNL     1       6.736  25.975  56.070  1.00  0.00     0.034 A 
HETATM   15  C   UNL     1       6.359  27.180  56.730  1.00  0.00     0.122 A 
HETATM   16  N   UNL     1       5.040  27.230  56.974  1.00  0.00    -0.172 NA
HETATM   17  N   UNL     1       4.580  26.062  56.511  1.00  0.00    -0.288 N 
HETATM   18  H   UNL     1       3.589  25.863  56.609  1.00  0.00     0.188 HD
HETATM   19  C   UNL     1       5.542  25.283  55.948  1.00  0.00     0.123 A 
BRANCH  15  20
HETATM   20  C   UNL     1       7.269  28.297  57.137  1.00  0.00     0.106 A 
HETATM   21  O   UNL     1       8.610  28.353  56.871  1.00  0.00    -0.313 OA
HETATM   22  C   UNL     1       9.084  29.518  57.391  1.00  0.00     0.050 A 
HETATM   23  C   UNL     1      10.524  29.791  57.205  1.00  0.00     0.076 C 
HETATM   24  C   UNL     1       8.065  30.215  58.000  1.00  0.00     0.035 A 
HETATM   25  C   UNL     1       6.898  29.429  57.838  1.00  0.00     0.042 A 
ENDBRANCH  15  20
ENDBRANCH   1  14
TORSDOF 2
ENDMDL
MODEL 4
REMARK VINA RESULT:      -8.2      3.744      6.116
REMARK  2 active torsions:
REMARK  status: ('A' for Active; 'I' for Inactive)
REMARK    1  A    between atoms: C_4  and  C_5 
REMARK    2  A    between atoms: C_10  and  C_11 
ROOT
HETATM    1  C   UNL     1       7.292  28.584  57.828  1.00  0.00     0.224 C 
HETATM    2  N   UNL     1       6.790  27.315  57.288  1.00  0.00    -0.359 N 
HETATM    3  C   UNL     1       7.588  26.136  57.600  1.00  0.00     0.152 C 
HETATM    4  C   UNL     1       6.054  27.377  56.104  1.00  0.00     0.047 A 
HETATM    5  C   UNL     1       5.375  28.559  55.754  1.00  0.00     0.058 A 
HETATM    6  C   UNL     1       5.436  29.705  56.684  1.00  0.00     0.255 C 
HETATM    7  O   UNL     1       4.786  30.728  56.502  1.00  0.00    -0.268 OA
HETATM    8  N   UNL     1       6.241  29.556  57.776  1.00  0.00    -0.331 N 
HETATM    9  C   UNL     1       5.915  26.290  55.226  1.00  0.00     0.030 A 
HETATM   10  C   UNL     1       5.168  26.391  54.044  1.00  0.00     0.002 A 
HETATM   11  C   UNL     1       4.527  27.580  53.716  1.00  0.00     0.001 A 
HETATM   12  C   UNL     1       4.623  28.668  54.576  1.00  0.00     0.019 A 
HETATM   13  H   UNL     1       6.337  30.381  58.348  1.00  0.00     0.165 HD
ENDROOT
BRANCH   1  14
HETATM   14  C   UNL     1       8.525  29.178  57.208  1.00  0.00     0.034 A 
HETATM   15  C   UNL     1       9.435  30.107  57.791  1.00  0.00     0.122 A 
HETATM   16  N   UNL     1      10.438  30.421  56.956  1.00  0.00    -0.172 NA
HETATM   17  N   UNL     1      10.161  29.734  55.841  1.00  0.00    -0.288 N 
HETATM   18  H   UNL     1      10.784  29.835  55.047  1.00  0.00     0.188 HD
HETATM   19  C   UNL     1       9.043  28.966  55.940  1.00  0.00     0.123 A 
BRANCH  15  20
HETATM   20  C   UNL     1       9.345  30.704  59.160  1.00  0.00     0.106 A 
HETATM   21  O   UNL     1       8.974  30.027  60.289  1.00  0.00    -0.313 OA
HETATM   22  C   UNL     1       9.022  30.904  61.329  1.00  0.00     0.050 A 
HETATM   23  C   UNL     1       8.667  30.374  62.661  1.00  0.00     0.076 C 
HETATM   24  C   UNL     1       9.410  32.147  60.884  1.00  0.00     0.035 A 
HETATM   25  C   UNL     1       9.617  32.020  59.489  1.00  0.00     0.042 A 
ENDBRANCH  15  20
ENDBRANCH   1  14
TORSDOF 2
ENDMDL
MODEL 5
REMARK VINA RESULT:      -8.0      2.678      6.852
REMARK  2 active torsions:
REMARK  status: ('A' for Active; 'I' for Inactive)
REMARK    1  A    between atoms: C_4  and  C_5 
REMARK    2  A    between atoms: C_10  and  C_11 
ROOT
HETATM    1  C   UNL     1       8.009  28.424  55.686  1.00  0.00     0.224 C 
HETATM    2  N   UNL     1       8.680  29.431  56.517  1.00  0.00    -0.359 N 
HETATM    3  C   UNL     1      10.069  29.148  56.853  1.00  0.00     0.152 C 
HETATM    4  C   UNL     1       7.879  30.170  57.389  1.00  0.00     0.047 A 
HETATM    5  C   UNL     1       6.509  30.346  57.114  1.00  0.00     0.058 A 
HETATM    6  C   UNL     1       5.962  29.761  55.873  1.00  0.00     0.255 C 
HETATM    7  O   UNL     1       4.808  29.961  55.512  1.00  0.00    -0.268 OA
HETATM    8  N   UNL     1       6.820  29.001  55.133  1.00  0.00    -0.331 N 
HETATM    9  C   UNL     1       8.373  30.798  58.543  1.00  0.00     0.030 A 
HETATM   10  C   UNL     1       7.537  31.532  59.396  1.00  0.00     0.002 A 
HETATM   11  C   UNL     1       6.183  31.669  59.107  1.00  0.00     0.001 A 
HETATM   12  C   UNL     1       5.666  31.080  57.959  1.00  0.00     0.019 A 
HETATM   13  H   UNL     1       6.401  28.539  54.339  1.00  0.00     0.165 HD
ENDROOT
BRANCH   1  14
HETATM   14  C   UNL     1       7.653  27.108  56.319  1.00  0.00     0.034 A 
HETATM   15  C   UNL     1       7.288  25.896  55.666  1.00  0.00     0.122 A 
HETATM   16  N   UNL     1       7.044  24.907  56.540  1.00  0.00    -0.172 NA
HETATM   17  N   UNL     1       7.213  25.481  57.737  1.00  0.00    -0.288 N 
HETATM   18  H   UNL     1       7.056  24.918  58.567  1.00  0.00     0.188 HD
HETATM   19  C   UNL     1       7.591  26.785  57.665  1.00  0.00     0.123 A 
BRANCH  15  20
HETATM   20  C   UNL     1       7.169  25.678  54.190  1.00  0.00     0.106 A 
HETATM   21  O   UNL     1       6.281  26.321  53.371  1.00  0.00    -0.313 OA
HETATM   22  C   UNL     1       6.483  25.863  52.106  1.00  0.00     0.050 A 
HETATM   23  C   UNL     1       5.629  26.439  51.047  1.00  0.00     0.076 C 
HETATM   24  C   UNL     1       7.487  24.921  52.097  1.00  0.00     0.035 A 
HETATM   25  C   UNL     1       7.927  24.801  53.437  1.00  0.00     0.042 A 
ENDBRANCH  15  20
ENDBRANCH   1  14
TORSDOF 2
ENDMDL
MODEL 6
REMARK VINA RESULT:      -7.9      2.509      4.401
REMARK  2 active torsions:
REMARK  status: ('A' for Active; 'I' for Inactive)
REMARK    1  A    between atoms: C_4  and  C_5 
REMARK    2  A    between atoms: C_10  and  C_11 
ROOT
HETATM    1  C   UNL     1       6.740  27.810  56.260  1.00  0.00     0.224 C 
HETATM    2  N   UNL     1       6.859  26.384  56.582  1.00  0.00    -0.359 N 
HETATM    3  C   UNL     1       7.565  26.072  57.818  1.00  0.00     0.152 C 
HETATM    4  C   UNL     1       6.885  25.491  55.508  1.00  0.00     0.047 A 
HETATM    5  C   UNL     1       6.297  25.845  54.280  1.00  0.00     0.058 A 
HETATM    6  C   UNL     1       5.629  27.158  54.174  1.00  0.00     0.255 C 
HETATM    7  O   UNL     1       5.003  27.493  53.174  1.00  0.00    -0.268 OA
HETATM    8  N   UNL     1       5.725  27.976  55.262  1.00  0.00    -0.331 N 
HETATM    9  C   UNL     1       7.451  24.209  55.588  1.00  0.00     0.030 A 
HETATM   10  C   UNL     1       7.461  23.341  54.487  1.00  0.00     0.002 A 
HETATM   11  C   UNL     1       6.889  23.729  53.280  1.00  0.00     0.001 A 
HETATM   12  C   UNL     1       6.298  24.983  53.175  1.00  0.00     0.019 A 
HETATM   13  H   UNL     1       5.339  28.899  55.135  1.00  0.00     0.165 HD
ENDROOT
BRANCH   1  14
HETATM   14  C   UNL     1       7.975  28.540  55.811  1.00  0.00     0.034 A 
HETATM   15  C   UNL     1       8.711  29.530  56.524  1.00  0.00     0.122 A 
HETATM   16  N   UNL     1       9.773  29.966  55.828  1.00  0.00    -0.172 NA
HETATM   17  N   UNL     1       9.702  29.295  54.672  1.00  0.00    -0.288 N 
HETATM   18  H   UNL     1      10.405  29.482  53.964  1.00  0.00     0.188 HD
HETATM   19  C   UNL     1       8.662  28.421  54.614  1.00  0.00     0.123 A 
BRANCH  15  20
HETATM   20  C   UNL     1       8.397  30.069  57.884  1.00  0.00     0.106 A 
HETATM   21  O   UNL     1       9.165  29.878  59.000  1.00  0.00    -0.313 OA
HETATM   22  C   UNL     1       8.558  30.525  60.033  1.00  0.00     0.050 A 
HETATM   23  C   UNL     1       9.231  30.459  61.346  1.00  0.00     0.076 C 
HETATM   24  C   UNL     1       7.397  31.125  59.599  1.00  0.00     0.035 A 
HETATM   25  C   UNL     1       7.293  30.831  58.218  1.00  0.00     0.042 A 
ENDBRANCH  15  20
ENDBRANCH   1  14
TORSDOF 2
ENDMDL
MODEL 7
REMARK VINA RESULT:      -7.8      2.426      3.754
REMARK  2 active torsions:
REMARK  status: ('A' for Active; 'I' for Inactive)
REMARK    1  A    between atoms: C_4  and  C_5 
REMARK    2  A    between atoms: C_10  and  C_11 
ROOT
HETATM    1  C   UNL     1       5.397  26.792  55.115  1.00  0.00     0.224 C 
HETATM    2  N   UNL     1       5.645  25.431  55.605  1.00  0.00    -0.359 N 
HETATM    3  C   UNL     1       5.625  25.267  57.053  1.00  0.00     0.152 C 
HETATM    4  C   UNL     1       6.445  24.607  54.811  1.00  0.00     0.047 A 
HETATM    5  C   UNL     1       6.546  24.840  53.427  1.00  0.00     0.058 A 
HETATM    6  C   UNL     1       5.763  25.948  52.843  1.00  0.00     0.255 C 
HETATM    7  O   UNL     1       5.715  26.146  51.634  1.00  0.00    -0.268 OA
HETATM    8  N   UNL     1       5.071  26.729  53.722  1.00  0.00    -0.331 N 
HETATM    9  C   UNL     1       7.152  23.504  55.315  1.00  0.00     0.030 A 
HETATM   10  C   UNL     1       7.948  22.700  54.487  1.00  0.00     0.002 A 
HETATM   11  C   UNL     1       8.044  22.971  53.126  1.00  0.00     0.001 A 
HETATM   12  C   UNL     1       7.336  24.040  52.590  1.00  0.00     0.019 A 
HETATM   13  H   UNL     1       4.617  27.531  53.311  1.00  0.00     0.165 HD
ENDROOT
BRANCH   1  14
HETATM   14  C   UNL     1       6.477  27.820  55.308  1.00  0.00     0.034 A 
HETATM   15  C   UNL     1       6.364  29.099  55.924  1.00  0.00     0.122 A 
HETATM   16  N   UNL     1       7.533  29.758  55.937  1.00  0.00    -0.172 NA
HETATM   17  N   UNL     1       8.378  28.932  55.308  1.00  0.00    -0.288 N 
HETATM   18  H   UNL     1       9.338  29.235  55.176  1.00  0.00     0.188 HD
HETATM   19  C   UNL     1       7.807  27.758  54.927  1.00  0.00     0.123 A 
BRANCH  15  20
HETATM   20  C   UNL     1       5.124  29.703  56.506  1.00  0.00     0.106 A 
HETATM   21  O   UNL     1       5.012  30.193  57.779  1.00  0.00    -0.313 OA
HETATM   22  C   UNL     1       3.743  30.662  57.929  1.00  0.00     0.050 A 
HETATM   23  C   UNL     1       3.405  31.252  59.240  1.00  0.00     0.076 C 
HETATM   24  C   UNL     1       3.027  30.471  56.769  1.00  0.00     0.035 A 
HETATM   25  C   UNL     1       3.914  29.853  55.854  1.00  0.00     0.042 A 
ENDBRANCH  15  20
ENDBRANCH   1  14
TORSDOF 2
ENDMDL
MODEL 8
REMARK VINA RESULT:      -7.7      4.665      7.327
REMARK  2 active torsions:
REMARK  status: ('A' for Active; 'I' for Inactive)
REMARK    1  A    between atoms: C_4  and  C_5 
REMARK    2  A    between atoms: C_10  and  C_11 
ROOT
HETATM    1  C   UNL     1       6.717  29.329  57.640  1.00  0.00     0.224 C 
HETATM    2  N   UNL     1       5.644  28.860  56.756  1.00  0.00    -0.359 N 
HETATM    3  C   UNL     1       5.714  27.458  56.367  1.00  0.00     0.152 C 
HETATM    4  C   UNL     1       5.067  29.803  55.903  1.00  0.00     0.047 A 
HETATM    5  C   UNL     1       5.102  31.170  56.234  1.00  0.00     0.058 A 
HETATM    6  C   UNL     1       5.727  31.568  57.511  1.00  0.00     0.255 C 
HETATM    7  O   UNL     1       5.701  32.724  57.918  1.00  0.00    -0.268 OA
HETATM    8  N   UNL     1       6.319  30.572  58.232  1.00  0.00    -0.331 N 
HETATM    9  C   UNL     1       4.406  29.460  54.714  1.00  0.00     0.030 A 
HETATM   10  C   UNL     1       3.840  30.436  53.880  1.00  0.00     0.002 A 
HETATM   11  C   UNL     1       3.910  31.781  54.225  1.00  0.00     0.001 A 
HETATM   12  C   UNL     1       4.536  32.153  55.409  1.00  0.00     0.019 A 
HETATM   13  H   UNL     1       6.816  30.880  59.054  1.00  0.00     0.165 HD
ENDROOT
BRANCH   1  14
HETATM   14  C   UNL     1       8.093  29.496  57.056  1.00  0.00     0.034 A 
HETATM   15  C   UNL     1       9.236  30.084  57.669  1.00  0.00     0.122 A 
HETATM   16  N   UNL     1      10.309  30.059  56.863  1.00  0.00    -0.172 NA
HETATM   17  N   UNL     1       9.855  29.498  55.736  1.00  0.00    -0.288 N 
HETATM   18  H   UNL     1      10.499  29.393  54.958  1.00  0.00     0.188 HD
HETATM   19  C   UNL     1       8.548  29.129  55.800  1.00  0.00     0.123 A 
BRANCH  15  20
HETATM   20  C   UNL     1       9.306  30.679  59.040  1.00  0.00     0.106 A 
HETATM   21  O   UNL     1       8.826  30.089  60.178  1.00  0.00    -0.313 OA
HETATM   22  C   UNL     1       9.083  30.930  61.217  1.00  0.00     0.050 A 
HETATM   23  C   UNL     1       8.654  30.480  62.557  1.00  0.00     0.076 C 
HETATM   24  C   UNL     1       9.716  32.066  60.763  1.00  0.00     0.035 A 
HETATM   25  C   UNL     1       9.858  31.905  59.364  1.00  0.00     0.042 A 
ENDBRANCH  15  20
ENDBRANCH   1  14
TORSDOF 2
ENDMDL
MODEL 9
REMARK VINA RESULT:      -7.7      5.419      8.481
REMARK  2 active torsions:
REMARK  status: ('A' for Active; 'I' for Inactive)
REMARK    1  A    between atoms: C_4  and  C_5 
REMARK    2  A    between atoms: C_10  and  C_11 
ROOT
HETATM    1  C   UNL     1       8.108  31.843  59.491  1.00  0.00     0.224 C 
HETATM    2  N   UNL     1       7.079  31.297  58.599  1.00  0.00    -0.359 N 
HETATM    3  C   UNL     1       5.702  31.626  58.947  1.00  0.00     0.152 C 
HETATM    4  C   UNL     1       7.375  30.098  57.947  1.00  0.00     0.047 A 
HETATM    5  C   UNL     1       8.714  29.733  57.713  1.00  0.00     0.058 A 
HETATM    6  C   UNL     1       9.780  30.661  58.142  1.00  0.00     0.255 C 
HETATM    7  O   UNL     1      10.961  30.465  57.878  1.00  0.00    -0.268 OA
HETATM    8  N   UNL     1       9.378  31.768  58.830  1.00  0.00    -0.331 N 
HETATM    9  C   UNL     1       6.391  29.221  57.465  1.00  0.00     0.030 A 
HETATM   10  C   UNL     1       6.728  28.024  56.816  1.00  0.00     0.002 A 
HETATM   11  C   UNL     1       8.061  27.682  56.619  1.00  0.00     0.001 A 
HETATM   12  C   UNL     1       9.060  28.541  57.062  1.00  0.00     0.019 A 
HETATM   13  H   UNL     1      10.127  32.341  59.190  1.00  0.00     0.165 HD
ENDROOT
BRANCH   1  14
HETATM   14  C   UNL     1       8.246  31.245  60.863  1.00  0.00     0.034 A 
HETATM   15  C   UNL     1       7.514  31.578  62.038  1.00  0.00     0.122 A 
HETATM   16  N   UNL     1       7.888  30.836  63.092  1.00  0.00    -0.172 NA
HETATM   17  N   UNL     1       8.870  30.063  62.613  1.00  0.00    -0.288 N 
HETATM   18  H   UNL     1       9.330  29.421  63.250  1.00  0.00     0.188 HD
HETATM   19  C   UNL     1       9.114  30.252  61.289  1.00  0.00     0.123 A 
BRANCH  15  20
HETATM   20  C   UNL     1       6.446  32.619  62.159  1.00  0.00     0.106 A 
HETATM   21  O   UNL     1       5.107  32.361  62.267  1.00  0.00    -0.313 OA
HETATM   22  C   UNL     1       4.464  33.557  62.364  1.00  0.00     0.050 A 
HETATM   23  C   UNL     1       2.994  33.510  62.503  1.00  0.00     0.076 C 
HETATM   24  C   UNL     1       5.372  34.589  62.308  1.00  0.00     0.035 A 
HETATM   25  C   UNL     1       6.647  33.987  62.176  1.00  0.00     0.042 A 
ENDBRANCH  15  20
ENDBRANCH   1  14
TORSDOF 2
ENDMDL
MODEL 10
REMARK VINA RESULT:      -7.7      2.373      3.949
REMARK  2 active torsions:
REMARK  status: ('A' for Active; 'I' for Inactive)
REMARK    1  A    between atoms: C_4  and  C_5 
REMARK    2  A    between atoms: C_10  and  C_11 
ROOT
HETATM    1  C   UNL     1       5.432  26.514  55.074  1.00  0.00     0.224 C 
HETATM    2  N   UNL     1       5.606  25.134  55.543  1.00  0.00    -0.359 N 
HETATM    3  C   UNL     1       5.320  24.906  56.954  1.00  0.00     0.152 C 
HETATM    4  C   UNL     1       6.552  24.352  54.878  1.00  0.00     0.047 A 
HETATM    5  C   UNL     1       6.904  24.648  53.548  1.00  0.00     0.058 A 
HETATM    6  C   UNL     1       6.225  25.775  52.876  1.00  0.00     0.255 C 
HETATM    7  O   UNL     1       6.399  26.026  51.688  1.00  0.00    -0.268 OA
HETATM    8  N   UNL     1       5.371  26.511  53.643  1.00  0.00    -0.331 N 
HETATM    9  C   UNL     1       7.170  23.234  55.458  1.00  0.00     0.030 A 
HETATM   10  C   UNL     1       8.118  22.473  54.759  1.00  0.00     0.002 A 
HETATM   11  C   UNL     1       8.461  22.805  53.452  1.00  0.00     0.001 A 
HETATM   12  C   UNL     1       7.848  23.892  52.840  1.00  0.00     0.019 A 
HETATM   13  H   UNL     1       4.988  27.327  53.189  1.00  0.00     0.165 HD
ENDROOT
BRANCH   1  14
HETATM   14  C   UNL     1       6.441  27.541  55.508  1.00  0.00     0.034 A 
HETATM   15  C   UNL     1       6.328  28.959  55.439  1.00  0.00     0.122 A 
HETATM   16  N   UNL     1       7.416  29.575  55.926  1.00  0.00    -0.172 NA
HETATM   17  N   UNL     1       8.232  28.571  56.269  1.00  0.00    -0.288 N 
HETATM   18  H   UNL     1       9.145  28.802  56.648  1.00  0.00     0.188 HD
HETATM   19  C   UNL     1       7.697  27.340  56.057  1.00  0.00     0.123 A 
BRANCH  15  20
HETATM   20  C   UNL     1       5.168  29.737  54.900  1.00  0.00     0.106 A 
HETATM   21  O   UNL     1       4.727  29.692  53.606  1.00  0.00    -0.313 OA
HETATM   22  C   UNL     1       3.654  30.525  53.509  1.00  0.00     0.050 A 
HETATM   23  C   UNL     1       3.007  30.621  52.185  1.00  0.00     0.076 C 
HETATM   24  C   UNL     1       3.403  31.119  54.725  1.00  0.00     0.035 A 
HETATM   25  C   UNL     1       4.377  30.613  55.620  1.00  0.00     0.042 A 
ENDBRANCH  15  20
ENDBRANCH   1  14
TORSDOF 2
ENDMDL
