MODEL 1
REMARK VINA RESULT:      -9.5      0.000      0.000
REMARK  9 active torsions:
REMARK  status: ('A' for Active; 'I' for Inactive)
REMARK    1  A    between atoms: C_3  and  C_4 
REMARK    2  A    between atoms: C_4  and  C_5 
REMARK       I    between atoms: C_5  and  N_6 
REMARK    3  A    between atoms: N_6  and  C_7 
REMARK    4  A    between atoms: C_7  and  C_8 
REMARK    5  A    between atoms: C_18  and  N_19 
REMARK       I    between atoms: N_19  and  C_20 
REMARK    6  A    between atoms: C_20  and  C_21 
REMARK    7  A    between atoms: C_29  and  C_30 
REMARK    8  A    between atoms: C_30  and  O_31 
REMARK    9  A    between atoms: C_33  and  O_34 
ROOT
HETATM    1  C   UNL     1       8.436  27.875  54.032  1.00  0.00     0.016 C 
HETATM    2  C   UNL     1       7.226  27.449  54.936  1.00  0.00    -0.030 C 
HETATM    3  C   UNL     1       7.830  27.408  56.435  1.00  0.00     0.056 C 
HETATM    4  C   UNL     1       7.592  28.713  57.157  1.00  0.00     0.056 A 
HETATM    5  C   UNL     1       6.982  29.810  56.592  1.00  0.00     0.012 A 
HETATM    6  S   UNL     1       6.941  31.100  57.690  1.00  0.00    -0.055 SA
HETATM    7  C   UNL     1       7.727  30.131  58.852  1.00  0.00     0.173 A 
HETATM    8  N   UNL     1       8.025  28.909  58.459  1.00  0.00    -0.227 NA
HETATM    9  C   UNL     1       6.433  29.914  55.220  1.00  0.00     0.055 C 
HETATM   10  C   UNL     1       6.063  28.515  54.674  1.00  0.00     0.012 C 
HETATM   11  C   UNL     1       4.583  28.057  55.011  1.00  0.00     0.008 C 
HETATM   12  C   UNL     1       3.573  29.046  54.353  1.00  0.00     0.020 C 
HETATM   13  C   UNL     1       4.325  26.648  54.402  1.00  0.00     0.128 C 
HETATM   14  C   UNL     1       5.385  25.629  54.808  1.00  0.00     0.033 C 
HETATM   15  C   UNL     1       6.785  26.069  54.383  1.00  0.00     0.013 C 
ENDROOT
BRANCH   3  16
HETATM   16  C   UNL     1       7.458  26.185  57.296  1.00  0.00     0.114 C 
BRANCH  16  17
HETATM   17  C   UNL     1       8.406  24.995  57.299  1.00  0.00     0.218 C 
HETATM   18  N   UNL     1       8.265  24.106  56.255  1.00  0.00    -0.357 N 
HETATM   19  H   UNL     1       7.481  24.230  55.631  1.00  0.00     0.162 HD
HETATM   20  O   UNL     1       9.125  24.772  58.270  1.00  0.00    -0.274 OA
BRANCH  18  21
HETATM   21  C   UNL     1       8.793  22.760  56.346  1.00  0.00     0.162 C 
BRANCH  21  22
HETATM   22  C   UNL     1       8.599  21.891  55.137  1.00  0.00    -0.023 A 
HETATM   23  C   UNL     1       8.973  20.551  55.108  1.00  0.00     0.125 A 
HETATM   24  N   UNL     1       8.847  19.746  54.025  1.00  0.00    -0.273 NA
HETATM   25  C   UNL     1       8.321  20.308  52.915  1.00  0.00     0.116 A 
HETATM   26  C   UNL     1       7.924  21.632  52.832  1.00  0.00     0.020 A 
HETATM   27  C   UNL     1       8.072  22.433  53.960  1.00  0.00     0.012 A 
ENDBRANCH  21  22
ENDBRANCH  18  21
ENDBRANCH  16  17
ENDBRANCH   3  16
BRANCH  11  28
HETATM   28  C   UNL     1       4.265  28.056  56.526  1.00  0.00     0.176 C 
BRANCH  28  29
HETATM   29  O   UNL     1       3.447  29.170  56.874  1.00  0.00    -0.400 OA
HETATM   30  H   UNL     1       3.922  29.664  57.566  1.00  0.00     0.209 HD
ENDBRANCH  28  29
ENDBRANCH  11  28
BRANCH   7  31
HETATM   31  N   UNL     1       8.005  30.581  60.121  1.00  0.00    -0.305 N 
HETATM   32  C   UNL     1       8.832  31.637  60.454  1.00  0.00     0.227 C 
HETATM   33  O   UNL     1       9.510  32.294  59.658  1.00  0.00    -0.273 OA
HETATM   34  H   UNL     1       7.530  30.061  60.847  1.00  0.00     0.171 HD
BRANCH  32  35
HETATM   35  C   UNL     1       8.852  31.959  61.976  1.00  0.00     0.078 C 
HETATM   36  C   UNL     1       7.833  33.020  62.481  1.00  0.00     0.014 C 
HETATM   37  C   UNL     1       7.618  32.145  63.728  1.00  0.00     0.002 C 
HETATM   38  C   UNL     1       8.116  30.947  62.901  1.00  0.00     0.014 C 
ENDBRANCH  32  35
ENDBRANCH   7  31
BRANCH  13  39
HETATM   39  O   UNL     1       4.333  26.710  52.970  1.00  0.00    -0.395 OA
HETATM   40  H   UNL     1       5.074  27.287  52.714  1.00  0.00     0.210 HD
ENDBRANCH  13  39
TORSDOF 9
ENDMDL
MODEL 2
REMARK VINA RESULT:      -9.4      3.483      7.236
REMARK  9 active torsions:
REMARK  status: ('A' for Active; 'I' for Inactive)
REMARK    1  A    between atoms: C_3  and  C_4 
REMARK    2  A    between atoms: C_4  and  C_5 
REMARK       I    between atoms: C_5  and  N_6 
REMARK    3  A    between atoms: N_6  and  C_7 
REMARK    4  A    between atoms: C_7  and  C_8 
REMARK    5  A    between atoms: C_18  and  N_19 
REMARK       I    between atoms: N_19  and  C_20 
REMARK    6  A    between atoms: C_20  and  C_21 
REMARK    7  A    between atoms: C_29  and  C_30 
REMARK    8  A    between atoms: C_30  and  O_31 
REMARK    9  A    between atoms: C_33  and  O_34 
ROOT
HETATM    1  C   UNL     1       4.980  25.676  57.108  1.00  0.00     0.016 C 
HETATM    2  C   UNL     1       6.050  26.646  56.493  1.00  0.00    -0.030 C 
HETATM    3  C   UNL     1       6.025  26.329  54.908  1.00  0.00     0.056 C 
HETATM    4  C   UNL     1       5.105  27.275  54.174  1.00  0.00     0.056 A 
HETATM    5  C   UNL     1       4.348  28.250  54.786  1.00  0.00     0.012 A 
HETATM    6  S   UNL     1       3.405  29.075  53.647  1.00  0.00    -0.055 SA
HETATM    7  C   UNL     1       4.056  28.100  52.408  1.00  0.00     0.173 A 
HETATM    8  N   UNL     1       4.924  27.192  52.803  1.00  0.00    -0.227 NA
HETATM    9  C   UNL     1       4.311  28.568  56.232  1.00  0.00     0.055 C 
HETATM   10  C   UNL     1       5.623  28.127  56.922  1.00  0.00     0.012 C 
HETATM   11  C   UNL     1       6.762  29.230  56.918  1.00  0.00     0.008 C 
HETATM   12  C   UNL     1       6.273  30.481  57.707  1.00  0.00     0.020 C 
HETATM   13  C   UNL     1       8.021  28.677  57.647  1.00  0.00     0.128 C 
HETATM   14  C   UNL     1       8.477  27.330  57.095  1.00  0.00     0.033 C 
HETATM   15  C   UNL     1       7.377  26.274  57.203  1.00  0.00     0.013 C 
ENDROOT
BRANCH   3  16
HETATM   16  C   UNL     1       7.393  26.184  54.212  1.00  0.00     0.114 C 
BRANCH  16  17
HETATM   17  C   UNL     1       7.588  25.022  53.249  1.00  0.00     0.218 C 
HETATM   18  N   UNL     1       6.900  23.865  53.548  1.00  0.00    -0.357 N 
HETATM   19  H   UNL     1       6.415  23.820  54.432  1.00  0.00     0.162 HD
HETATM   20  O   UNL     1       8.440  25.080  52.366  1.00  0.00    -0.274 OA
BRANCH  18  21
HETATM   21  C   UNL     1       7.298  22.594  52.980  1.00  0.00     0.162 C 
BRANCH  21  22
HETATM   22  C   UNL     1       7.874  21.593  53.939  1.00  0.00    -0.023 A 
HETATM   23  C   UNL     1       8.516  20.432  53.517  1.00  0.00     0.125 A 
HETATM   24  N   UNL     1       9.014  19.488  54.353  1.00  0.00    -0.273 NA
HETATM   25  C   UNL     1       8.865  19.715  55.676  1.00  0.00     0.116 A 
HETATM   26  C   UNL     1       8.236  20.831  56.203  1.00  0.00     0.020 A 
HETATM   27  C   UNL     1       7.729  21.777  55.318  1.00  0.00     0.012 A 
ENDBRANCH  21  22
ENDBRANCH  18  21
ENDBRANCH  16  17
ENDBRANCH   3  16
BRANCH  11  28
HETATM   28  C   UNL     1       7.135  29.729  55.501  1.00  0.00     0.176 C 
BRANCH  28  29
HETATM   29  O   UNL     1       8.533  29.586  55.264  1.00  0.00    -0.400 OA
HETATM   30  H   UNL     1       8.932  29.290  56.102  1.00  0.00     0.209 HD
ENDBRANCH  28  29
ENDBRANCH  11  28
BRANCH   7  31
HETATM   31  N   UNL     1       3.721  28.267  51.085  1.00  0.00    -0.305 N 
HETATM   32  C   UNL     1       4.497  28.866  50.112  1.00  0.00     0.227 C 
HETATM   33  O   UNL     1       5.587  29.414  50.302  1.00  0.00    -0.273 OA
HETATM   34  H   UNL     1       2.811  27.893  50.848  1.00  0.00     0.171 HD
BRANCH  32  35
HETATM   35  C   UNL     1       3.874  28.801  48.688  1.00  0.00     0.078 C 
HETATM   36  C   UNL     1       4.415  27.697  47.736  1.00  0.00     0.014 C 
HETATM   37  C   UNL     1       2.973  27.485  47.245  1.00  0.00     0.002 C 
HETATM   38  C   UNL     1       2.493  28.093  48.574  1.00  0.00     0.014 C 
ENDBRANCH  32  35
ENDBRANCH   7  31
BRANCH  13  39
HETATM   39  O   UNL     1       7.752  28.487  59.041  1.00  0.00    -0.395 OA
HETATM   40  H   UNL     1       7.397  29.328  59.381  1.00  0.00     0.210 HD
ENDBRANCH  13  39
TORSDOF 9
ENDMDL
MODEL 3
REMARK VINA RESULT:      -8.7      4.716      6.778
REMARK  9 active torsions:
REMARK  status: ('A' for Active; 'I' for Inactive)
REMARK    1  A    between atoms: C_3  and  C_4 
REMARK    2  A    between atoms: C_4  and  C_5 
REMARK       I    between atoms: C_5  and  N_6 
REMARK    3  A    between atoms: N_6  and  C_7 
REMARK    4  A    between atoms: C_7  and  C_8 
REMARK    5  A    between atoms: C_18  and  N_19 
REMARK       I    between atoms: N_19  and  C_20 
REMARK    6  A    between atoms: C_20  and  C_21 
REMARK    7  A    between atoms: C_29  and  C_30 
REMARK    8  A    between atoms: C_30  and  O_31 
REMARK    9  A    between atoms: C_33  and  O_34 
ROOT
HETATM    1  C   UNL     1       5.588  28.022  47.322  1.00  0.00     0.016 C 
HETATM    2  C   UNL     1       4.324  27.624  48.163  1.00  0.00    -0.030 C 
HETATM    3  C   UNL     1       4.901  27.292  49.636  1.00  0.00     0.056 C 
HETATM    4  C   UNL     1       4.819  28.498  50.542  1.00  0.00     0.056 A 
HETATM    5  C   UNL     1       4.356  29.733  50.146  1.00  0.00     0.012 A 
HETATM    6  S   UNL     1       4.464  30.845  51.420  1.00  0.00    -0.055 SA
HETATM    7  C   UNL     1       5.110  29.627  52.423  1.00  0.00     0.173 A 
HETATM    8  N   UNL     1       5.258  28.447  51.855  1.00  0.00    -0.227 NA
HETATM    9  C   UNL     1       3.841  30.101  48.808  1.00  0.00     0.055 C 
HETATM   10  C   UNL     1       3.306  28.854  48.067  1.00  0.00     0.012 C 
HETATM   11  C   UNL     1       1.776  28.540  48.344  1.00  0.00     0.008 C 
HETATM   12  C   UNL     1       0.905  29.731  47.844  1.00  0.00     0.020 C 
HETATM   13  C   UNL     1       1.352  27.278  47.538  1.00  0.00     0.128 C 
HETATM   14  C   UNL     1       2.272  26.086  47.785  1.00  0.00     0.033 C 
HETATM   15  C   UNL     1       3.721  26.405  47.419  1.00  0.00     0.013 C 
ENDROOT
BRANCH   3  16
HETATM   16  C   UNL     1       4.371  26.013  50.313  1.00  0.00     0.114 C 
BRANCH  16  17
HETATM   17  C   UNL     1       5.227  25.362  51.389  1.00  0.00     0.218 C 
HETATM   18  N   UNL     1       6.580  25.619  51.323  1.00  0.00    -0.357 N 
HETATM   19  H   UNL     1       6.929  26.114  50.516  1.00  0.00     0.162 HD
HETATM   20  O   UNL     1       4.745  24.528  52.151  1.00  0.00    -0.274 OA
BRANCH  18  21
HETATM   21  C   UNL     1       7.534  24.766  52.001  1.00  0.00     0.162 C 
BRANCH  21  22
HETATM   22  C   UNL     1       7.485  24.782  53.502  1.00  0.00    -0.023 A 
HETATM   23  C   UNL     1       7.448  25.961  54.239  1.00  0.00     0.125 A 
HETATM   24  N   UNL     1       7.440  26.015  55.594  1.00  0.00    -0.273 NA
HETATM   25  C   UNL     1       7.471  24.831  56.244  1.00  0.00     0.116 A 
HETATM   26  C   UNL     1       7.517  23.601  55.609  1.00  0.00     0.020 A 
HETATM   27  C   UNL     1       7.531  23.581  54.219  1.00  0.00     0.012 A 
ENDBRANCH  21  22
ENDBRANCH  18  21
ENDBRANCH  16  17
ENDBRANCH   3  16
BRANCH  11  28
HETATM   28  C   UNL     1       1.443  28.359  49.845  1.00  0.00     0.176 C 
BRANCH  28  29
HETATM   29  O   UNL     1       0.895  29.555  50.391  1.00  0.00    -0.400 OA
HETATM   30  H   UNL     1       1.639  30.065  50.759  1.00  0.00     0.209 HD
ENDBRANCH  28  29
ENDBRANCH  11  28
BRANCH   7  31
HETATM   31  N   UNL     1       5.428  29.850  53.742  1.00  0.00    -0.305 N 
HETATM   32  C   UNL     1       4.975  29.127  54.829  1.00  0.00     0.227 C 
HETATM   33  O   UNL     1       4.150  28.209  54.785  1.00  0.00    -0.273 OA
HETATM   34  H   UNL     1       6.064  30.625  53.879  1.00  0.00     0.171 HD
BRANCH  32  35
HETATM   35  C   UNL     1       5.608  29.568  56.180  1.00  0.00     0.078 C 
HETATM   36  C   UNL     1       5.603  28.522  57.331  1.00  0.00     0.014 C 
HETATM   37  C   UNL     1       7.016  29.003  57.705  1.00  0.00     0.002 C 
HETATM   38  C   UNL     1       7.161  29.513  56.261  1.00  0.00     0.014 C 
ENDBRANCH  32  35
ENDBRANCH   7  31
BRANCH  13  39
HETATM   39  O   UNL     1       1.384  27.544  46.131  1.00  0.00    -0.395 OA
HETATM   40  H   UNL     1       1.699  26.733  45.694  1.00  0.00     0.210 HD
ENDBRANCH  13  39
TORSDOF 9
ENDMDL
MODEL 4
REMARK VINA RESULT:      -8.6      3.694      9.305
REMARK  9 active torsions:
REMARK  status: ('A' for Active; 'I' for Inactive)
REMARK    1  A    between atoms: C_3  and  C_4 
REMARK    2  A    between atoms: C_4  and  C_5 
REMARK       I    between atoms: C_5  and  N_6 
REMARK    3  A    between atoms: N_6  and  C_7 
REMARK    4  A    between atoms: C_7  and  C_8 
REMARK    5  A    between atoms: C_18  and  N_19 
REMARK       I    between atoms: N_19  and  C_20 
REMARK    6  A    between atoms: C_20  and  C_21 
REMARK    7  A    between atoms: C_29  and  C_30 
REMARK    8  A    between atoms: C_30  and  O_31 
REMARK    9  A    between atoms: C_33  and  O_34 
ROOT
HETATM    1  C   UNL     1       8.614  28.645  54.786  1.00  0.00     0.016 C 
HETATM    2  C   UNL     1       7.447  27.718  55.279  1.00  0.00    -0.030 C 
HETATM    3  C   UNL     1       6.098  28.463  54.789  1.00  0.00     0.056 C 
HETATM    4  C   UNL     1       5.630  27.928  53.457  1.00  0.00     0.056 A 
HETATM    5  C   UNL     1       6.295  26.963  52.733  1.00  0.00     0.012 A 
HETATM    6  S   UNL     1       5.497  26.659  51.271  1.00  0.00    -0.055 SA
HETATM    7  C   UNL     1       4.313  27.816  51.681  1.00  0.00     0.173 A 
HETATM    8  N   UNL     1       4.491  28.419  52.839  1.00  0.00    -0.227 NA
HETATM    9  C   UNL     1       7.543  26.266  53.119  1.00  0.00     0.055 C 
HETATM   10  C   UNL     1       7.718  26.271  54.656  1.00  0.00     0.012 C 
HETATM   11  C   UNL     1       7.044  25.037  55.390  1.00  0.00     0.008 C 
HETATM   12  C   UNL     1       7.707  23.716  54.896  1.00  0.00     0.020 C 
HETATM   13  C   UNL     1       7.297  25.145  56.922  1.00  0.00     0.128 C 
HETATM   14  C   UNL     1       6.878  26.496  57.494  1.00  0.00     0.033 C 
HETATM   15  C   UNL     1       7.619  27.649  56.819  1.00  0.00     0.013 C 
ENDROOT
BRANCH   3  16
HETATM   16  C   UNL     1       4.953  28.564  55.815  1.00  0.00     0.114 C 
BRANCH  16  17
HETATM   17  C   UNL     1       4.710  29.907  56.489  1.00  0.00     0.218 C 
HETATM   18  N   UNL     1       5.825  30.691  56.697  1.00  0.00    -0.357 N 
HETATM   19  H   UNL     1       6.730  30.286  56.504  1.00  0.00     0.162 HD
HETATM   20  O   UNL     1       3.609  30.177  56.962  1.00  0.00    -0.274 OA
BRANCH  18  21
HETATM   21  C   UNL     1       5.808  31.768  57.666  1.00  0.00     0.162 C 
BRANCH  21  22
HETATM   22  C   UNL     1       6.671  31.577  58.880  1.00  0.00    -0.023 A 
HETATM   23  C   UNL     1       6.495  32.313  60.048  1.00  0.00     0.125 A 
HETATM   24  N   UNL     1       7.277  32.195  61.149  1.00  0.00    -0.273 NA
HETATM   25  C   UNL     1       8.284  31.298  61.080  1.00  0.00     0.116 A 
HETATM   26  C   UNL     1       8.553  30.521  59.966  1.00  0.00     0.020 A 
HETATM   27  C   UNL     1       7.736  30.671  58.850  1.00  0.00     0.012 A 
ENDBRANCH  21  22
ENDBRANCH  18  21
ENDBRANCH  16  17
ENDBRANCH   3  16
BRANCH  11  28
HETATM   28  C   UNL     1       5.530  24.897  55.101  1.00  0.00     0.176 C 
BRANCH  28  29
HETATM   29  O   UNL     1       4.765  25.124  56.282  1.00  0.00    -0.400 OA
HETATM   30  H   UNL     1       5.393  25.391  56.978  1.00  0.00     0.209 HD
ENDBRANCH  28  29
ENDBRANCH  11  28
BRANCH   7  31
HETATM   31  N   UNL     1       3.231  28.082  50.876  1.00  0.00    -0.305 N 
HETATM   32  C   UNL     1       3.270  28.591  49.592  1.00  0.00     0.227 C 
HETATM   33  O   UNL     1       4.288  28.958  48.997  1.00  0.00    -0.273 OA
HETATM   34  H   UNL     1       2.343  27.861  51.306  1.00  0.00     0.171 HD
BRANCH  32  35
HETATM   35  C   UNL     1       1.874  28.676  48.911  1.00  0.00     0.078 C 
HETATM   36  C   UNL     1       1.819  29.330  47.501  1.00  0.00     0.014 C 
HETATM   37  C   UNL     1       0.797  28.254  47.097  1.00  0.00     0.002 C 
HETATM   38  C   UNL     1       1.364  27.376  48.226  1.00  0.00     0.014 C 
ENDBRANCH  32  35
ENDBRANCH   7  31
BRANCH  13  39
HETATM   39  O   UNL     1       8.690  24.982  57.215  1.00  0.00    -0.395 OA
HETATM   40  H   UNL     1       8.899  24.039  57.091  1.00  0.00     0.210 HD
ENDBRANCH  13  39
TORSDOF 9
ENDMDL
MODEL 5
REMARK VINA RESULT:      -8.4      4.292      8.341
REMARK  9 active torsions:
REMARK  status: ('A' for Active; 'I' for Inactive)
REMARK    1  A    between atoms: C_3  and  C_4 
REMARK    2  A    between atoms: C_4  and  C_5 
REMARK       I    between atoms: C_5  and  N_6 
REMARK    3  A    between atoms: N_6  and  C_7 
REMARK    4  A    between atoms: C_7  and  C_8 
REMARK    5  A    between atoms: C_18  and  N_19 
REMARK       I    between atoms: N_19  and  C_20 
REMARK    6  A    between atoms: C_20  and  C_21 
REMARK    7  A    between atoms: C_29  and  C_30 
REMARK    8  A    between atoms: C_30  and  O_31 
REMARK    9  A    between atoms: C_33  and  O_34 
ROOT
HETATM    1  C   UNL     1       1.201  29.360  50.631  1.00  0.00     0.016 C 
HETATM    2  C   UNL     1       2.632  30.005  50.631  1.00  0.00    -0.030 C 
HETATM    3  C   UNL     1       3.417  29.259  51.832  1.00  0.00     0.056 C 
HETATM    4  C   UNL     1       4.215  28.084  51.318  1.00  0.00     0.056 A 
HETATM    5  C   UNL     1       4.231  27.675  50.003  1.00  0.00     0.012 A 
HETATM    6  S   UNL     1       5.197  26.295  49.821  1.00  0.00    -0.055 SA
HETATM    7  C   UNL     1       5.544  26.322  51.491  1.00  0.00     0.173 A 
HETATM    8  N   UNL     1       4.969  27.294  52.170  1.00  0.00    -0.227 NA
HETATM    9  C   UNL     1       3.515  28.302  48.869  1.00  0.00     0.055 C 
HETATM   10  C   UNL     1       3.228  29.793  49.162  1.00  0.00     0.012 C 
HETATM   11  C   UNL     1       4.385  30.779  48.710  1.00  0.00     0.008 C 
HETATM   12  C   UNL     1       4.572  30.683  47.166  1.00  0.00     0.020 C 
HETATM   13  C   UNL     1       3.977  32.243  49.043  1.00  0.00     0.128 C 
HETATM   14  C   UNL     1       3.561  32.421  50.500  1.00  0.00     0.033 C 
HETATM   15  C   UNL     1       2.385  31.518  50.867  1.00  0.00     0.013 C 
ENDROOT
BRANCH   3  16
HETATM   16  C   UNL     1       4.235  30.154  52.782  1.00  0.00     0.114 C 
BRANCH  16  17
HETATM   17  C   UNL     1       4.113  29.912  54.279  1.00  0.00     0.218 C 
HETATM   18  N   UNL     1       4.810  28.832  54.777  1.00  0.00    -0.357 N 
HETATM   19  H   UNL     1       5.252  28.209  54.116  1.00  0.00     0.162 HD
HETATM   20  O   UNL     1       3.304  30.549  54.950  1.00  0.00    -0.274 OA
BRANCH  18  21
HETATM   21  C   UNL     1       4.467  28.252  56.060  1.00  0.00     0.162 C 
BRANCH  21  22
HETATM   22  C   UNL     1       5.540  27.439  56.724  1.00  0.00    -0.023 A 
HETATM   23  C   UNL     1       6.690  28.010  57.262  1.00  0.00     0.125 A 
HETATM   24  N   UNL     1       7.696  27.305  57.836  1.00  0.00    -0.273 NA
HETATM   25  C   UNL     1       7.546  25.964  57.875  1.00  0.00     0.116 A 
HETATM   26  C   UNL     1       6.447  25.293  57.363  1.00  0.00     0.020 A 
HETATM   27  C   UNL     1       5.436  26.045  56.775  1.00  0.00     0.012 A 
ENDBRANCH  21  22
ENDBRANCH  18  21
ENDBRANCH  16  17
ENDBRANCH   3  16
BRANCH  11  28
HETATM   28  C   UNL     1       5.761  30.446  49.335  1.00  0.00     0.176 C 
BRANCH  28  29
HETATM   29  O   UNL     1       6.504  31.635  49.590  1.00  0.00    -0.400 OA
HETATM   30  H   UNL     1       5.995  32.373  49.208  1.00  0.00     0.209 HD
ENDBRANCH  28  29
ENDBRANCH  11  28
BRANCH   7  31
HETATM   31  N   UNL     1       6.386  25.412  52.084  1.00  0.00    -0.305 N 
HETATM   32  C   UNL     1       7.114  25.601  53.243  1.00  0.00     0.227 C 
HETATM   33  O   UNL     1       7.176  26.654  53.885  1.00  0.00    -0.273 OA
HETATM   34  H   UNL     1       6.439  24.530  51.590  1.00  0.00     0.171 HD
BRANCH  32  35
HETATM   35  C   UNL     1       7.889  24.335  53.708  1.00  0.00     0.078 C 
HETATM   36  C   UNL     1       7.144  23.373  54.676  1.00  0.00     0.014 C 
HETATM   37  C   UNL     1       7.765  22.197  53.904  1.00  0.00     0.002 C 
HETATM   38  C   UNL     1       7.927  23.146  52.704  1.00  0.00     0.014 C 
ENDBRANCH  32  35
ENDBRANCH   7  31
BRANCH  13  39
HETATM   39  O   UNL     1       2.864  32.652  48.240  1.00  0.00    -0.395 OA
HETATM   40  H   UNL     1       2.368  31.846  48.009  1.00  0.00     0.210 HD
ENDBRANCH  13  39
TORSDOF 9
ENDMDL
MODEL 6
REMARK VINA RESULT:      -8.2      5.210      6.998
REMARK  9 active torsions:
REMARK  status: ('A' for Active; 'I' for Inactive)
REMARK    1  A    between atoms: C_3  and  C_4 
REMARK    2  A    between atoms: C_4  and  C_5 
REMARK       I    between atoms: C_5  and  N_6 
REMARK    3  A    between atoms: N_6  and  C_7 
REMARK    4  A    between atoms: C_7  and  C_8 
REMARK    5  A    between atoms: C_18  and  N_19 
REMARK       I    between atoms: N_19  and  C_20 
REMARK    6  A    between atoms: C_20  and  C_21 
REMARK    7  A    between atoms: C_29  and  C_30 
REMARK    8  A    between atoms: C_30  and  O_31 
REMARK    9  A    between atoms: C_33  and  O_34 
ROOT
HETATM    1  C   UNL     1       6.118  27.762  47.359  1.00  0.00     0.016 C 
HETATM    2  C   UNL     1       4.813  27.474  48.184  1.00  0.00    -0.030 C 
HETATM    3  C   UNL     1       5.186  27.896  49.699  1.00  0.00     0.056 C 
HETATM    4  C   UNL     1       4.763  29.316  49.992  1.00  0.00     0.056 A 
HETATM    5  C   UNL     1       4.178  30.156  49.070  1.00  0.00     0.012 A 
HETATM    6  S   UNL     1       3.895  31.681  49.750  1.00  0.00    -0.055 SA
HETATM    7  C   UNL     1       4.554  31.142  51.227  1.00  0.00     0.173 A 
HETATM    8  N   UNL     1       4.982  29.895  51.232  1.00  0.00    -0.227 NA
HETATM    9  C   UNL     1       3.838  29.833  47.666  1.00  0.00     0.055 C 
HETATM   10  C   UNL     1       3.640  28.310  47.489  1.00  0.00     0.012 C 
HETATM   11  C   UNL     1       2.156  27.813  47.748  1.00  0.00     0.008 C 
HETATM   12  C   UNL     1       1.199  28.483  46.717  1.00  0.00     0.020 C 
HETATM   13  C   UNL     1       2.080  26.274  47.528  1.00  0.00     0.128 C 
HETATM   14  C   UNL     1       3.127  25.511  48.334  1.00  0.00     0.033 C 
HETATM   15  C   UNL     1       4.545  25.959  47.986  1.00  0.00     0.013 C 
ENDROOT
BRANCH   3  16
HETATM   16  C   UNL     1       4.764  26.917  50.812  1.00  0.00     0.114 C 
BRANCH  16  17
HETATM   17  C   UNL     1       5.784  26.571  51.888  1.00  0.00     0.218 C 
HETATM   18  N   UNL     1       5.548  25.410  52.593  1.00  0.00    -0.357 N 
HETATM   19  H   UNL     1       4.672  24.933  52.440  1.00  0.00     0.162 HD
HETATM   20  O   UNL     1       6.656  27.377  52.204  1.00  0.00    -0.274 OA
BRANCH  18  21
HETATM   21  C   UNL     1       6.177  25.179  53.877  1.00  0.00     0.162 C 
BRANCH  21  22
HETATM   22  C   UNL     1       6.907  23.875  54.030  1.00  0.00    -0.023 A 
HETATM   23  C   UNL     1       7.218  23.331  55.272  1.00  0.00     0.125 A 
HETATM   24  N   UNL     1       7.907  22.176  55.449  1.00  0.00    -0.273 NA
HETATM   25  C   UNL     1       8.305  21.535  54.329  1.00  0.00     0.116 A 
HETATM   26  C   UNL     1       8.057  21.992  53.046  1.00  0.00     0.020 A 
HETATM   27  C   UNL     1       7.353  23.183  52.899  1.00  0.00     0.012 A 
ENDBRANCH  21  22
ENDBRANCH  18  21
ENDBRANCH  16  17
ENDBRANCH   3  16
BRANCH  11  28
HETATM   28  C   UNL     1       1.615  28.185  49.149  1.00  0.00     0.176 C 
BRANCH  28  29
HETATM   29  O   UNL     1       0.861  29.393  49.097  1.00  0.00    -0.400 OA
HETATM   30  H   UNL     1      -0.072  29.149  49.238  1.00  0.00     0.209 HD
ENDBRANCH  28  29
ENDBRANCH  11  28
BRANCH   7  31
HETATM   31  N   UNL     1       4.611  31.940  52.345  1.00  0.00    -0.305 N 
HETATM   32  C   UNL     1       3.935  31.737  53.533  1.00  0.00     0.227 C 
HETATM   33  O   UNL     1       3.113  30.841  53.745  1.00  0.00    -0.273 OA
HETATM   34  H   UNL     1       5.225  32.737  52.241  1.00  0.00     0.171 HD
BRANCH  32  35
HETATM   35  C   UNL     1       4.299  32.766  54.642  1.00  0.00     0.078 C 
HETATM   36  C   UNL     1       3.114  33.480  55.351  1.00  0.00     0.014 C 
HETATM   37  C   UNL     1       3.891  33.348  56.672  1.00  0.00     0.002 C 
HETATM   38  C   UNL     1       4.656  32.175  56.036  1.00  0.00     0.014 C 
ENDBRANCH  32  35
ENDBRANCH   7  31
BRANCH  13  39
HETATM   39  O   UNL     1       2.300  25.951  46.149  1.00  0.00    -0.395 OA
HETATM   40  H   UNL     1       1.425  25.908  45.723  1.00  0.00     0.210 HD
ENDBRANCH  13  39
TORSDOF 9
ENDMDL
MODEL 7
REMARK VINA RESULT:      -7.9      5.213      7.736
REMARK  9 active torsions:
REMARK  status: ('A' for Active; 'I' for Inactive)
REMARK    1  A    between atoms: C_3  and  C_4 
REMARK    2  A    between atoms: C_4  and  C_5 
REMARK       I    between atoms: C_5  and  N_6 
REMARK    3  A    between atoms: N_6  and  C_7 
REMARK    4  A    between atoms: C_7  and  C_8 
REMARK    5  A    between atoms: C_18  and  N_19 
REMARK       I    between atoms: N_19  and  C_20 
REMARK    6  A    between atoms: C_20  and  C_21 
REMARK    7  A    between atoms: C_29  and  C_30 
REMARK    8  A    between atoms: C_30  and  O_31 
REMARK    9  A    between atoms: C_33  and  O_34 
ROOT
HETATM    1  C   UNL     1       6.103  27.880  47.285  1.00  0.00     0.016 C 
HETATM    2  C   UNL     1       4.825  27.561  48.139  1.00  0.00    -0.030 C 
HETATM    3  C   UNL     1       5.233  27.963  49.651  1.00  0.00     0.056 C 
HETATM    4  C   UNL     1       4.800  29.372  49.979  1.00  0.00     0.056 A 
HETATM    5  C   UNL     1       4.180  30.219  49.087  1.00  0.00     0.012 A 
HETATM    6  S   UNL     1       3.894  31.729  49.800  1.00  0.00    -0.055 SA
HETATM    7  C   UNL     1       4.600  31.174  51.249  1.00  0.00     0.173 A 
HETATM    8  N   UNL     1       5.044  29.934  51.222  1.00  0.00    -0.227 NA
HETATM    9  C   UNL     1       3.806  29.915  47.687  1.00  0.00     0.055 C 
HETATM   10  C   UNL     1       3.623  28.392  47.489  1.00  0.00     0.012 C 
HETATM   11  C   UNL     1       2.154  27.871  47.779  1.00  0.00     0.008 C 
HETATM   12  C   UNL     1       1.161  28.545  46.785  1.00  0.00     0.020 C 
HETATM   13  C   UNL     1       2.091  26.335  47.535  1.00  0.00     0.128 C 
HETATM   14  C   UNL     1       3.169  25.573  48.301  1.00  0.00     0.033 C 
HETATM   15  C   UNL     1       4.572  26.046  47.923  1.00  0.00     0.013 C 
ENDROOT
BRANCH   3  16
HETATM   16  C   UNL     1       4.854  26.960  50.758  1.00  0.00     0.114 C 
BRANCH  16  17
HETATM   17  C   UNL     1       5.905  26.612  51.801  1.00  0.00     0.218 C 
HETATM   18  N   UNL     1       6.095  27.541  52.803  1.00  0.00    -0.357 N 
HETATM   19  H   UNL     1       5.623  28.429  52.719  1.00  0.00     0.162 HD
HETATM   20  O   UNL     1       6.643  25.642  51.644  1.00  0.00    -0.274 OA
BRANCH  18  21
HETATM   21  C   UNL     1       7.306  27.541  53.598  1.00  0.00     0.162 C 
BRANCH  21  22
HETATM   22  C   UNL     1       7.185  28.101  54.986  1.00  0.00    -0.023 A 
HETATM   23  C   UNL     1       6.038  27.948  55.759  1.00  0.00     0.125 A 
HETATM   24  N   UNL     1       5.879  28.470  57.000  1.00  0.00    -0.273 NA
HETATM   25  C   UNL     1       6.917  29.180  57.493  1.00  0.00     0.116 A 
HETATM   26  C   UNL     1       8.099  29.400  56.806  1.00  0.00     0.020 A 
HETATM   27  C   UNL     1       8.228  28.856  55.532  1.00  0.00     0.012 A 
ENDBRANCH  21  22
ENDBRANCH  18  21
ENDBRANCH  16  17
ENDBRANCH   3  16
BRANCH  11  28
HETATM   28  C   UNL     1       1.645  28.213  49.200  1.00  0.00     0.176 C 
BRANCH  28  29
HETATM   29  O   UNL     1       0.887  29.420  49.192  1.00  0.00    -0.400 OA
HETATM   30  H   UNL     1       1.290  30.001  48.521  1.00  0.00     0.209 HD
ENDBRANCH  28  29
ENDBRANCH  11  28
BRANCH   7  31
HETATM   31  N   UNL     1       4.676  31.954  52.379  1.00  0.00    -0.305 N 
HETATM   32  C   UNL     1       3.983  31.761  53.558  1.00  0.00     0.227 C 
HETATM   33  O   UNL     1       3.127  30.892  53.751  1.00  0.00    -0.273 OA
HETATM   34  H   UNL     1       5.320  32.730  52.291  1.00  0.00     0.171 HD
BRANCH  32  35
HETATM   35  C   UNL     1       4.374  32.760  54.684  1.00  0.00     0.078 C 
HETATM   36  C   UNL     1       3.224  33.276  55.595  1.00  0.00     0.014 C 
HETATM   37  C   UNL     1       4.188  33.166  56.788  1.00  0.00     0.002 C 
HETATM   38  C   UNL     1       4.989  32.138  55.971  1.00  0.00     0.014 C 
ENDBRANCH  32  35
ENDBRANCH   7  31
BRANCH  13  39
HETATM   39  O   UNL     1       2.279  26.038  46.146  1.00  0.00    -0.395 OA
HETATM   40  H   UNL     1       3.077  26.515  45.857  1.00  0.00     0.210 HD
ENDBRANCH  13  39
TORSDOF 9
ENDMDL
MODEL 8
REMARK VINA RESULT:      -7.8      4.495      9.658
REMARK  9 active torsions:
REMARK  status: ('A' for Active; 'I' for Inactive)
REMARK    1  A    between atoms: C_3  and  C_4 
REMARK    2  A    between atoms: C_4  and  C_5 
REMARK       I    between atoms: C_5  and  N_6 
REMARK    3  A    between atoms: N_6  and  C_7 
REMARK    4  A    between atoms: C_7  and  C_8 
REMARK    5  A    between atoms: C_18  and  N_19 
REMARK       I    between atoms: N_19  and  C_20 
REMARK    6  A    between atoms: C_20  and  C_21 
REMARK    7  A    between atoms: C_29  and  C_30 
REMARK    8  A    between atoms: C_30  and  O_31 
REMARK    9  A    between atoms: C_33  and  O_34 
ROOT
HETATM    1  C   UNL     1       8.683  28.954  54.778  1.00  0.00     0.016 C 
HETATM    2  C   UNL     1       7.464  28.158  55.366  1.00  0.00    -0.030 C 
HETATM    3  C   UNL     1       6.162  28.873  54.726  1.00  0.00     0.056 C 
HETATM    4  C   UNL     1       5.707  28.163  53.473  1.00  0.00     0.056 A 
HETATM    5  C   UNL     1       6.348  27.075  52.924  1.00  0.00     0.012 A 
HETATM    6  S   UNL     1       5.576  26.586  51.498  1.00  0.00    -0.055 SA
HETATM    7  C   UNL     1       4.434  27.837  51.692  1.00  0.00     0.173 A 
HETATM    8  N   UNL     1       4.607  28.600  52.753  1.00  0.00    -0.227 NA
HETATM    9  C   UNL     1       7.554  26.395  53.450  1.00  0.00     0.055 C 
HETATM   10  C   UNL     1       7.688  26.624  54.974  1.00  0.00     0.012 C 
HETATM   11  C   UNL     1       6.942  25.542  55.861  1.00  0.00     0.008 C 
HETATM   12  C   UNL     1       7.560  24.137  55.592  1.00  0.00     0.020 C 
HETATM   13  C   UNL     1       7.158  25.869  57.367  1.00  0.00     0.128 C 
HETATM   14  C   UNL     1       6.784  27.306  57.718  1.00  0.00     0.033 C 
HETATM   15  C   UNL     1       7.592  28.315  56.903  1.00  0.00     0.013 C 
ENDROOT
BRANCH   3  16
HETATM   16  C   UNL     1       4.996  29.172  55.688  1.00  0.00     0.114 C 
BRANCH  16  17
HETATM   17  C   UNL     1       4.544  30.617  55.840  1.00  0.00     0.218 C 
HETATM   18  N   UNL     1       3.910  31.172  54.749  1.00  0.00    -0.357 N 
HETATM   19  H   UNL     1       3.891  30.638  53.892  1.00  0.00     0.162 HD
HETATM   20  O   UNL     1       4.885  31.278  56.818  1.00  0.00    -0.274 OA
BRANCH  18  21
HETATM   21  C   UNL     1       3.802  32.609  54.601  1.00  0.00     0.162 C 
BRANCH  21  22
HETATM   22  C   UNL     1       4.564  33.214  53.457  1.00  0.00    -0.023 A 
HETATM   23  C   UNL     1       4.400  32.795  52.141  1.00  0.00     0.125 A 
HETATM   24  N   UNL     1       5.096  33.291  51.089  1.00  0.00    -0.273 NA
HETATM   25  C   UNL     1       6.001  34.255  51.366  1.00  0.00     0.116 A 
HETATM   26  C   UNL     1       6.249  34.739  52.640  1.00  0.00     0.020 A 
HETATM   27  C   UNL     1       5.523  34.204  53.698  1.00  0.00     0.012 A 
ENDBRANCH  21  22
ENDBRANCH  18  21
ENDBRANCH  16  17
ENDBRANCH   3  16
BRANCH  11  28
HETATM   28  C   UNL     1       5.431  25.419  55.547  1.00  0.00     0.176 C 
BRANCH  28  29
HETATM   29  O   UNL     1       4.668  25.345  56.748  1.00  0.00    -0.400 OA
HETATM   30  H   UNL     1       3.997  24.650  56.613  1.00  0.00     0.209 HD
ENDBRANCH  28  29
ENDBRANCH  11  28
BRANCH   7  31
HETATM   31  N   UNL     1       3.386  28.021  50.821  1.00  0.00    -0.305 N 
HETATM   32  C   UNL     1       3.479  28.217  49.456  1.00  0.00     0.227 C 
HETATM   33  O   UNL     1       4.530  28.332  48.819  1.00  0.00    -0.273 OA
HETATM   34  H   UNL     1       2.479  27.996  51.269  1.00  0.00     0.171 HD
BRANCH  32  35
HETATM   35  C   UNL     1       2.100  28.286  48.740  1.00  0.00     0.078 C 
HETATM   36  C   UNL     1       2.058  29.015  47.367  1.00  0.00     0.014 C 
HETATM   37  C   UNL     1       1.091  27.925  46.875  1.00  0.00     0.002 C 
HETATM   38  C   UNL     1       1.661  27.007  47.970  1.00  0.00     0.014 C 
ENDBRANCH  32  35
ENDBRANCH   7  31
BRANCH  13  39
HETATM   39  O   UNL     1       8.534  25.698  57.727  1.00  0.00    -0.395 OA
HETATM   40  H   UNL     1       8.644  24.770  58.001  1.00  0.00     0.210 HD
ENDBRANCH  13  39
TORSDOF 9
ENDMDL
MODEL 9
REMARK VINA RESULT:      -7.7      4.387      9.197
REMARK  9 active torsions:
REMARK  status: ('A' for Active; 'I' for Inactive)
REMARK    1  A    between atoms: C_3  and  C_4 
REMARK    2  A    between atoms: C_4  and  C_5 
REMARK       I    between atoms: C_5  and  N_6 
REMARK    3  A    between atoms: N_6  and  C_7 
REMARK    4  A    between atoms: C_7  and  C_8 
REMARK    5  A    between atoms: C_18  and  N_19 
REMARK       I    between atoms: N_19  and  C_20 
REMARK    6  A    between atoms: C_20  and  C_21 
REMARK    7  A    between atoms: C_29  and  C_30 
REMARK    8  A    between atoms: C_30  and  O_31 
REMARK    9  A    between atoms: C_33  and  O_34 
ROOT
HETATM    1  C   UNL     1       1.207  29.390  50.630  1.00  0.00     0.016 C 
HETATM    2  C   UNL     1       2.678  29.936  50.594  1.00  0.00    -0.030 C 
HETATM    3  C   UNL     1       3.360  29.364  51.944  1.00  0.00     0.056 C 
HETATM    4  C   UNL     1       4.095  28.071  51.681  1.00  0.00     0.056 A 
HETATM    5  C   UNL     1       4.137  27.439  50.458  1.00  0.00     0.012 A 
HETATM    6  S   UNL     1       5.011  25.992  50.565  1.00  0.00    -0.055 SA
HETATM    7  C   UNL     1       5.290  26.287  52.221  1.00  0.00     0.173 A 
HETATM    8  N   UNL     1       4.757  27.396  52.694  1.00  0.00    -0.227 NA
HETATM    9  C   UNL     1       3.512  27.901  49.197  1.00  0.00     0.055 C 
HETATM   10  C   UNL     1       3.317  29.435  49.216  1.00  0.00     0.012 C 
HETATM   11  C   UNL     1       4.557  30.255  48.662  1.00  0.00     0.008 C 
HETATM   12  C   UNL     1       4.799  29.880  47.169  1.00  0.00     0.020 C 
HETATM   13  C   UNL     1       4.239  31.777  48.719  1.00  0.00     0.128 C 
HETATM   14  C   UNL     1       3.778  32.231  50.100  1.00  0.00     0.033 C 
HETATM   15  C   UNL     1       2.528  31.479  50.554  1.00  0.00     0.013 C 
ENDROOT
BRANCH   3  16
HETATM   16  C   UNL     1       4.200  30.359  52.768  1.00  0.00     0.114 C 
BRANCH  16  17
HETATM   17  C   UNL     1       3.902  30.491  54.254  1.00  0.00     0.218 C 
HETATM   18  N   UNL     1       4.771  29.841  55.106  1.00  0.00    -0.357 N 
HETATM   19  H   UNL     1       5.466  29.233  54.698  1.00  0.00     0.162 HD
HETATM   20  O   UNL     1       2.854  31.004  54.638  1.00  0.00    -0.274 OA
BRANCH  18  21
HETATM   21  C   UNL     1       4.390  29.540  56.471  1.00  0.00     0.162 C 
BRANCH  21  22
HETATM   22  C   UNL     1       4.671  30.610  57.486  1.00  0.00    -0.023 A 
HETATM   23  C   UNL     1       5.913  31.227  57.602  1.00  0.00     0.125 A 
HETATM   24  N   UNL     1       6.214  32.169  58.529  1.00  0.00    -0.273 NA
HETATM   25  C   UNL     1       5.225  32.512  59.383  1.00  0.00     0.116 A 
HETATM   26  C   UNL     1       3.957  31.955  59.361  1.00  0.00     0.020 A 
HETATM   27  C   UNL     1       3.683  30.987  58.401  1.00  0.00     0.012 A 
ENDBRANCH  21  22
ENDBRANCH  18  21
ENDBRANCH  16  17
ENDBRANCH   3  16
BRANCH  11  28
HETATM   28  C   UNL     1       5.880  29.952  49.406  1.00  0.00     0.176 C 
BRANCH  28  29
HETATM   29  O   UNL     1       6.641  31.142  49.594  1.00  0.00    -0.400 OA
HETATM   30  H   UNL     1       6.199  31.651  50.298  1.00  0.00     0.209 HD
ENDBRANCH  28  29
ENDBRANCH  11  28
BRANCH   7  31
HETATM   31  N   UNL     1       6.042  25.445  53.004  1.00  0.00    -0.305 N 
HETATM   32  C   UNL     1       7.418  25.316  52.985  1.00  0.00     0.227 C 
HETATM   33  O   UNL     1       8.180  25.891  52.202  1.00  0.00    -0.273 OA
HETATM   34  H   UNL     1       5.491  24.889  53.645  1.00  0.00     0.171 HD
BRANCH  32  35
HETATM   35  C   UNL     1       7.971  24.351  54.072  1.00  0.00     0.078 C 
HETATM   36  C   UNL     1       6.994  23.945  55.212  1.00  0.00     0.014 C 
HETATM   37  C   UNL     1       7.575  22.523  55.136  1.00  0.00     0.002 C 
HETATM   38  C   UNL     1       8.010  22.842  53.695  1.00  0.00     0.014 C 
ENDBRANCH  32  35
ENDBRANCH   7  31
BRANCH  13  39
HETATM   39  O   UNL     1       3.190  32.107  47.800  1.00  0.00    -0.395 OA
HETATM   40  H   UNL     1       3.052  31.327  47.234  1.00  0.00     0.210 HD
ENDBRANCH  13  39
TORSDOF 9
ENDMDL
MODEL 10
REMARK VINA RESULT:      -7.5     16.587     18.880
REMARK  9 active torsions:
REMARK  status: ('A' for Active; 'I' for Inactive)
REMARK    1  A    between atoms: C_3  and  C_4 
REMARK    2  A    between atoms: C_4  and  C_5 
REMARK       I    between atoms: C_5  and  N_6 
REMARK    3  A    between atoms: N_6  and  C_7 
REMARK    4  A    between atoms: C_7  and  C_8 
REMARK    5  A    between atoms: C_18  and  N_19 
REMARK       I    between atoms: N_19  and  C_20 
REMARK    6  A    between atoms: C_20  and  C_21 
REMARK    7  A    between atoms: C_29  and  C_30 
REMARK    8  A    between atoms: C_30  and  O_31 
REMARK    9  A    between atoms: C_33  and  O_34 
ROOT
HETATM    1  C   UNL     1      13.999  13.078  55.222  1.00  0.00     0.016 C 
HETATM    2  C   UNL     1      13.966  11.631  54.613  1.00  0.00    -0.030 C 
HETATM    3  C   UNL     1      12.966  10.804  55.578  1.00  0.00     0.056 C 
HETATM    4  C   UNL     1      11.558  10.799  55.032  1.00  0.00     0.056 A 
HETATM    5  C   UNL     1      11.170  11.456  53.885  1.00  0.00     0.012 A 
HETATM    6  S   UNL     1       9.508  11.263  53.622  1.00  0.00    -0.055 SA
HETATM    7  C   UNL     1       9.398  10.317  55.036  1.00  0.00     0.173 A 
HETATM    8  N   UNL     1      10.528  10.150  55.693  1.00  0.00    -0.227 NA
HETATM    9  C   UNL     1      12.034  12.246  52.979  1.00  0.00     0.055 C 
HETATM   10  C   UNL     1      13.506  11.787  53.090  1.00  0.00     0.012 C 
HETATM   11  C   UNL     1      13.896  10.610  52.100  1.00  0.00     0.008 C 
HETATM   12  C   UNL     1      13.715  11.090  50.629  1.00  0.00     0.020 C 
HETATM   13  C   UNL     1      15.396  10.245  52.294  1.00  0.00     0.128 C 
HETATM   14  C   UNL     1      15.748   9.957  53.751  1.00  0.00     0.033 C 
HETATM   15  C   UNL     1      15.441  11.151  54.653  1.00  0.00     0.013 C 
ENDROOT
BRANCH   3  16
HETATM   16  C   UNL     1      13.431   9.401  56.014  1.00  0.00     0.114 C 
BRANCH  16  17
HETATM   17  C   UNL     1      13.328   9.037  57.488  1.00  0.00     0.218 C 
HETATM   18  N   UNL     1      12.052   8.857  57.979  1.00  0.00    -0.357 N 
HETATM   19  H   UNL     1      11.276   9.090  57.376  1.00  0.00     0.162 HD
HETATM   20  O   UNL     1      14.320   9.075  58.211  1.00  0.00    -0.274 OA
BRANCH  18  21
HETATM   21  C   UNL     1      11.786   8.917  59.401  1.00  0.00     0.162 C 
BRANCH  21  22
HETATM   22  C   UNL     1      10.449   9.470  59.801  1.00  0.00    -0.023 A 
HETATM   23  C   UNL     1      10.303  10.453  60.774  1.00  0.00     0.125 A 
HETATM   24  N   UNL     1       9.111  10.950  61.187  1.00  0.00    -0.273 NA
HETATM   25  C   UNL     1       8.009  10.438  60.597  1.00  0.00     0.116 A 
HETATM   26  C   UNL     1       8.039   9.452  59.625  1.00  0.00     0.020 A 
HETATM   27  C   UNL     1       9.278   8.960  59.229  1.00  0.00     0.012 A 
ENDBRANCH  21  22
ENDBRANCH  18  21
ENDBRANCH  16  17
ENDBRANCH   3  16
BRANCH  11  28
HETATM   28  C   UNL     1      13.010   9.351  52.257  1.00  0.00     0.176 C 
BRANCH  28  29
HETATM   29  O   UNL     1      12.142   9.197  51.138  1.00  0.00    -0.400 OA
HETATM   30  H   UNL     1      12.612   8.641  50.490  1.00  0.00     0.209 HD
ENDBRANCH  28  29
ENDBRANCH  11  28
BRANCH   7  31
HETATM   31  N   UNL     1       8.219   9.742  55.450  1.00  0.00    -0.305 N 
HETATM   32  C   UNL     1       7.012  10.388  55.633  1.00  0.00     0.227 C 
HETATM   33  O   UNL     1       6.826  11.603  55.524  1.00  0.00    -0.273 OA
HETATM   34  H   UNL     1       8.292   8.746  55.616  1.00  0.00     0.171 HD
BRANCH  32  35
HETATM   35  C   UNL     1       5.842   9.431  56.004  1.00  0.00     0.078 C 
HETATM   36  C   UNL     1       5.326   8.486  54.881  1.00  0.00     0.014 C 
HETATM   37  C   UNL     1       5.187   7.383  55.944  1.00  0.00     0.002 C 
HETATM   38  C   UNL     1       6.230   8.142  56.783  1.00  0.00     0.014 C 
ENDBRANCH  32  35
ENDBRANCH   7  31
BRANCH  13  39
HETATM   39  O   UNL     1      16.236  11.325  51.869  1.00  0.00    -0.395 OA
HETATM   40  H   UNL     1      16.810  10.978  51.162  1.00  0.00     0.210 HD
ENDBRANCH  13  39
TORSDOF 9
ENDMDL
