MODEL 1
REMARK VINA RESULT:      -9.3      0.000      0.000
REMARK  6 active torsions:
REMARK  status: ('A' for Active; 'I' for Inactive)
REMARK    1  A    between atoms: C_2  and  N_3 
REMARK    2  A    between atoms: C_2  and  C_12 
REMARK       I    between atoms: N_3  and  C_4 
REMARK    3  A    between atoms: C_4  and  C_5 
REMARK    4  A    between atoms: C_12  and  C_13 
REMARK       I    between atoms: C_13  and  N_14 
REMARK    5  A    between atoms: N_14  and  C_15 
REMARK    6  A    between atoms: C_17  and  C_18 
ROOT
HETATM    1  C   UNL     1       6.605  27.678  55.485  1.00  0.00     0.224 C 
HETATM    2  N   UNL     1       7.254  28.893  55.432  1.00  0.00    -0.327 N 
HETATM    3  O   UNL     1       6.763  26.795  56.323  1.00  0.00    -0.273 OA
HETATM    4  H   UNL     1       6.934  29.531  54.698  1.00  0.00     0.169 HD
ENDROOT
BRANCH   1   5
HETATM    5  C   UNL     1       5.585  27.510  54.369  1.00  0.00     0.128 C 
BRANCH   5   6
HETATM    6  C   UNL     1       6.082  26.473  53.346  1.00  0.00     0.089 C 
HETATM    7  C   UNL     1       4.927  26.053  52.431  1.00  0.00     0.032 C 
BRANCH   6   8
HETATM    8  N   UNL     1       6.675  25.266  53.939  1.00  0.00    -0.352 N 
HETATM    9  C   UNL     1       7.577  24.457  53.279  1.00  0.00     0.252 C 
HETATM   10  O   UNL     1       8.231  24.815  52.305  1.00  0.00    -0.268 OA
HETATM   11  H   UNL     1       6.200  24.875  54.742  1.00  0.00     0.163 HD
BRANCH   9  12
HETATM   12  C   UNL     1       7.750  23.078  53.807  1.00  0.00     0.032 A 
HETATM   13  C   UNL     1       7.651  22.798  55.175  1.00  0.00     0.017 A 
HETATM   14  C   UNL     1       7.757  21.479  55.624  1.00  0.00     0.001 A 
HETATM   15  C   UNL     1       7.954  20.443  54.712  1.00  0.00     0.000 A 
HETATM   16  C   UNL     1       8.041  20.719  53.347  1.00  0.00     0.001 A 
HETATM   17  C   UNL     1       7.932  22.034  52.893  1.00  0.00     0.017 A 
ENDBRANCH   9  12
ENDBRANCH   6   8
ENDBRANCH   5   6
ENDBRANCH   1   5
BRANCH   2  18
HETATM   18  C   UNL     1       8.246  29.407  56.287  1.00  0.00     0.035 A 
HETATM   19  C   UNL     1       7.996  29.935  57.557  1.00  0.00     0.042 A 
HETATM   20  C   UNL     1       9.045  30.438  58.347  1.00  0.00    -0.021 A 
HETATM   21  C   UNL     1      10.354  30.390  57.846  1.00  0.00     0.012 A 
HETATM   22  C   UNL     1      10.611  29.864  56.582  1.00  0.00     0.003 A 
HETATM   23  C   UNL     1       9.560  29.381  55.806  1.00  0.00     0.029 A 
BRANCH  20  24
HETATM   24  C   UNL     1       8.796  31.019  59.659  1.00  0.00     0.010 A 
HETATM   25  C   UNL     1       9.153  30.568  60.954  1.00  0.00     0.152 A 
HETATM   26  N   UNL     1       8.731  31.383  61.925  1.00  0.00    -0.187 NA
HETATM   27  N   UNL     1       8.105  32.364  61.256  1.00  0.00    -0.289 N 
HETATM   28  H   UNL     1       7.692  33.122  61.788  1.00  0.00     0.188 HD
HETATM   29  C   UNL     1       8.113  32.191  59.903  1.00  0.00     0.123 A 
ENDBRANCH  20  24
ENDBRANCH   2  18
TORSDOF 6
ENDMDL
MODEL 2
REMARK VINA RESULT:      -9.2      2.227      8.340
REMARK  6 active torsions:
REMARK  status: ('A' for Active; 'I' for Inactive)
REMARK    1  A    between atoms: C_2  and  N_3 
REMARK    2  A    between atoms: C_2  and  C_12 
REMARK       I    between atoms: N_3  and  C_4 
REMARK    3  A    between atoms: C_4  and  C_5 
REMARK    4  A    between atoms: C_12  and  C_13 
REMARK       I    between atoms: C_13  and  N_14 
REMARK    5  A    between atoms: N_14  and  C_15 
REMARK    6  A    between atoms: C_17  and  C_18 
ROOT
HETATM    1  C   UNL     1       5.712  27.391  54.746  1.00  0.00     0.224 C 
HETATM    2  N   UNL     1       5.585  26.019  54.760  1.00  0.00    -0.327 N 
HETATM    3  O   UNL     1       6.580  28.044  54.173  1.00  0.00    -0.273 OA
HETATM    4  H   UNL     1       4.751  25.659  55.233  1.00  0.00     0.169 HD
ENDROOT
BRANCH   1   5
HETATM    5  C   UNL     1       4.605  28.090  55.519  1.00  0.00     0.128 C 
BRANCH   5   6
HETATM    6  C   UNL     1       5.153  28.651  56.843  1.00  0.00     0.089 C 
HETATM    7  C   UNL     1       4.280  29.819  57.312  1.00  0.00     0.032 C 
BRANCH   6   8
HETATM    8  N   UNL     1       6.550  29.104  56.781  1.00  0.00    -0.352 N 
HETATM    9  C   UNL     1       7.556  28.580  57.568  1.00  0.00     0.252 C 
HETATM   10  O   UNL     1       7.489  27.493  58.130  1.00  0.00    -0.268 OA
HETATM   11  H   UNL     1       6.716  30.004  56.351  1.00  0.00     0.163 HD
BRANCH   9  12
HETATM   12  C   UNL     1       8.785  29.404  57.717  1.00  0.00     0.032 A 
HETATM   13  C   UNL     1       9.969  29.087  57.039  1.00  0.00     0.017 A 
HETATM   14  C   UNL     1      11.082  29.923  57.157  1.00  0.00     0.001 A 
HETATM   15  C   UNL     1      11.014  31.072  57.944  1.00  0.00     0.000 A 
HETATM   16  C   UNL     1       9.832  31.396  58.611  1.00  0.00     0.001 A 
HETATM   17  C   UNL     1       8.716  30.567  58.493  1.00  0.00     0.017 A 
ENDBRANCH   9  12
ENDBRANCH   6   8
ENDBRANCH   5   6
ENDBRANCH   1   5
BRANCH   2  18
HETATM   18  C   UNL     1       6.402  25.046  54.157  1.00  0.00     0.035 A 
HETATM   19  C   UNL     1       6.847  23.884  54.793  1.00  0.00     0.042 A 
HETATM   20  C   UNL     1       7.671  22.963  54.121  1.00  0.00    -0.021 A 
HETATM   21  C   UNL     1       8.032  23.223  52.790  1.00  0.00     0.012 A 
HETATM   22  C   UNL     1       7.592  24.378  52.149  1.00  0.00     0.003 A 
HETATM   23  C   UNL     1       6.786  25.286  52.833  1.00  0.00     0.029 A 
BRANCH  20  24
HETATM   24  C   UNL     1       8.167  21.764  54.781  1.00  0.00     0.010 A 
HETATM   25  C   UNL     1       8.347  21.473  56.156  1.00  0.00     0.152 A 
HETATM   26  N   UNL     1       8.839  20.248  56.369  1.00  0.00    -0.187 NA
HETATM   27  N   UNL     1       8.971  19.748  55.130  1.00  0.00    -0.289 N 
HETATM   28  H   UNL     1       9.333  18.806  55.029  1.00  0.00     0.188 HD
HETATM   29  C   UNL     1       8.588  20.613  54.149  1.00  0.00     0.123 A 
ENDBRANCH  20  24
ENDBRANCH   2  18
TORSDOF 6
ENDMDL
MODEL 3
REMARK VINA RESULT:      -9.2      2.376      8.213
REMARK  6 active torsions:
REMARK  status: ('A' for Active; 'I' for Inactive)
REMARK    1  A    between atoms: C_2  and  N_3 
REMARK    2  A    between atoms: C_2  and  C_12 
REMARK       I    between atoms: N_3  and  C_4 
REMARK    3  A    between atoms: C_4  and  C_5 
REMARK    4  A    between atoms: C_12  and  C_13 
REMARK       I    between atoms: C_13  and  N_14 
REMARK    5  A    between atoms: N_14  and  C_15 
REMARK    6  A    between atoms: C_17  and  C_18 
ROOT
HETATM    1  C   UNL     1       5.858  27.087  54.294  1.00  0.00     0.224 C 
HETATM    2  N   UNL     1       5.916  26.139  55.293  1.00  0.00    -0.327 N 
HETATM    3  O   UNL     1       6.667  27.248  53.385  1.00  0.00    -0.273 OA
HETATM    4  H   UNL     1       5.107  26.111  55.921  1.00  0.00     0.169 HD
ENDROOT
BRANCH   1   5
HETATM    5  C   UNL     1       4.617  27.961  54.387  1.00  0.00     0.128 C 
BRANCH   5   6
HETATM    6  C   UNL     1       4.920  29.229  55.205  1.00  0.00     0.089 C 
HETATM    7  C   UNL     1       4.430  30.465  54.444  1.00  0.00     0.032 C 
BRANCH   6   8
HETATM    8  N   UNL     1       6.339  29.415  55.540  1.00  0.00    -0.352 N 
HETATM    9  C   UNL     1       6.876  29.119  56.776  1.00  0.00     0.252 C 
HETATM   10  O   UNL     1       6.343  28.374  57.592  1.00  0.00    -0.268 OA
HETATM   11  H   UNL     1       6.870  30.030  54.937  1.00  0.00     0.163 HD
BRANCH   9  12
HETATM   12  C   UNL     1       8.180  29.749  57.107  1.00  0.00     0.032 A 
HETATM   13  C   UNL     1       8.326  30.599  58.211  1.00  0.00     0.017 A 
HETATM   14  C   UNL     1       9.584  31.121  58.525  1.00  0.00     0.001 A 
HETATM   15  C   UNL     1      10.692  30.792  57.745  1.00  0.00     0.000 A 
HETATM   16  C   UNL     1      10.552  29.935  56.653  1.00  0.00     0.001 A 
HETATM   17  C   UNL     1       9.298  29.409  56.337  1.00  0.00     0.017 A 
ENDBRANCH   9  12
ENDBRANCH   6   8
ENDBRANCH   5   6
ENDBRANCH   1   5
BRANCH   2  18
HETATM   18  C   UNL     1       6.895  25.157  55.529  1.00  0.00     0.035 A 
HETATM   19  C   UNL     1       7.062  24.006  54.755  1.00  0.00     0.042 A 
HETATM   20  C   UNL     1       8.063  23.068  55.064  1.00  0.00    -0.021 A 
HETATM   21  C   UNL     1       8.905  23.311  56.159  1.00  0.00     0.012 A 
HETATM   22  C   UNL     1       8.746  24.457  56.935  1.00  0.00     0.003 A 
HETATM   23  C   UNL     1       7.741  25.370  56.624  1.00  0.00     0.029 A 
BRANCH  20  24
HETATM   24  C   UNL     1       8.228  21.849  54.284  1.00  0.00     0.010 A 
HETATM   25  C   UNL     1       8.795  20.598  54.631  1.00  0.00     0.152 A 
HETATM   26  N   UNL     1       8.770  19.718  53.625  1.00  0.00    -0.187 NA
HETATM   27  N   UNL     1       8.183  20.401  52.630  1.00  0.00    -0.289 N 
HETATM   28  H   UNL     1       8.047  19.932  51.741  1.00  0.00     0.188 HD
HETATM   29  C   UNL     1       7.844  21.677  52.971  1.00  0.00     0.123 A 
ENDBRANCH  20  24
ENDBRANCH   2  18
TORSDOF 6
ENDMDL
MODEL 4
REMARK VINA RESULT:      -9.2      2.540      9.404
REMARK  6 active torsions:
REMARK  status: ('A' for Active; 'I' for Inactive)
REMARK    1  A    between atoms: C_2  and  N_3 
REMARK    2  A    between atoms: C_2  and  C_12 
REMARK       I    between atoms: N_3  and  C_4 
REMARK    3  A    between atoms: C_4  and  C_5 
REMARK    4  A    between atoms: C_12  and  C_13 
REMARK       I    between atoms: C_13  and  N_14 
REMARK    5  A    between atoms: N_14  and  C_15 
REMARK    6  A    between atoms: C_17  and  C_18 
ROOT
HETATM    1  C   UNL     1       7.706  28.064  55.120  1.00  0.00     0.224 C 
HETATM    2  N   UNL     1       7.246  26.767  55.211  1.00  0.00    -0.327 N 
HETATM    3  O   UNL     1       8.418  28.531  54.236  1.00  0.00    -0.273 OA
HETATM    4  H   UNL     1       6.599  26.583  55.984  1.00  0.00     0.169 HD
ENDROOT
BRANCH   1   5
HETATM    5  C   UNL     1       7.207  28.944  56.256  1.00  0.00     0.128 C 
BRANCH   5   6
HETATM    6  C   UNL     1       8.388  29.669  56.924  1.00  0.00     0.089 C 
HETATM    7  C   UNL     1       9.525  28.676  57.186  1.00  0.00     0.032 C 
BRANCH   6   8
HETATM    8  N   UNL     1       8.055  30.346  58.185  1.00  0.00    -0.352 N 
HETATM    9  C   UNL     1       8.891  31.248  58.811  1.00  0.00     0.252 C 
HETATM   10  O   UNL     1       9.810  31.833  58.247  1.00  0.00    -0.268 OA
HETATM   11  H   UNL     1       7.318  29.932  58.740  1.00  0.00     0.163 HD
BRANCH   9  12
HETATM   12  C   UNL     1       8.635  31.510  60.251  1.00  0.00     0.032 A 
HETATM   13  C   UNL     1       7.905  32.627  60.676  1.00  0.00     0.017 A 
HETATM   14  C   UNL     1       7.632  32.804  62.035  1.00  0.00     0.001 A 
HETATM   15  C   UNL     1       8.079  31.866  62.966  1.00  0.00     0.000 A 
HETATM   16  C   UNL     1       8.795  30.746  62.543  1.00  0.00     0.001 A 
HETATM   17  C   UNL     1       9.067  30.564  61.187  1.00  0.00     0.017 A 
ENDBRANCH   9  12
ENDBRANCH   6   8
ENDBRANCH   5   6
ENDBRANCH   1   5
BRANCH   2  18
HETATM   18  C   UNL     1       7.484  25.679  54.353  1.00  0.00     0.035 A 
HETATM   19  C   UNL     1       7.821  24.393  54.783  1.00  0.00     0.042 A 
HETATM   20  C   UNL     1       8.052  23.360  53.857  1.00  0.00    -0.021 A 
HETATM   21  C   UNL     1       7.925  23.636  52.488  1.00  0.00     0.012 A 
HETATM   22  C   UNL     1       7.588  24.915  52.051  1.00  0.00     0.003 A 
HETATM   23  C   UNL     1       7.376  25.931  52.980  1.00  0.00     0.029 A 
BRANCH  20  24
HETATM   24  C   UNL     1       8.434  22.023  54.291  1.00  0.00     0.010 A 
HETATM   25  C   UNL     1       8.277  20.765  53.659  1.00  0.00     0.152 A 
HETATM   26  N   UNL     1       8.755  19.752  54.388  1.00  0.00    -0.187 NA
HETATM   27  N   UNL     1       9.225  20.358  55.490  1.00  0.00    -0.289 N 
HETATM   28  H   UNL     1       9.649  19.783  56.210  1.00  0.00     0.188 HD
HETATM   29  C   UNL     1       9.054  21.711  55.482  1.00  0.00     0.123 A 
ENDBRANCH  20  24
ENDBRANCH   2  18
TORSDOF 6
ENDMDL
MODEL 5
REMARK VINA RESULT:      -9.2      1.727      2.325
REMARK  6 active torsions:
REMARK  status: ('A' for Active; 'I' for Inactive)
REMARK    1  A    between atoms: C_2  and  N_3 
REMARK    2  A    between atoms: C_2  and  C_12 
REMARK       I    between atoms: N_3  and  C_4 
REMARK    3  A    between atoms: C_4  and  C_5 
REMARK    4  A    between atoms: C_12  and  C_13 
REMARK       I    between atoms: C_13  and  N_14 
REMARK    5  A    between atoms: N_14  and  C_15 
REMARK    6  A    between atoms: C_17  and  C_18 
ROOT
HETATM    1  C   UNL     1       7.360  27.961  57.465  1.00  0.00     0.224 C 
HETATM    2  N   UNL     1       7.491  29.330  57.366  1.00  0.00    -0.327 N 
HETATM    3  O   UNL     1       7.842  27.237  58.331  1.00  0.00    -0.273 OA
HETATM    4  H   UNL     1       6.954  29.770  56.614  1.00  0.00     0.169 HD
ENDROOT
BRANCH   1   5
HETATM    5  C   UNL     1       6.490  27.375  56.364  1.00  0.00     0.128 C 
BRANCH   5   6
HETATM    6  C   UNL     1       7.370  26.799  55.240  1.00  0.00     0.089 C 
HETATM    7  C   UNL     1       7.138  27.587  53.947  1.00  0.00     0.032 C 
BRANCH   6   8
HETATM    8  N   UNL     1       7.154  25.372  54.966  1.00  0.00    -0.352 N 
HETATM    9  C   UNL     1       7.891  24.363  55.552  1.00  0.00     0.252 C 
HETATM   10  O   UNL     1       8.543  24.502  56.582  1.00  0.00    -0.268 OA
HETATM   11  H   UNL     1       6.639  25.144  54.126  1.00  0.00     0.163 HD
BRANCH   9  12
HETATM   12  C   UNL     1       7.869  23.040  54.876  1.00  0.00     0.032 A 
HETATM   13  C   UNL     1       7.974  22.924  53.484  1.00  0.00     0.017 A 
HETATM   14  C   UNL     1       8.013  21.659  52.892  1.00  0.00     0.001 A 
HETATM   15  C   UNL     1       7.955  20.513  53.686  1.00  0.00     0.000 A 
HETATM   16  C   UNL     1       7.863  20.626  55.073  1.00  0.00     0.001 A 
HETATM   17  C   UNL     1       7.827  21.887  55.669  1.00  0.00     0.017 A 
ENDBRANCH   9  12
ENDBRANCH   6   8
ENDBRANCH   5   6
ENDBRANCH   1   5
BRANCH   2  18
HETATM   18  C   UNL     1       8.203  30.215  58.195  1.00  0.00     0.035 A 
HETATM   19  C   UNL     1       7.715  30.736  59.397  1.00  0.00     0.042 A 
HETATM   20  C   UNL     1       8.489  31.624  60.165  1.00  0.00    -0.021 A 
HETATM   21  C   UNL     1       9.770  31.973  59.712  1.00  0.00     0.012 A 
HETATM   22  C   UNL     1      10.264  31.457  58.515  1.00  0.00     0.003 A 
HETATM   23  C   UNL     1       9.480  30.588  57.760  1.00  0.00     0.029 A 
BRANCH  20  24
HETATM   24  C   UNL     1       7.982  32.198  61.403  1.00  0.00     0.010 A 
HETATM   25  C   UNL     1       8.443  32.076  62.737  1.00  0.00     0.152 A 
HETATM   26  N   UNL     1       7.696  32.755  63.612  1.00  0.00    -0.187 NA
HETATM   27  N   UNL     1       6.753  33.320  62.841  1.00  0.00    -0.289 N 
HETATM   28  H   UNL     1       6.052  33.901  63.287  1.00  0.00     0.188 HD
HETATM   29  C   UNL     1       6.877  33.015  61.518  1.00  0.00     0.123 A 
ENDBRANCH  20  24
ENDBRANCH   2  18
TORSDOF 6
ENDMDL
MODEL 6
REMARK VINA RESULT:      -9.1      4.199      7.447
REMARK  6 active torsions:
REMARK  status: ('A' for Active; 'I' for Inactive)
REMARK    1  A    between atoms: C_2  and  N_3 
REMARK    2  A    between atoms: C_2  and  C_12 
REMARK       I    between atoms: N_3  and  C_4 
REMARK    3  A    between atoms: C_4  and  C_5 
REMARK    4  A    between atoms: C_12  and  C_13 
REMARK       I    between atoms: C_13  and  N_14 
REMARK    5  A    between atoms: N_14  and  C_15 
REMARK    6  A    between atoms: C_17  and  C_18 
ROOT
HETATM    1  C   UNL     1       6.002  27.763  55.069  1.00  0.00     0.224 C 
HETATM    2  N   UNL     1       5.182  27.148  54.147  1.00  0.00    -0.327 N 
HETATM    3  O   UNL     1       6.378  28.931  55.056  1.00  0.00    -0.273 OA
HETATM    4  H   UNL     1       4.917  26.184  54.367  1.00  0.00     0.169 HD
ENDROOT
BRANCH   1   5
HETATM    5  C   UNL     1       6.411  26.833  56.201  1.00  0.00     0.128 C 
BRANCH   5   6
HETATM    6  C   UNL     1       5.716  25.469  56.045  1.00  0.00     0.089 C 
HETATM    7  C   UNL     1       4.915  25.148  57.311  1.00  0.00     0.032 C 
BRANCH   6   8
HETATM    8  N   UNL     1       6.626  24.348  55.769  1.00  0.00    -0.352 N 
HETATM    9  C   UNL     1       6.941  23.918  54.496  1.00  0.00     0.252 C 
HETATM   10  O   UNL     1       6.790  24.599  53.487  1.00  0.00    -0.268 OA
HETATM   11  H   UNL     1       6.806  23.711  56.533  1.00  0.00     0.163 HD
BRANCH   9  12
HETATM   12  C   UNL     1       7.500  22.546  54.373  1.00  0.00     0.032 A 
HETATM   13  C   UNL     1       7.866  22.011  53.131  1.00  0.00     0.017 A 
HETATM   14  C   UNL     1       8.446  20.742  53.065  1.00  0.00     0.001 A 
HETATM   15  C   UNL     1       8.667  20.012  54.233  1.00  0.00     0.000 A 
HETATM   16  C   UNL     1       8.315  20.548  55.472  1.00  0.00     0.001 A 
HETATM   17  C   UNL     1       7.738  21.817  55.543  1.00  0.00     0.017 A 
ENDBRANCH   9  12
ENDBRANCH   6   8
ENDBRANCH   5   6
ENDBRANCH   1   5
BRANCH   2  18
HETATM   18  C   UNL     1       4.602  27.681  52.981  1.00  0.00     0.035 A 
HETATM   19  C   UNL     1       4.996  27.352  51.682  1.00  0.00     0.042 A 
HETATM   20  C   UNL     1       4.368  27.938  50.568  1.00  0.00    -0.021 A 
HETATM   21  C   UNL     1       3.327  28.853  50.780  1.00  0.00     0.012 A 
HETATM   22  C   UNL     1       2.928  29.186  52.073  1.00  0.00     0.003 A 
HETATM   23  C   UNL     1       3.568  28.607  53.166  1.00  0.00     0.029 A 
BRANCH  20  24
HETATM   24  C   UNL     1       4.789  27.626  49.209  1.00  0.00     0.010 A 
HETATM   25  C   UNL     1       4.551  26.483  48.406  1.00  0.00     0.152 A 
HETATM   26  N   UNL     1       5.118  26.567  47.198  1.00  0.00    -0.187 NA
HETATM   27  N   UNL     1       5.718  27.768  47.221  1.00  0.00    -0.289 N 
HETATM   28  H   UNL     1       6.226  28.067  46.395  1.00  0.00     0.188 HD
HETATM   29  C   UNL     1       5.555  28.436  48.398  1.00  0.00     0.123 A 
ENDBRANCH  20  24
ENDBRANCH   2  18
TORSDOF 6
ENDMDL
MODEL 7
REMARK VINA RESULT:      -8.9      2.403      9.016
REMARK  6 active torsions:
REMARK  status: ('A' for Active; 'I' for Inactive)
REMARK    1  A    between atoms: C_2  and  N_3 
REMARK    2  A    between atoms: C_2  and  C_12 
REMARK       I    between atoms: N_3  and  C_4 
REMARK    3  A    between atoms: C_4  and  C_5 
REMARK    4  A    between atoms: C_12  and  C_13 
REMARK       I    between atoms: C_13  and  N_14 
REMARK    5  A    between atoms: N_14  and  C_15 
REMARK    6  A    between atoms: C_17  and  C_18 
ROOT
HETATM    1  C   UNL     1       5.979  26.714  56.169  1.00  0.00     0.224 C 
HETATM    2  N   UNL     1       5.631  25.934  55.086  1.00  0.00    -0.327 N 
HETATM    3  O   UNL     1       7.104  26.867  56.634  1.00  0.00    -0.273 OA
HETATM    4  H   UNL     1       4.650  25.991  54.799  1.00  0.00     0.169 HD
ENDROOT
BRANCH   1   5
HETATM    5  C   UNL     1       4.789  27.447  56.768  1.00  0.00     0.128 C 
BRANCH   5   6
HETATM    6  C   UNL     1       5.020  28.967  56.716  1.00  0.00     0.089 C 
HETATM    7  C   UNL     1       5.512  29.369  55.322  1.00  0.00     0.032 C 
BRANCH   6   8
HETATM    8  N   UNL     1       5.973  29.475  57.714  1.00  0.00    -0.352 N 
HETATM    9  C   UNL     1       6.010  30.790  58.132  1.00  0.00     0.252 C 
HETATM   10  O   UNL     1       5.080  31.577  57.996  1.00  0.00    -0.268 OA
HETATM   11  H   UNL     1       6.790  28.906  57.890  1.00  0.00     0.163 HD
BRANCH   9  12
HETATM   12  C   UNL     1       7.263  31.247  58.788  1.00  0.00     0.032 A 
HETATM   13  C   UNL     1       7.243  32.131  59.874  1.00  0.00     0.017 A 
HETATM   14  C   UNL     1       8.439  32.487  60.503  1.00  0.00     0.001 A 
HETATM   15  C   UNL     1       9.649  31.959  60.055  1.00  0.00     0.000 A 
HETATM   16  C   UNL     1       9.671  31.068  58.981  1.00  0.00     0.001 A 
HETATM   17  C   UNL     1       8.478  30.707  58.352  1.00  0.00     0.017 A 
ENDBRANCH   9  12
ENDBRANCH   6   8
ENDBRANCH   5   6
ENDBRANCH   1   5
BRANCH   2  18
HETATM   18  C   UNL     1       6.449  25.125  54.276  1.00  0.00     0.035 A 
HETATM   19  C   UNL     1       6.875  23.840  54.620  1.00  0.00     0.042 A 
HETATM   20  C   UNL     1       7.701  23.099  53.756  1.00  0.00    -0.021 A 
HETATM   21  C   UNL     1       8.082  23.666  52.531  1.00  0.00     0.012 A 
HETATM   22  C   UNL     1       7.661  24.947  52.181  1.00  0.00     0.003 A 
HETATM   23  C   UNL     1       6.854  25.673  53.054  1.00  0.00     0.029 A 
BRANCH  20  24
HETATM   24  C   UNL     1       8.177  21.770  54.115  1.00  0.00     0.010 A 
HETATM   25  C   UNL     1       8.506  20.655  53.306  1.00  0.00     0.152 A 
HETATM   26  N   UNL     1       8.904  19.594  54.016  1.00  0.00    -0.187 NA
HETATM   27  N   UNL     1       8.837  20.028  55.284  1.00  0.00    -0.289 N 
HETATM   28  H   UNL     1       9.099  19.388  56.025  1.00  0.00     0.188 HD
HETATM   29  C   UNL     1       8.406  21.317  55.397  1.00  0.00     0.123 A 
ENDBRANCH  20  24
ENDBRANCH   2  18
TORSDOF 6
ENDMDL
MODEL 8
REMARK VINA RESULT:      -8.9      4.460      8.173
REMARK  6 active torsions:
REMARK  status: ('A' for Active; 'I' for Inactive)
REMARK    1  A    between atoms: C_2  and  N_3 
REMARK    2  A    between atoms: C_2  and  C_12 
REMARK       I    between atoms: N_3  and  C_4 
REMARK    3  A    between atoms: C_4  and  C_5 
REMARK    4  A    between atoms: C_12  and  C_13 
REMARK       I    between atoms: C_13  and  N_14 
REMARK    5  A    between atoms: N_14  and  C_15 
REMARK    6  A    between atoms: C_17  and  C_18 
ROOT
HETATM    1  C   UNL     1       5.762  27.078  54.106  1.00  0.00     0.224 C 
HETATM    2  N   UNL     1       5.755  26.125  55.102  1.00  0.00    -0.327 N 
HETATM    3  O   UNL     1       6.641  27.259  53.268  1.00  0.00    -0.273 OA
HETATM    4  H   UNL     1       4.898  26.078  55.661  1.00  0.00     0.169 HD
ENDROOT
BRANCH   1   5
HETATM    5  C   UNL     1       4.500  27.927  54.099  1.00  0.00     0.128 C 
BRANCH   5   6
HETATM    6  C   UNL     1       4.374  28.680  52.763  1.00  0.00     0.089 C 
HETATM    7  C   UNL     1       3.360  29.819  52.904  1.00  0.00     0.032 C 
BRANCH   6   8
HETATM    8  N   UNL     1       3.980  27.839  51.623  1.00  0.00    -0.352 N 
HETATM    9  C   UNL     1       4.527  27.960  50.362  1.00  0.00     0.252 C 
HETATM   10  O   UNL     1       5.599  28.510  50.131  1.00  0.00    -0.268 OA
HETATM   11  H   UNL     1       3.097  27.351  51.703  1.00  0.00     0.163 HD
BRANCH   9  12
HETATM   12  C   UNL     1       3.752  27.373  49.238  1.00  0.00     0.032 A 
HETATM   13  C   UNL     1       4.210  26.250  48.537  1.00  0.00     0.017 A 
HETATM   14  C   UNL     1       3.421  25.690  47.528  1.00  0.00     0.001 A 
HETATM   15  C   UNL     1       2.178  26.244  47.224  1.00  0.00     0.000 A 
HETATM   16  C   UNL     1       1.714  27.355  47.930  1.00  0.00     0.001 A 
HETATM   17  C   UNL     1       2.496  27.915  48.940  1.00  0.00     0.017 A 
ENDBRANCH   9  12
ENDBRANCH   6   8
ENDBRANCH   5   6
ENDBRANCH   1   5
BRANCH   2  18
HETATM   18  C   UNL     1       6.731  25.161  55.415  1.00  0.00     0.035 A 
HETATM   19  C   UNL     1       6.954  23.996  54.677  1.00  0.00     0.042 A 
HETATM   20  C   UNL     1       7.946  23.076  55.063  1.00  0.00    -0.021 A 
HETATM   21  C   UNL     1       8.722  23.354  56.198  1.00  0.00     0.012 A 
HETATM   22  C   UNL     1       8.506  24.514  56.939  1.00  0.00     0.003 A 
HETATM   23  C   UNL     1       7.510  25.408  56.551  1.00  0.00     0.029 A 
BRANCH  20  24
HETATM   24  C   UNL     1       8.170  21.844  54.321  1.00  0.00     0.010 A 
HETATM   25  C   UNL     1       8.757  20.617  54.718  1.00  0.00     0.152 A 
HETATM   26  N   UNL     1       8.790  19.712  53.735  1.00  0.00    -0.187 NA
HETATM   27  N   UNL     1       8.218  20.354  52.704  1.00  0.00    -0.289 N 
HETATM   28  H   UNL     1       8.124  19.860  51.823  1.00  0.00     0.188 HD
HETATM   29  C   UNL     1       7.835  21.628  53.000  1.00  0.00     0.123 A 
ENDBRANCH  20  24
ENDBRANCH   2  18
TORSDOF 6
ENDMDL
MODEL 9
REMARK VINA RESULT:      -8.6      2.614      4.111
REMARK  6 active torsions:
REMARK  status: ('A' for Active; 'I' for Inactive)
REMARK    1  A    between atoms: C_2  and  N_3 
REMARK    2  A    between atoms: C_2  and  C_12 
REMARK       I    between atoms: N_3  and  C_4 
REMARK    3  A    between atoms: C_4  and  C_5 
REMARK    4  A    between atoms: C_12  and  C_13 
REMARK       I    between atoms: C_13  and  N_14 
REMARK    5  A    between atoms: N_14  and  C_15 
REMARK    6  A    between atoms: C_17  and  C_18 
ROOT
HETATM    1  C   UNL     1       6.661  30.443  58.027  1.00  0.00     0.224 C 
HETATM    2  N   UNL     1       7.418  30.050  59.110  1.00  0.00    -0.327 N 
HETATM    3  O   UNL     1       6.326  31.588  57.741  1.00  0.00    -0.273 OA
HETATM    4  H   UNL     1       7.659  29.055  59.141  1.00  0.00     0.169 HD
ENDROOT
BRANCH   1   5
HETATM    5  C   UNL     1       6.271  29.277  57.132  1.00  0.00     0.128 C 
BRANCH   5   6
HETATM    6  C   UNL     1       7.499  28.399  56.837  1.00  0.00     0.089 C 
HETATM    7  C   UNL     1       8.466  29.152  55.918  1.00  0.00     0.032 C 
BRANCH   6   8
HETATM    8  N   UNL     1       7.188  27.098  56.226  1.00  0.00    -0.352 N 
HETATM    9  C   UNL     1       7.771  25.911  56.621  1.00  0.00     0.252 C 
HETATM   10  O   UNL     1       8.325  25.749  57.703  1.00  0.00    -0.268 OA
HETATM   11  H   UNL     1       6.743  27.119  55.318  1.00  0.00     0.163 HD
BRANCH   9  12
HETATM   12  C   UNL     1       7.702  24.780  55.660  1.00  0.00     0.032 A 
HETATM   13  C   UNL     1       7.703  24.992  54.275  1.00  0.00     0.017 A 
HETATM   14  C   UNL     1       7.701  23.899  53.405  1.00  0.00     0.001 A 
HETATM   15  C   UNL     1       7.704  22.600  53.912  1.00  0.00     0.000 A 
HETATM   16  C   UNL     1       7.715  22.387  55.291  1.00  0.00     0.001 A 
HETATM   17  C   UNL     1       7.721  23.475  56.164  1.00  0.00     0.017 A 
ENDBRANCH   9  12
ENDBRANCH   6   8
ENDBRANCH   5   6
ENDBRANCH   1   5
BRANCH   2  18
HETATM   18  C   UNL     1       7.965  30.835  60.142  1.00  0.00     0.035 A 
HETATM   19  C   UNL     1       7.236  31.333  61.225  1.00  0.00     0.042 A 
HETATM   20  C   UNL     1       7.858  32.119  62.212  1.00  0.00    -0.021 A 
HETATM   21  C   UNL     1       9.230  32.386  62.100  1.00  0.00     0.012 A 
HETATM   22  C   UNL     1       9.963  31.892  61.024  1.00  0.00     0.003 A 
HETATM   23  C   UNL     1       9.330  31.126  60.048  1.00  0.00     0.029 A 
BRANCH  20  24
HETATM   24  C   UNL     1       7.104  32.670  63.330  1.00  0.00     0.010 A 
HETATM   25  C   UNL     1       7.542  33.307  64.517  1.00  0.00     0.152 A 
HETATM   26  N   UNL     1       6.534  33.671  65.316  1.00  0.00    -0.187 NA
HETATM   27  N   UNL     1       5.444  33.273  64.640  1.00  0.00    -0.289 N 
HETATM   28  H   UNL     1       4.534  33.446  65.053  1.00  0.00     0.188 HD
HETATM   29  C   UNL     1       5.731  32.667  63.452  1.00  0.00     0.123 A 
ENDBRANCH  20  24
ENDBRANCH   2  18
TORSDOF 6
ENDMDL
MODEL 10
REMARK VINA RESULT:      -8.2      2.716      7.415
REMARK  6 active torsions:
REMARK  status: ('A' for Active; 'I' for Inactive)
REMARK    1  A    between atoms: C_2  and  N_3 
REMARK    2  A    between atoms: C_2  and  C_12 
REMARK       I    between atoms: N_3  and  C_4 
REMARK    3  A    between atoms: C_4  and  C_5 
REMARK    4  A    between atoms: C_12  and  C_13 
REMARK       I    between atoms: C_13  and  N_14 
REMARK    5  A    between atoms: N_14  and  C_15 
REMARK    6  A    between atoms: C_17  and  C_18 
ROOT
HETATM    1  C   UNL     1       4.728  28.740  53.379  1.00  0.00     0.224 C 
HETATM    2  N   UNL     1       4.495  27.528  53.992  1.00  0.00    -0.327 N 
HETATM    3  O   UNL     1       5.596  28.990  52.548  1.00  0.00    -0.273 OA
HETATM    4  H   UNL     1       3.675  27.494  54.605  1.00  0.00     0.169 HD
ENDROOT
BRANCH   1   5
HETATM    5  C   UNL     1       3.744  29.815  53.815  1.00  0.00     0.128 C 
BRANCH   5   6
HETATM    6  C   UNL     1       4.257  30.525  55.079  1.00  0.00     0.089 C 
HETATM    7  C   UNL     1       3.978  32.028  54.980  1.00  0.00     0.032 C 
BRANCH   6   8
HETATM    8  N   UNL     1       5.688  30.330  55.351  1.00  0.00    -0.352 N 
HETATM    9  C   UNL     1       6.170  29.509  56.350  1.00  0.00     0.252 C 
HETATM   10  O   UNL     1       5.515  28.616  56.876  1.00  0.00    -0.268 OA
HETATM   11  H   UNL     1       6.320  31.025  54.974  1.00  0.00     0.163 HD
BRANCH   9  12
HETATM   12  C   UNL     1       7.572  29.740  56.787  1.00  0.00     0.032 A 
HETATM   13  C   UNL     1       7.868  30.319  58.028  1.00  0.00     0.017 A 
HETATM   14  C   UNL     1       9.198  30.461  58.429  1.00  0.00     0.001 A 
HETATM   15  C   UNL     1      10.230  30.022  57.600  1.00  0.00     0.000 A 
HETATM   16  C   UNL     1       9.937  29.433  56.369  1.00  0.00     0.001 A 
HETATM   17  C   UNL     1       8.609  29.285  55.966  1.00  0.00     0.017 A 
ENDBRANCH   9  12
ENDBRANCH   6   8
ENDBRANCH   5   6
ENDBRANCH   1   5
BRANCH   2  18
HETATM   18  C   UNL     1       5.183  26.310  53.840  1.00  0.00     0.035 A 
HETATM   19  C   UNL     1       5.885  25.667  54.863  1.00  0.00     0.042 A 
HETATM   20  C   UNL     1       6.555  24.453  54.625  1.00  0.00    -0.021 A 
HETATM   21  C   UNL     1       6.498  23.888  53.343  1.00  0.00     0.012 A 
HETATM   22  C   UNL     1       5.800  24.523  52.318  1.00  0.00     0.003 A 
HETATM   23  C   UNL     1       5.152  25.731  52.566  1.00  0.00     0.029 A 
BRANCH  20  24
HETATM   24  C   UNL     1       7.315  23.788  55.674  1.00  0.00     0.010 A 
HETATM   25  C   UNL     1       7.823  22.467  55.753  1.00  0.00     0.152 A 
HETATM   26  N   UNL     1       8.470  22.226  56.897  1.00  0.00    -0.187 NA
HETATM   27  N   UNL     1       8.383  23.393  57.555  1.00  0.00    -0.289 N 
HETATM   28  H   UNL     1       8.812  23.461  58.471  1.00  0.00     0.188 HD
HETATM   29  C   UNL     1       7.701  24.355  56.870  1.00  0.00     0.123 A 
ENDBRANCH  20  24
ENDBRANCH   2  18
TORSDOF 6
ENDMDL
