MODEL 1
REMARK VINA RESULT:      -9.4      0.000      0.000
REMARK  8 active torsions:
REMARK  status: ('A' for Active; 'I' for Inactive)
REMARK    1  A    between atoms: C_2  and  O_3 
REMARK    2  A    between atoms: O_3  and  C_4 
REMARK    3  A    between atoms: C_4  and  C_5 
REMARK    4  A    between atoms: C_6  and  C_8 
REMARK    5  A    between atoms: C_6  and  O_7 
REMARK    6  A    between atoms: C_16  and  C_17 
REMARK    7  A    between atoms: C_18  and  C_19 
REMARK    8  A    between atoms: N_26  and  C_27 
ROOT
HETATM    1  C   UNL     1       7.088  28.984  55.597  1.00  0.00     0.177 C 
HETATM    2  C   UNL     1       7.963  29.218  56.854  1.00  0.00     0.250 C 
HETATM    3  N   UNL     1       7.752  28.129  57.784  1.00  0.00    -0.303 N 
HETATM    4  C   UNL     1       7.710  26.830  57.385  1.00  0.00     0.319 C 
HETATM    5  O   UNL     1       7.840  25.915  58.183  1.00  0.00    -0.247 OA
HETATM    6  N   UNL     1       7.465  26.607  56.067  1.00  0.00    -0.333 N 
HETATM    7  C   UNL     1       7.482  27.619  55.028  1.00  0.00     0.142 C 
HETATM    8  H   UNL     1       8.035  28.265  58.747  1.00  0.00     0.167 HD
HETATM    9  H   UNL     1       7.496  25.625  55.815  1.00  0.00     0.165 HD
ENDROOT
BRANCH   7  10
HETATM   10  C   UNL     1       6.784  27.134  53.783  1.00  0.00     0.015 A 
HETATM   11  C   UNL     1       6.693  25.788  53.293  1.00  0.00     0.097 A 
HETATM   12  N   UNL     1       5.973  25.726  52.167  1.00  0.00    -0.167 NA
HETATM   13  N   UNL     1       5.621  26.995  51.879  1.00  0.00    -0.244 N 
HETATM   14  C   UNL     1       6.140  27.873  52.806  1.00  0.00     0.130 A 
BRANCH  11  15
HETATM   15  C   UNL     1       7.243  24.559  53.865  1.00  0.00    -0.005 A 
HETATM   16  C   UNL     1       8.238  23.856  53.171  1.00  0.00     0.014 A 
HETATM   17  C   UNL     1       8.767  22.674  53.694  1.00  0.00     0.001 A 
HETATM   18  C   UNL     1       8.308  22.186  54.916  1.00  0.00     0.000 A 
HETATM   19  C   UNL     1       7.330  22.885  55.621  1.00  0.00     0.001 A 
HETATM   20  C   UNL     1       6.805  24.071  55.103  1.00  0.00     0.014 A 
ENDBRANCH  11  15
BRANCH  13  21
HETATM   21  C   UNL     1       4.816  27.288  50.742  1.00  0.00     0.058 A 
HETATM   22  C   UNL     1       4.168  28.531  50.662  1.00  0.00     0.031 A 
HETATM   23  C   UNL     1       3.378  28.846  49.554  1.00  0.00     0.002 A 
HETATM   24  C   UNL     1       3.233  27.926  48.519  1.00  0.00     0.000 A 
HETATM   25  C   UNL     1       3.875  26.691  48.588  1.00  0.00     0.002 A 
HETATM   26  C   UNL     1       4.665  26.367  49.695  1.00  0.00     0.031 A 
ENDBRANCH  13  21
ENDBRANCH   7  10
BRANCH   1  27
HETATM   27  C   UNL     1       5.634  29.136  56.004  1.00  0.00     0.270 C 
HETATM   28  O   UNL     1       4.984  28.174  56.409  1.00  0.00    -0.265 OA
BRANCH  27  29
HETATM   29  O   UNL     1       5.118  30.374  55.835  1.00  0.00    -0.321 OA
BRANCH  29  30
HETATM   30  C   UNL     1       3.744  30.452  55.423  1.00  0.00     0.174 C 
HETATM   31  C   UNL     1       3.641  30.401  53.910  1.00  0.00     0.034 C 
ENDBRANCH  29  30
ENDBRANCH  27  29
ENDBRANCH   1  27
BRANCH   2  32
HETATM   32  C   UNL     1       9.488  29.372  56.462  1.00  0.00     0.439 C 
HETATM   33  F   UNL     1      10.011  30.503  56.996  1.00  0.00    -0.166 F 
HETATM   34  F   UNL     1      10.225  28.327  56.909  1.00  0.00    -0.166 F 
HETATM   35  F   UNL     1       9.688  29.438  55.127  1.00  0.00    -0.166 F 
ENDBRANCH   2  32
BRANCH   2  36
HETATM   36  O   UNL     1       7.595  30.402  57.577  1.00  0.00    -0.363 OA
HETATM   37  H   UNL     1       6.685  30.308  57.921  1.00  0.00     0.213 HD
ENDBRANCH   2  36
TORSDOF 8
ENDMDL
MODEL 2
REMARK VINA RESULT:      -9.4      1.606      2.073
REMARK  8 active torsions:
REMARK  status: ('A' for Active; 'I' for Inactive)
REMARK    1  A    between atoms: C_2  and  O_3 
REMARK    2  A    between atoms: O_3  and  C_4 
REMARK    3  A    between atoms: C_4  and  C_5 
REMARK    4  A    between atoms: C_6  and  C_8 
REMARK    5  A    between atoms: C_6  and  O_7 
REMARK    6  A    between atoms: C_16  and  C_17 
REMARK    7  A    between atoms: C_18  and  C_19 
REMARK    8  A    between atoms: N_26  and  C_27 
ROOT
HETATM    1  C   UNL     1       6.045  28.319  55.537  1.00  0.00     0.177 C 
HETATM    2  C   UNL     1       6.188  28.282  57.080  1.00  0.00     0.250 C 
HETATM    3  N   UNL     1       5.217  27.355  57.621  1.00  0.00    -0.303 N 
HETATM    4  C   UNL     1       4.990  26.135  57.066  1.00  0.00     0.319 C 
HETATM    5  O   UNL     1       4.413  25.252  57.683  1.00  0.00    -0.247 OA
HETATM    6  N   UNL     1       5.390  25.968  55.778  1.00  0.00    -0.333 N 
HETATM    7  C   UNL     1       6.236  26.885  55.038  1.00  0.00     0.142 C 
HETATM    8  H   UNL     1       5.000  27.415  58.608  1.00  0.00     0.167 HD
HETATM    9  H   UNL     1       5.244  25.026  55.432  1.00  0.00     0.165 HD
ENDROOT
BRANCH   7  10
HETATM   10  C   UNL     1       6.154  26.627  53.555  1.00  0.00     0.015 A 
HETATM   11  C   UNL     1       6.665  25.500  52.829  1.00  0.00     0.097 A 
HETATM   12  N   UNL     1       6.389  25.593  51.523  1.00  0.00    -0.167 NA
HETATM   13  N   UNL     1       5.744  26.767  51.362  1.00  0.00    -0.244 N 
HETATM   14  C   UNL     1       5.634  27.438  52.561  1.00  0.00     0.130 A 
BRANCH  11  15
HETATM   15  C   UNL     1       7.387  24.330  53.329  1.00  0.00    -0.005 A 
HETATM   16  C   UNL     1       8.083  24.411  54.543  1.00  0.00     0.014 A 
HETATM   17  C   UNL     1       8.789  23.308  55.031  1.00  0.00     0.001 A 
HETATM   18  C   UNL     1       8.803  22.116  54.311  1.00  0.00     0.000 A 
HETATM   19  C   UNL     1       8.101  22.020  53.110  1.00  0.00     0.001 A 
HETATM   20  C   UNL     1       7.389  23.119  52.624  1.00  0.00     0.014 A 
ENDBRANCH  11  15
BRANCH  13  21
HETATM   21  C   UNL     1       5.277  27.173  50.080  1.00  0.00     0.058 A 
HETATM   22  C   UNL     1       4.548  26.265  49.296  1.00  0.00     0.031 A 
HETATM   23  C   UNL     1       4.072  26.640  48.038  1.00  0.00     0.002 A 
HETATM   24  C   UNL     1       4.318  27.923  47.555  1.00  0.00     0.000 A 
HETATM   25  C   UNL     1       5.040  28.832  48.328  1.00  0.00     0.002 A 
HETATM   26  C   UNL     1       5.521  28.463  49.587  1.00  0.00     0.031 A 
ENDBRANCH  13  21
ENDBRANCH   7  10
BRANCH   1  27
HETATM   27  C   UNL     1       4.711  28.962  55.206  1.00  0.00     0.270 C 
HETATM   28  O   UNL     1       3.665  28.320  55.265  1.00  0.00    -0.265 OA
BRANCH  27  29
HETATM   29  O   UNL     1       4.781  30.250  54.802  1.00  0.00    -0.321 OA
BRANCH  29  30
HETATM   30  C   UNL     1       3.634  30.776  54.115  1.00  0.00     0.174 C 
HETATM   31  C   UNL     1       3.833  30.698  52.613  1.00  0.00     0.034 C 
ENDBRANCH  29  30
ENDBRANCH  27  29
ENDBRANCH   1  27
BRANCH   2  32
HETATM   32  C   UNL     1       7.664  27.903  57.503  1.00  0.00     0.439 C 
HETATM   33  F   UNL     1       8.523  28.077  56.468  1.00  0.00    -0.166 F 
HETATM   34  F   UNL     1       8.100  28.668  58.532  1.00  0.00    -0.166 F 
HETATM   35  F   UNL     1       7.788  26.618  57.904  1.00  0.00    -0.166 F 
ENDBRANCH   2  32
BRANCH   2  36
HETATM   36  O   UNL     1       5.885  29.541  57.699  1.00  0.00    -0.363 OA
HETATM   37  H   UNL     1       6.012  30.264  57.053  1.00  0.00     0.213 HD
ENDBRANCH   2  36
TORSDOF 8
ENDMDL
MODEL 3
REMARK VINA RESULT:      -9.3      3.007      6.557
REMARK  8 active torsions:
REMARK  status: ('A' for Active; 'I' for Inactive)
REMARK    1  A    between atoms: C_2  and  O_3 
REMARK    2  A    between atoms: O_3  and  C_4 
REMARK    3  A    between atoms: C_4  and  C_5 
REMARK    4  A    between atoms: C_6  and  C_8 
REMARK    5  A    between atoms: C_6  and  O_7 
REMARK    6  A    between atoms: C_16  and  C_17 
REMARK    7  A    between atoms: C_18  and  C_19 
REMARK    8  A    between atoms: N_26  and  C_27 
ROOT
HETATM    1  C   UNL     1       4.847  27.548  54.402  1.00  0.00     0.177 C 
HETATM    2  C   UNL     1       4.337  27.225  52.975  1.00  0.00     0.250 C 
HETATM    3  N   UNL     1       4.690  28.315  52.090  1.00  0.00    -0.303 N 
HETATM    4  C   UNL     1       5.919  28.897  52.110  1.00  0.00     0.319 C 
HETATM    5  O   UNL     1       6.311  29.586  51.181  1.00  0.00    -0.247 OA
HETATM    6  N   UNL     1       6.661  28.713  53.233  1.00  0.00    -0.333 N 
HETATM    7  C   UNL     1       6.357  27.772  54.295  1.00  0.00     0.142 C 
HETATM    8  H   UNL     1       4.205  28.384  51.204  1.00  0.00     0.167 HD
HETATM    9  H   UNL     1       7.586  29.125  53.173  1.00  0.00     0.165 HD
ENDROOT
BRANCH   7  10
HETATM   10  C   UNL     1       7.123  28.100  55.550  1.00  0.00     0.015 A 
HETATM   11  C   UNL     1       7.779  27.190  56.444  1.00  0.00     0.097 A 
HETATM   12  N   UNL     1       8.382  27.838  57.447  1.00  0.00    -0.167 NA
HETATM   13  N   UNL     1       8.110  29.146  57.262  1.00  0.00    -0.244 N 
HETATM   14  C   UNL     1       7.309  29.331  56.156  1.00  0.00     0.130 A 
BRANCH  11  15
HETATM   15  C   UNL     1       7.873  25.731  56.371  1.00  0.00    -0.005 A 
HETATM   16  C   UNL     1       8.530  25.026  57.388  1.00  0.00     0.014 A 
HETATM   17  C   UNL     1       8.641  23.635  57.329  1.00  0.00     0.001 A 
HETATM   18  C   UNL     1       8.094  22.937  56.254  1.00  0.00     0.000 A 
HETATM   19  C   UNL     1       7.425  23.627  55.245  1.00  0.00     0.001 A 
HETATM   20  C   UNL     1       7.307  25.018  55.306  1.00  0.00     0.014 A 
ENDBRANCH  11  15
BRANCH  13  21
HETATM   21  C   UNL     1       8.629  30.131  58.148  1.00  0.00     0.058 A 
HETATM   22  C   UNL     1       7.894  30.480  59.293  1.00  0.00     0.031 A 
HETATM   23  C   UNL     1       8.384  31.439  60.182  1.00  0.00     0.002 A 
HETATM   24  C   UNL     1       9.610  32.054  59.938  1.00  0.00     0.000 A 
HETATM   25  C   UNL     1      10.347  31.712  58.805  1.00  0.00     0.002 A 
HETATM   26  C   UNL     1       9.862  30.755  57.909  1.00  0.00     0.031 A 
ENDBRANCH  13  21
ENDBRANCH   7  10
BRANCH   1  27
HETATM   27  C   UNL     1       4.041  28.719  54.934  1.00  0.00     0.270 C 
HETATM   28  O   UNL     1       3.631  29.600  54.182  1.00  0.00    -0.265 OA
BRANCH  27  29
HETATM   29  O   UNL     1       3.866  28.732  56.274  1.00  0.00    -0.321 OA
BRANCH  29  30
HETATM   30  C   UNL     1       3.388  29.958  56.852  1.00  0.00     0.174 C 
HETATM   31  C   UNL     1       4.405  30.514  57.831  1.00  0.00     0.034 C 
ENDBRANCH  29  30
ENDBRANCH  27  29
ENDBRANCH   1  27
BRANCH   2  32
HETATM   32  C   UNL     1       4.912  25.842  52.467  1.00  0.00     0.439 C 
HETATM   33  F   UNL     1       4.534  24.831  53.288  1.00  0.00    -0.166 F 
HETATM   34  F   UNL     1       4.471  25.546  51.220  1.00  0.00    -0.166 F 
HETATM   35  F   UNL     1       6.262  25.818  52.410  1.00  0.00    -0.166 F 
ENDBRANCH   2  32
BRANCH   2  36
HETATM   36  O   UNL     1       2.906  27.136  52.901  1.00  0.00    -0.363 OA
HETATM   37  H   UNL     1       2.521  28.034  52.874  1.00  0.00     0.213 HD
ENDBRANCH   2  36
TORSDOF 8
ENDMDL
MODEL 4
REMARK VINA RESULT:      -9.1      2.294      5.743
REMARK  8 active torsions:
REMARK  status: ('A' for Active; 'I' for Inactive)
REMARK    1  A    between atoms: C_2  and  O_3 
REMARK    2  A    between atoms: O_3  and  C_4 
REMARK    3  A    between atoms: C_4  and  C_5 
REMARK    4  A    between atoms: C_6  and  C_8 
REMARK    5  A    between atoms: C_6  and  O_7 
REMARK    6  A    between atoms: C_16  and  C_17 
REMARK    7  A    between atoms: C_18  and  C_19 
REMARK    8  A    between atoms: N_26  and  C_27 
ROOT
HETATM    1  C   UNL     1       5.105  27.358  55.839  1.00  0.00     0.177 C 
HETATM    2  C   UNL     1       4.981  28.843  56.266  1.00  0.00     0.250 C 
HETATM    3  N   UNL     1       6.295  29.344  56.609  1.00  0.00    -0.303 N 
HETATM    4  C   UNL     1       7.392  29.086  55.850  1.00  0.00     0.319 C 
HETATM    5  O   UNL     1       8.414  29.747  55.963  1.00  0.00    -0.247 OA
HETATM    6  N   UNL     1       7.310  28.028  55.002  1.00  0.00    -0.333 N 
HETATM    7  C   UNL     1       6.092  27.311  54.671  1.00  0.00     0.142 C 
HETATM    8  H   UNL     1       6.351  30.196  57.155  1.00  0.00     0.167 HD
HETATM    9  H   UNL     1       8.136  27.912  54.424  1.00  0.00     0.165 HD
ENDROOT
BRANCH   7  10
HETATM   10  C   UNL     1       6.400  25.974  54.046  1.00  0.00     0.015 A 
HETATM   11  C   UNL     1       6.197  25.572  52.684  1.00  0.00     0.097 A 
HETATM   12  N   UNL     1       6.607  24.315  52.479  1.00  0.00    -0.167 NA
HETATM   13  N   UNL     1       7.039  23.865  53.674  1.00  0.00    -0.244 N 
HETATM   14  C   UNL     1       6.877  24.824  54.651  1.00  0.00     0.130 A 
BRANCH  11  15
HETATM   15  C   UNL     1       5.648  26.341  51.567  1.00  0.00    -0.005 A 
HETATM   16  C   UNL     1       4.965  25.680  50.538  1.00  0.00     0.014 A 
HETATM   17  C   UNL     1       4.445  26.395  49.456  1.00  0.00     0.001 A 
HETATM   18  C   UNL     1       4.602  27.779  49.397  1.00  0.00     0.000 A 
HETATM   19  C   UNL     1       5.266  28.448  50.423  1.00  0.00     0.001 A 
HETATM   20  C   UNL     1       5.781  27.735  51.508  1.00  0.00     0.014 A 
ENDBRANCH  11  15
BRANCH  13  21
HETATM   21  C   UNL     1       7.575  22.553  53.809  1.00  0.00     0.058 A 
HETATM   22  C   UNL     1       7.745  22.009  55.092  1.00  0.00     0.031 A 
HETATM   23  C   UNL     1       8.262  20.722  55.251  1.00  0.00     0.002 A 
HETATM   24  C   UNL     1       8.610  19.968  54.133  1.00  0.00     0.000 A 
HETATM   25  C   UNL     1       8.442  20.499  52.854  1.00  0.00     0.002 A 
HETATM   26  C   UNL     1       7.927  21.788  52.687  1.00  0.00     0.031 A 
ENDBRANCH  13  21
ENDBRANCH   7  10
BRANCH   1  27
HETATM   27  C   UNL     1       5.490  26.549  57.064  1.00  0.00     0.270 C 
HETATM   28  O   UNL     1       4.680  25.806  57.614  1.00  0.00    -0.265 OA
BRANCH  27  29
HETATM   29  O   UNL     1       6.748  26.754  57.513  1.00  0.00    -0.321 OA
BRANCH  29  30
HETATM   30  C   UNL     1       7.429  25.617  58.070  1.00  0.00     0.174 C 
HETATM   31  C   UNL     1       8.745  25.384  57.352  1.00  0.00     0.034 C 
ENDBRANCH  29  30
ENDBRANCH  27  29
ENDBRANCH   1  27
BRANCH   2  32
HETATM   32  C   UNL     1       4.299  29.704  55.129  1.00  0.00     0.439 C 
HETATM   33  F   UNL     1       3.680  28.906  54.224  1.00  0.00    -0.166 F 
HETATM   34  F   UNL     1       3.370  30.551  55.633  1.00  0.00    -0.166 F 
HETATM   35  F   UNL     1       5.179  30.468  54.442  1.00  0.00    -0.166 F 
ENDBRANCH   2  32
BRANCH   2  36
HETATM   36  O   UNL     1       4.194  29.018  57.454  1.00  0.00    -0.363 OA
HETATM   37  H   UNL     1       4.783  29.109  58.228  1.00  0.00     0.213 HD
ENDBRANCH   2  36
TORSDOF 8
ENDMDL
MODEL 5
REMARK VINA RESULT:      -8.8      8.036     10.009
REMARK  8 active torsions:
REMARK  status: ('A' for Active; 'I' for Inactive)
REMARK    1  A    between atoms: C_2  and  O_3 
REMARK    2  A    between atoms: O_3  and  C_4 
REMARK    3  A    between atoms: C_4  and  C_5 
REMARK    4  A    between atoms: C_6  and  C_8 
REMARK    5  A    between atoms: C_6  and  O_7 
REMARK    6  A    between atoms: C_16  and  C_17 
REMARK    7  A    between atoms: C_18  and  C_19 
REMARK    8  A    between atoms: N_26  and  C_27 
ROOT
HETATM    1  C   UNL     1       5.442  34.840  62.723  1.00  0.00     0.177 C 
HETATM    2  C   UNL     1       5.027  34.843  64.216  1.00  0.00     0.250 C 
HETATM    3  N   UNL     1       3.582  34.864  64.303  1.00  0.00    -0.303 N 
HETATM    4  C   UNL     1       2.795  34.078  63.521  1.00  0.00     0.319 C 
HETATM    5  O   UNL     1       1.624  33.871  63.800  1.00  0.00    -0.247 OA
HETATM    6  N   UNL     1       3.365  33.580  62.392  1.00  0.00    -0.333 N 
HETATM    7  C   UNL     1       4.781  33.620  62.079  1.00  0.00     0.142 C 
HETATM    8  H   UNL     1       3.162  35.136  65.184  1.00  0.00     0.167 HD
HETATM    9  H   UNL     1       2.751  32.960  61.874  1.00  0.00     0.165 HD
ENDROOT
BRANCH   7  10
HETATM   10  C   UNL     1       5.022  33.365  60.613  1.00  0.00     0.015 A 
HETATM   11  C   UNL     1       6.163  32.743  60.004  1.00  0.00     0.097 A 
HETATM   12  N   UNL     1       6.026  32.662  58.676  1.00  0.00    -0.167 NA
HETATM   13  N   UNL     1       4.845  33.247  58.388  1.00  0.00    -0.244 N 
HETATM   14  C   UNL     1       4.241  33.728  59.529  1.00  0.00     0.130 A 
BRANCH  11  15
HETATM   15  C   UNL     1       7.368  32.205  60.637  1.00  0.00    -0.005 A 
HETATM   16  C   UNL     1       8.621  32.434  60.053  1.00  0.00     0.014 A 
HETATM   17  C   UNL     1       9.780  31.917  60.635  1.00  0.00     0.001 A 
HETATM   18  C   UNL     1       9.697  31.169  61.807  1.00  0.00     0.000 A 
HETATM   19  C   UNL     1       8.458  30.948  62.405  1.00  0.00     0.001 A 
HETATM   20  C   UNL     1       7.298  31.470  61.828  1.00  0.00     0.014 A 
ENDBRANCH  11  15
BRANCH  13  21
HETATM   21  C   UNL     1       4.371  33.311  57.047  1.00  0.00     0.058 A 
HETATM   22  C   UNL     1       3.453  32.349  56.597  1.00  0.00     0.031 A 
HETATM   23  C   UNL     1       2.967  32.393  55.288  1.00  0.00     0.002 A 
HETATM   24  C   UNL     1       3.391  33.398  54.422  1.00  0.00     0.000 A 
HETATM   25  C   UNL     1       4.301  34.359  54.861  1.00  0.00     0.002 A 
HETATM   26  C   UNL     1       4.793  34.320  56.169  1.00  0.00     0.031 A 
ENDBRANCH  13  21
ENDBRANCH   7  10
BRANCH   1  27
HETATM   27  C   UNL     1       5.065  36.186  62.130  1.00  0.00     0.270 C 
HETATM   28  O   UNL     1       3.939  36.391  61.685  1.00  0.00    -0.265 OA
BRANCH  27  29
HETATM   29  O   UNL     1       6.066  37.094  62.090  1.00  0.00    -0.321 OA
BRANCH  29  30
HETATM   30  C   UNL     1       5.706  38.466  62.323  1.00  0.00     0.174 C 
HETATM   31  C   UNL     1       6.512  39.037  63.474  1.00  0.00     0.034 C 
ENDBRANCH  29  30
ENDBRANCH  27  29
ENDBRANCH   1  27
BRANCH   2  32
HETATM   32  C   UNL     1       5.645  33.603  64.978  1.00  0.00     0.439 C 
HETATM   33  F   UNL     1       6.997  33.694  65.030  1.00  0.00    -0.166 F 
HETATM   34  F   UNL     1       5.189  33.521  66.251  1.00  0.00    -0.166 F 
HETATM   35  F   UNL     1       5.354  32.420  64.391  1.00  0.00    -0.166 F 
ENDBRANCH   2  32
BRANCH   2  36
HETATM   36  O   UNL     1       5.458  36.021  64.913  1.00  0.00    -0.363 OA
HETATM   37  H   UNL     1       4.684  36.577  65.132  1.00  0.00     0.213 HD
ENDBRANCH   2  36
TORSDOF 8
ENDMDL
MODEL 6
REMARK VINA RESULT:      -8.5      4.392      7.859
REMARK  8 active torsions:
REMARK  status: ('A' for Active; 'I' for Inactive)
REMARK    1  A    between atoms: C_2  and  O_3 
REMARK    2  A    between atoms: O_3  and  C_4 
REMARK    3  A    between atoms: C_4  and  C_5 
REMARK    4  A    between atoms: C_6  and  C_8 
REMARK    5  A    between atoms: C_6  and  O_7 
REMARK    6  A    between atoms: C_16  and  C_17 
REMARK    7  A    between atoms: C_18  and  C_19 
REMARK    8  A    between atoms: N_26  and  C_27 
ROOT
HETATM    1  C   UNL     1       4.185  28.727  50.037  1.00  0.00     0.177 C 
HETATM    2  C   UNL     1       3.178  28.937  48.878  1.00  0.00     0.250 C 
HETATM    3  N   UNL     1       3.426  27.944  47.854  1.00  0.00    -0.303 N 
HETATM    4  C   UNL     1       3.651  26.636  48.150  1.00  0.00     0.319 C 
HETATM    5  O   UNL     1       3.554  25.765  47.298  1.00  0.00    -0.247 OA
HETATM    6  N   UNL     1       4.038  26.358  49.422  1.00  0.00    -0.333 N 
HETATM    7  C   UNL     1       4.001  27.292  50.533  1.00  0.00     0.142 C 
HETATM    8  H   UNL     1       3.044  28.107  46.930  1.00  0.00     0.167 HD
HETATM    9  H   UNL     1       4.141  25.365  49.601  1.00  0.00     0.165 HD
ENDROOT
BRANCH   7  10
HETATM   10  C   UNL     1       4.859  26.813  51.676  1.00  0.00     0.015 A 
HETATM   11  C   UNL     1       5.022  27.417  52.967  1.00  0.00     0.097 A 
HETATM   12  N   UNL     1       5.847  26.702  53.740  1.00  0.00    -0.167 NA
HETATM   13  N   UNL     1       6.263  25.666  52.984  1.00  0.00    -0.244 N 
HETATM   14  C   UNL     1       5.726  25.735  51.716  1.00  0.00     0.130 A 
BRANCH  11  15
HETATM   15  C   UNL     1       4.409  28.633  53.500  1.00  0.00    -0.005 A 
HETATM   16  C   UNL     1       4.202  28.758  54.881  1.00  0.00     0.014 A 
HETATM   17  C   UNL     1       3.605  29.906  55.408  1.00  0.00     0.001 A 
HETATM   18  C   UNL     1       3.214  30.940  54.559  1.00  0.00     0.000 A 
HETATM   19  C   UNL     1       3.429  30.833  53.187  1.00  0.00     0.001 A 
HETATM   20  C   UNL     1       4.032  29.688  52.659  1.00  0.00     0.014 A 
ENDBRANCH  11  15
BRANCH  13  21
HETATM   21  C   UNL     1       7.144  24.682  53.515  1.00  0.00     0.058 A 
HETATM   22  C   UNL     1       7.568  24.789  54.849  1.00  0.00     0.031 A 
HETATM   23  C   UNL     1       8.426  23.833  55.397  1.00  0.00     0.002 A 
HETATM   24  C   UNL     1       8.864  22.764  54.619  1.00  0.00     0.000 A 
HETATM   25  C   UNL     1       8.446  22.648  53.294  1.00  0.00     0.002 A 
HETATM   26  C   UNL     1       7.589  23.603  52.739  1.00  0.00     0.031 A 
ENDBRANCH  13  21
ENDBRANCH   7  10
BRANCH   1  27
HETATM   27  C   UNL     1       5.570  29.078  49.524  1.00  0.00     0.270 C 
HETATM   28  O   UNL     1       6.080  28.453  48.597  1.00  0.00    -0.265 OA
BRANCH  27  29
HETATM   29  O   UNL     1       6.194  30.073  50.193  1.00  0.00    -0.321 OA
BRANCH  29  30
HETATM   30  C   UNL     1       6.180  31.373  49.579  1.00  0.00     0.174 C 
HETATM   31  C   UNL     1       5.581  32.398  50.524  1.00  0.00     0.034 C 
ENDBRANCH  29  30
ENDBRANCH  27  29
ENDBRANCH   1  27
BRANCH   2  32
HETATM   32  C   UNL     1       1.688  28.882  49.404  1.00  0.00     0.439 C 
HETATM   33  F   UNL     1       0.952  29.891  48.875  1.00  0.00    -0.166 F 
HETATM   34  F   UNL     1       1.085  27.715  49.073  1.00  0.00    -0.166 F 
HETATM   35  F   UNL     1       1.596  28.992  50.748  1.00  0.00    -0.166 F 
ENDBRANCH   2  32
BRANCH   2  36
HETATM   36  O   UNL     1       3.343  30.201  48.217  1.00  0.00    -0.363 OA
HETATM   37  H   UNL     1       2.471  30.544  47.940  1.00  0.00     0.213 HD
ENDBRANCH   2  36
TORSDOF 8
ENDMDL
MODEL 7
REMARK VINA RESULT:      -8.5      7.216      9.624
REMARK  8 active torsions:
REMARK  status: ('A' for Active; 'I' for Inactive)
REMARK    1  A    between atoms: C_2  and  O_3 
REMARK    2  A    between atoms: O_3  and  C_4 
REMARK    3  A    between atoms: C_4  and  C_5 
REMARK    4  A    between atoms: C_6  and  C_8 
REMARK    5  A    between atoms: C_6  and  O_7 
REMARK    6  A    between atoms: C_16  and  C_17 
REMARK    7  A    between atoms: C_18  and  C_19 
REMARK    8  A    between atoms: N_26  and  C_27 
ROOT
HETATM    1  C   UNL     1       4.972  34.969  62.245  1.00  0.00     0.177 C 
HETATM    2  C   UNL     1       4.656  35.223  63.741  1.00  0.00     0.250 C 
HETATM    3  N   UNL     1       3.232  35.073  63.953  1.00  0.00    -0.303 N 
HETATM    4  C   UNL     1       2.521  34.047  63.413  1.00  0.00     0.319 C 
HETATM    5  O   UNL     1       1.412  33.751  63.833  1.00  0.00    -0.247 OA
HETATM    6  N   UNL     1       3.085  33.407  62.355  1.00  0.00    -0.333 N 
HETATM    7  C   UNL     1       4.458  33.567  61.913  1.00  0.00     0.142 C 
HETATM    8  H   UNL     1       2.833  35.462  64.799  1.00  0.00     0.167 HD
HETATM    9  H   UNL     1       2.537  32.619  62.026  1.00  0.00     0.165 HD
ENDROOT
BRANCH   7  10
HETATM   10  C   UNL     1       4.641  33.050  60.509  1.00  0.00     0.015 A 
HETATM   11  C   UNL     1       5.807  32.434  59.943  1.00  0.00     0.097 A 
HETATM   12  N   UNL     1       5.603  32.078  58.670  1.00  0.00    -0.167 NA
HETATM   13  N   UNL     1       4.350  32.476  58.368  1.00  0.00    -0.244 N 
HETATM   14  C   UNL     1       3.764  33.113  59.440  1.00  0.00     0.130 A 
BRANCH  11  15
HETATM   15  C   UNL     1       7.098  32.152  60.571  1.00  0.00    -0.005 A 
HETATM   16  C   UNL     1       7.141  31.696  61.895  1.00  0.00     0.014 A 
HETATM   17  C   UNL     1       8.365  31.434  62.516  1.00  0.00     0.001 A 
HETATM   18  C   UNL     1       9.555  31.624  61.818  1.00  0.00     0.000 A 
HETATM   19  C   UNL     1       9.523  32.063  60.495  1.00  0.00     0.001 A 
HETATM   20  C   UNL     1       8.300  32.319  59.871  1.00  0.00     0.014 A 
ENDBRANCH  11  15
BRANCH  13  21
HETATM   21  C   UNL     1       3.796  32.225  57.081  1.00  0.00     0.058 A 
HETATM   22  C   UNL     1       3.091  33.248  56.426  1.00  0.00     0.031 A 
HETATM   23  C   UNL     1       2.543  33.030  55.161  1.00  0.00     0.002 A 
HETATM   24  C   UNL     1       2.696  31.793  54.539  1.00  0.00     0.000 A 
HETATM   25  C   UNL     1       3.396  30.772  55.181  1.00  0.00     0.002 A 
HETATM   26  C   UNL     1       3.946  30.982  56.449  1.00  0.00     0.031 A 
ENDBRANCH  13  21
ENDBRANCH   7  10
BRANCH   1  27
HETATM   27  C   UNL     1       4.366  36.103  61.439  1.00  0.00     0.270 C 
HETATM   28  O   UNL     1       5.021  37.107  61.164  1.00  0.00    -0.265 OA
BRANCH  27  29
HETATM   29  O   UNL     1       3.066  35.939  61.106  1.00  0.00    -0.321 OA
BRANCH  29  30
HETATM   30  C   UNL     1       2.482  36.946  60.264  1.00  0.00     0.174 C 
HETATM   31  C   UNL     1       2.239  36.396  58.871  1.00  0.00     0.034 C 
ENDBRANCH  29  30
ENDBRANCH  27  29
ENDBRANCH   1  27
BRANCH   2  32
HETATM   32  C   UNL     1       5.496  34.258  64.669  1.00  0.00     0.439 C 
HETATM   33  F   UNL     1       6.744  34.074  64.171  1.00  0.00    -0.166 F 
HETATM   34  F   UNL     1       5.623  34.756  65.922  1.00  0.00    -0.166 F 
HETATM   35  F   UNL     1       4.941  33.032  64.800  1.00  0.00    -0.166 F 
ENDBRANCH   2  32
BRANCH   2  36
HETATM   36  O   UNL     1       4.953  36.566  64.153  1.00  0.00    -0.363 OA
HETATM   37  H   UNL     1       4.870  36.638  65.124  1.00  0.00     0.213 HD
ENDBRANCH   2  36
TORSDOF 8
ENDMDL
MODEL 8
REMARK VINA RESULT:      -8.4      3.420      6.634
REMARK  8 active torsions:
REMARK  status: ('A' for Active; 'I' for Inactive)
REMARK    1  A    between atoms: C_2  and  O_3 
REMARK    2  A    between atoms: O_3  and  C_4 
REMARK    3  A    between atoms: C_4  and  C_5 
REMARK    4  A    between atoms: C_6  and  C_8 
REMARK    5  A    between atoms: C_6  and  O_7 
REMARK    6  A    between atoms: C_16  and  C_17 
REMARK    7  A    between atoms: C_18  and  C_19 
REMARK    8  A    between atoms: N_26  and  C_27 
ROOT
HETATM    1  C   UNL     1       4.270  27.916  51.948  1.00  0.00     0.177 C 
HETATM    2  C   UNL     1       4.030  27.956  50.417  1.00  0.00     0.250 C 
HETATM    3  N   UNL     1       4.485  29.230  49.903  1.00  0.00    -0.303 N 
HETATM    4  C   UNL     1       5.665  29.788  50.283  1.00  0.00     0.319 C 
HETATM    5  O   UNL     1       6.183  30.686  49.636  1.00  0.00    -0.247 OA
HETATM    6  N   UNL     1       6.207  29.332  51.443  1.00  0.00    -0.333 N 
HETATM    7  C   UNL     1       5.764  28.158  52.171  1.00  0.00     0.142 C 
HETATM    8  H   UNL     1       4.159  29.517  48.987  1.00  0.00     0.167 HD
HETATM    9  H   UNL     1       7.110  29.745  51.652  1.00  0.00     0.165 HD
ENDROOT
BRANCH   7  10
HETATM   10  C   UNL     1       6.285  28.165  53.586  1.00  0.00     0.015 A 
HETATM   11  C   UNL     1       6.906  27.087  54.300  1.00  0.00     0.097 A 
HETATM   12  N   UNL     1       7.265  27.460  55.534  1.00  0.00    -0.167 NA
HETATM   13  N   UNL     1       6.865  28.741  55.666  1.00  0.00    -0.244 N 
HETATM   14  C   UNL     1       6.223  29.177  54.527  1.00  0.00     0.130 A 
BRANCH  11  15
HETATM   15  C   UNL     1       7.189  25.724  53.850  1.00  0.00    -0.005 A 
HETATM   16  C   UNL     1       6.796  24.635  54.641  1.00  0.00     0.014 A 
HETATM   17  C   UNL     1       7.070  23.327  54.234  1.00  0.00     0.001 A 
HETATM   18  C   UNL     1       7.735  23.096  53.032  1.00  0.00     0.000 A 
HETATM   19  C   UNL     1       8.117  24.171  52.231  1.00  0.00     0.001 A 
HETATM   20  C   UNL     1       7.839  25.479  52.633  1.00  0.00     0.014 A 
ENDBRANCH  11  15
BRANCH  13  21
HETATM   21  C   UNL     1       7.117  29.463  56.866  1.00  0.00     0.058 A 
HETATM   22  C   UNL     1       8.221  29.112  57.660  1.00  0.00     0.031 A 
HETATM   23  C   UNL     1       8.495  29.810  58.838  1.00  0.00     0.002 A 
HETATM   24  C   UNL     1       7.672  30.862  59.231  1.00  0.00     0.000 A 
HETATM   25  C   UNL     1       6.575  31.219  58.449  1.00  0.00     0.002 A 
HETATM   26  C   UNL     1       6.293  30.525  57.269  1.00  0.00     0.031 A 
ENDBRANCH  13  21
ENDBRANCH   7  10
BRANCH   1  27
HETATM   27  C   UNL     1       3.334  28.920  52.595  1.00  0.00     0.270 C 
HETATM   28  O   UNL     1       2.908  28.747  53.734  1.00  0.00    -0.265 OA
BRANCH  27  29
HETATM   29  O   UNL     1       2.979  29.961  51.809  1.00  0.00    -0.321 OA
BRANCH  29  30
HETATM   30  C   UNL     1       3.058  31.271  52.396  1.00  0.00     0.174 C 
HETATM   31  C   UNL     1       2.225  32.259  51.601  1.00  0.00     0.034 C 
ENDBRANCH  29  30
ENDBRANCH  27  29
ENDBRANCH   1  27
BRANCH   2  32
HETATM   32  C   UNL     1       4.745  26.741  49.700  1.00  0.00     0.439 C 
HETATM   33  F   UNL     1       5.596  26.113  50.548  1.00  0.00    -0.166 F 
HETATM   34  F   UNL     1       3.850  25.824  49.262  1.00  0.00    -0.166 F 
HETATM   35  F   UNL     1       5.470  27.114  48.621  1.00  0.00    -0.166 F 
ENDBRANCH   2  32
BRANCH   2  36
HETATM   36  O   UNL     1       2.639  27.889  50.069  1.00  0.00    -0.363 OA
HETATM   37  H   UNL     1       2.106  28.339  50.753  1.00  0.00     0.213 HD
ENDBRANCH   2  36
TORSDOF 8
ENDMDL
MODEL 9
REMARK VINA RESULT:      -8.2      4.211      7.546
REMARK  8 active torsions:
REMARK  status: ('A' for Active; 'I' for Inactive)
REMARK    1  A    between atoms: C_2  and  O_3 
REMARK    2  A    between atoms: O_3  and  C_4 
REMARK    3  A    between atoms: C_4  and  C_5 
REMARK    4  A    between atoms: C_6  and  C_8 
REMARK    5  A    between atoms: C_6  and  O_7 
REMARK    6  A    between atoms: C_16  and  C_17 
REMARK    7  A    between atoms: C_18  and  C_19 
REMARK    8  A    between atoms: N_26  and  C_27 
ROOT
HETATM    1  C   UNL     1       4.431  30.143  50.969  1.00  0.00     0.177 C 
HETATM    2  C   UNL     1       3.358  30.904  50.149  1.00  0.00     0.250 C 
HETATM    3  N   UNL     1       2.682  29.967  49.276  1.00  0.00    -0.303 N 
HETATM    4  C   UNL     1       2.275  28.742  49.701  1.00  0.00     0.319 C 
HETATM    5  O   UNL     1       1.452  28.092  49.074  1.00  0.00    -0.247 OA
HETATM    6  N   UNL     1       2.867  28.261  50.825  1.00  0.00    -0.333 N 
HETATM    7  C   UNL     1       3.707  29.029  51.726  1.00  0.00     0.142 C 
HETATM    8  H   UNL     1       2.152  30.340  48.497  1.00  0.00     0.167 HD
HETATM    9  H   UNL     1       2.490  27.368  51.125  1.00  0.00     0.165 HD
ENDROOT
BRANCH   7  10
HETATM   10  C   UNL     1       4.518  28.125  52.619  1.00  0.00     0.015 A 
HETATM   11  C   UNL     1       4.837  28.314  54.005  1.00  0.00     0.097 A 
HETATM   12  N   UNL     1       5.559  27.294  54.483  1.00  0.00    -0.167 NA
HETATM   13  N   UNL     1       5.757  26.458  53.444  1.00  0.00    -0.244 N 
HETATM   14  C   UNL     1       5.186  26.958  52.293  1.00  0.00     0.130 A 
BRANCH  11  15
HETATM   15  C   UNL     1       4.466  29.413  54.896  1.00  0.00    -0.005 A 
HETATM   16  C   UNL     1       3.844  29.135  56.120  1.00  0.00     0.014 A 
HETATM   17  C   UNL     1       3.470  30.172  56.978  1.00  0.00     0.001 A 
HETATM   18  C   UNL     1       3.719  31.496  56.620  1.00  0.00     0.000 A 
HETATM   19  C   UNL     1       4.351  31.783  55.412  1.00  0.00     0.001 A 
HETATM   20  C   UNL     1       4.731  30.747  54.556  1.00  0.00     0.014 A 
ENDBRANCH  11  15
BRANCH  13  21
HETATM   21  C   UNL     1       6.477  25.241  53.614  1.00  0.00     0.058 A 
HETATM   22  C   UNL     1       6.482  24.616  54.870  1.00  0.00     0.031 A 
HETATM   23  C   UNL     1       7.173  23.418  55.061  1.00  0.00     0.002 A 
HETATM   24  C   UNL     1       7.863  22.836  54.001  1.00  0.00     0.000 A 
HETATM   25  C   UNL     1       7.862  23.449  52.748  1.00  0.00     0.002 A 
HETATM   26  C   UNL     1       7.173  24.649  52.550  1.00  0.00     0.031 A 
ENDBRANCH  13  21
ENDBRANCH   7  10
BRANCH   1  27
HETATM   27  C   UNL     1       5.520  29.694  50.012  1.00  0.00     0.270 C 
HETATM   28  O   UNL     1       6.451  30.438  49.714  1.00  0.00    -0.265 OA
BRANCH  27  29
HETATM   29  O   UNL     1       5.349  28.458  49.490  1.00  0.00    -0.321 OA
BRANCH  29  30
HETATM   30  C   UNL     1       5.495  28.331  48.066  1.00  0.00     0.174 C 
HETATM   31  C   UNL     1       4.875  27.032  47.584  1.00  0.00     0.034 C 
ENDBRANCH  29  30
ENDBRANCH  27  29
ENDBRANCH   1  27
BRANCH   2  32
HETATM   32  C   UNL     1       2.346  31.658  51.102  1.00  0.00     0.439 C 
HETATM   33  F   UNL     1       2.531  33.000  51.038  1.00  0.00    -0.166 F 
HETATM   34  F   UNL     1       1.059  31.404  50.764  1.00  0.00    -0.166 F 
HETATM   35  F   UNL     1       2.477  31.305  52.401  1.00  0.00    -0.166 F 
ENDBRANCH   2  32
BRANCH   2  36
HETATM   36  O   UNL     1       3.922  31.890  49.271  1.00  0.00    -0.363 OA
HETATM   37  H   UNL     1       4.647  32.361  49.727  1.00  0.00     0.213 HD
ENDBRANCH   2  36
TORSDOF 8
ENDMDL
MODEL 10
REMARK VINA RESULT:      -8.1      4.313      7.683
REMARK  8 active torsions:
REMARK  status: ('A' for Active; 'I' for Inactive)
REMARK    1  A    between atoms: C_2  and  O_3 
REMARK    2  A    between atoms: O_3  and  C_4 
REMARK    3  A    between atoms: C_4  and  C_5 
REMARK    4  A    between atoms: C_6  and  C_8 
REMARK    5  A    between atoms: C_6  and  O_7 
REMARK    6  A    between atoms: C_16  and  C_17 
REMARK    7  A    between atoms: C_18  and  C_19 
REMARK    8  A    between atoms: N_26  and  C_27 
ROOT
HETATM    1  C   UNL     1       5.082  28.409  49.447  1.00  0.00     0.177 C 
HETATM    2  C   UNL     1       4.360  29.481  48.592  1.00  0.00     0.250 C 
HETATM    3  N   UNL     1       2.929  29.293  48.713  1.00  0.00    -0.303 N 
HETATM    4  C   UNL     1       2.327  29.053  49.908  1.00  0.00     0.319 C 
HETATM    5  O   UNL     1       1.122  29.199  50.054  1.00  0.00    -0.247 OA
HETATM    6  N   UNL     1       3.122  28.594  50.909  1.00  0.00    -0.333 N 
HETATM    7  C   UNL     1       4.573  28.565  50.881  1.00  0.00     0.142 C 
HETATM    8  H   UNL     1       2.332  29.728  48.020  1.00  0.00     0.167 HD
HETATM    9  H   UNL     1       2.632  28.480  51.790  1.00  0.00     0.165 HD
ENDROOT
BRANCH   7  10
HETATM   10  C   UNL     1       5.120  27.643  51.941  1.00  0.00     0.015 A 
HETATM   11  C   UNL     1       5.062  27.806  53.365  1.00  0.00     0.097 A 
HETATM   12  N   UNL     1       5.633  26.775  53.999  1.00  0.00    -0.167 NA
HETATM   13  N   UNL     1       6.101  25.957  53.033  1.00  0.00    -0.244 N 
HETATM   14  C   UNL     1       5.853  26.479  51.782  1.00  0.00     0.130 A 
BRANCH  11  15
HETATM   15  C   UNL     1       4.467  28.890  54.146  1.00  0.00    -0.005 A 
HETATM   16  C   UNL     1       4.152  28.682  55.495  1.00  0.00     0.014 A 
HETATM   17  C   UNL     1       3.571  29.701  56.254  1.00  0.00     0.001 A 
HETATM   18  C   UNL     1       3.304  30.938  55.670  1.00  0.00     0.000 A 
HETATM   19  C   UNL     1       3.628  31.161  54.333  1.00  0.00     0.001 A 
HETATM   20  C   UNL     1       4.214  30.145  53.575  1.00  0.00     0.014 A 
ENDBRANCH  11  15
BRANCH  13  21
HETATM   21  C   UNL     1       6.751  24.736  53.365  1.00  0.00     0.058 A 
HETATM   22  C   UNL     1       6.697  24.265  54.686  1.00  0.00     0.031 A 
HETATM   23  C   UNL     1       7.321  23.066  55.036  1.00  0.00     0.002 A 
HETATM   24  C   UNL     1       8.001  22.327  54.071  1.00  0.00     0.000 A 
HETATM   25  C   UNL     1       8.059  22.786  52.755  1.00  0.00     0.002 A 
HETATM   26  C   UNL     1       7.438  23.986  52.398  1.00  0.00     0.031 A 
ENDBRANCH  13  21
ENDBRANCH   7  10
BRANCH   1  27
HETATM   27  C   UNL     1       4.841  27.056  48.804  1.00  0.00     0.270 C 
HETATM   28  O   UNL     1       5.614  26.608  47.960  1.00  0.00    -0.265 OA
BRANCH  27  29
HETATM   29  O   UNL     1       3.707  26.431  49.191  1.00  0.00    -0.321 OA
BRANCH  29  30
HETATM   30  C   UNL     1       3.129  25.502  48.259  1.00  0.00     0.174 C 
HETATM   31  C   UNL     1       2.300  26.238  47.223  1.00  0.00     0.034 C 
ENDBRANCH  29  30
ENDBRANCH  27  29
ENDBRANCH   1  27
BRANCH   2  32
HETATM   32  C   UNL     1       4.802  30.938  49.018  1.00  0.00     0.439 C 
HETATM   33  F   UNL     1       4.914  31.745  47.934  1.00  0.00    -0.166 F 
HETATM   34  F   UNL     1       3.905  31.505  49.861  1.00  0.00    -0.166 F 
HETATM   35  F   UNL     1       5.994  30.966  49.654  1.00  0.00    -0.166 F 
ENDBRANCH   2  32
BRANCH   2  36
HETATM   36  O   UNL     1       4.634  29.353  47.189  1.00  0.00    -0.363 OA
HETATM   37  H   UNL     1       4.418  28.447  46.893  1.00  0.00     0.213 HD
ENDBRANCH   2  36
TORSDOF 8
ENDMDL
