MODEL 1
REMARK VINA RESULT:      -8.7      0.000      0.000
REMARK  6 active torsions:
REMARK  status: ('A' for Active; 'I' for Inactive)
REMARK    1  A    between atoms: C_2  and  C_3 
REMARK    2  A    between atoms: C_3  and  C_4 
REMARK    3  A    between atoms: C_4  and  N_5 
REMARK       I    between atoms: N_5  and  C_6 
REMARK       I    between atoms: C_6  and  N_7 
REMARK    4  A    between atoms: N_7  and  C_8 
REMARK    5  A    between atoms: N_11  and  C_12 
REMARK    6  A    between atoms: C_15  and  O_16 
ROOT
HETATM    1  C   UNL     1       4.942  26.205  52.458  1.00  0.00     0.123 C 
HETATM    2  C   UNL     1       5.264  27.174  53.537  1.00  0.00     0.009 A 
HETATM    3  C   UNL     1       6.300  27.034  54.445  1.00  0.00     0.047 A 
HETATM    4  N   UNL     1       6.367  28.232  55.153  1.00  0.00    -0.238 N 
HETATM    5  N   UNL     1       5.328  29.047  54.799  1.00  0.00    -0.179 NA
HETATM    6  C   UNL     1       4.688  28.412  53.825  1.00  0.00     0.150 A 
HETATM    7  C   UNL     1       7.175  25.829  54.553  1.00  0.00     0.069 C 
HETATM    8  C   UNL     1       6.981  24.823  53.369  1.00  0.00    -0.040 C 
HETATM    9  C   UNL     1       7.295  23.400  53.882  1.00  0.00     0.015 C 
HETATM   10  C   UNL     1       7.998  25.143  52.253  1.00  0.00     0.015 C 
HETATM   11  C   UNL     1       5.524  24.819  52.802  1.00  0.00     0.039 C 
ENDROOT
BRANCH   1  12
HETATM   12  N   UNL     1       5.484  26.776  51.238  1.00  0.00    -0.334 N 
HETATM   13  C   UNL     1       4.896  27.395  50.194  1.00  0.00     0.316 C 
HETATM   14  N   UNL     1       3.538  27.394  50.156  1.00  0.00    -0.343 N 
HETATM   15  O   UNL     1       5.605  27.912  49.338  1.00  0.00    -0.247 OA
HETATM   16  H   UNL     1       3.052  27.179  51.010  1.00  0.00     0.164 HD
HETATM   17  H   UNL     1       6.494  26.808  51.153  1.00  0.00     0.165 HD
BRANCH  14  18
HETATM   18  C   UNL     1       2.814  28.186  49.181  1.00  0.00     0.124 C 
BRANCH  18  19
HETATM   19  C   UNL     1       2.023  27.394  48.134  1.00  0.00     0.019 C 
BRANCH  19  20
HETATM   20  C   UNL     1       2.872  26.566  47.168  1.00  0.00    -0.003 C 
HETATM   21  C   UNL     1       3.016  25.106  47.562  1.00  0.00     0.005 C 
ENDBRANCH  19  20
ENDBRANCH  18  19
ENDBRANCH  14  18
ENDBRANCH   1  12
BRANCH   4  22
HETATM   22  C   UNL     1       7.341  28.735  56.072  1.00  0.00     0.058 A 
HETATM   23  C   UNL     1       6.939  28.988  57.396  1.00  0.00     0.034 A 
HETATM   24  C   UNL     1       7.814  29.579  58.311  1.00  0.00     0.039 A 
HETATM   25  C   UNL     1       9.107  29.925  57.929  1.00  0.00     0.068 A 
HETATM   26  C   UNL     1       9.535  29.623  56.637  1.00  0.00     0.039 A 
HETATM   27  C   UNL     1       8.659  29.027  55.714  1.00  0.00     0.034 A 
BRANCH  25  28
HETATM   28  O   UNL     1       9.853  30.531  58.900  1.00  0.00    -0.356 OA
HETATM   29  C   UNL     1       9.345  31.754  59.418  1.00  0.00     0.210 C 
ENDBRANCH  25  28
ENDBRANCH   4  22
TORSDOF 6
ENDMDL
MODEL 2
REMARK VINA RESULT:      -8.2      3.725      8.678
REMARK  6 active torsions:
REMARK  status: ('A' for Active; 'I' for Inactive)
REMARK    1  A    between atoms: C_2  and  C_3 
REMARK    2  A    between atoms: C_3  and  C_4 
REMARK    3  A    between atoms: C_4  and  N_5 
REMARK       I    between atoms: N_5  and  C_6 
REMARK       I    between atoms: C_6  and  N_7 
REMARK    4  A    between atoms: N_7  and  C_8 
REMARK    5  A    between atoms: N_11  and  C_12 
REMARK    6  A    between atoms: C_15  and  O_16 
ROOT
HETATM    1  C   UNL     1       6.740  28.534  56.551  1.00  0.00     0.123 C 
HETATM    2  C   UNL     1       7.172  27.139  56.824  1.00  0.00     0.009 A 
HETATM    3  C   UNL     1       6.969  26.066  55.974  1.00  0.00     0.047 A 
HETATM    4  N   UNL     1       7.681  24.996  56.514  1.00  0.00    -0.238 N 
HETATM    5  N   UNL     1       8.201  25.343  57.729  1.00  0.00    -0.179 NA
HETATM    6  C   UNL     1       7.905  26.626  57.895  1.00  0.00     0.150 A 
HETATM    7  C   UNL     1       6.179  26.124  54.708  1.00  0.00     0.069 C 
HETATM    8  C   UNL     1       5.803  27.585  54.288  1.00  0.00    -0.040 C 
HETATM    9  C   UNL     1       4.476  27.539  53.498  1.00  0.00     0.015 C 
HETATM   10  C   UNL     1       6.883  28.140  53.337  1.00  0.00     0.015 C 
HETATM   11  C   UNL     1       5.602  28.539  55.510  1.00  0.00     0.039 C 
ENDROOT
BRANCH   1  12
HETATM   12  N   UNL     1       7.931  29.239  56.113  1.00  0.00    -0.334 N 
HETATM   13  C   UNL     1       8.862  29.942  56.790  1.00  0.00     0.316 C 
HETATM   14  N   UNL     1       8.622  30.184  58.105  1.00  0.00    -0.343 N 
HETATM   15  O   UNL     1       9.859  30.331  56.192  1.00  0.00    -0.247 OA
HETATM   16  H   UNL     1       7.925  29.619  58.560  1.00  0.00     0.164 HD
HETATM   17  H   UNL     1       8.191  29.143  55.138  1.00  0.00     0.165 HD
BRANCH  14  18
HETATM   18  C   UNL     1       9.640  30.766  58.959  1.00  0.00     0.124 C 
BRANCH  18  19
HETATM   19  C   UNL     1       9.208  31.993  59.769  1.00  0.00     0.019 C 
BRANCH  19  20
HETATM   20  C   UNL     1       9.693  32.017  61.220  1.00  0.00    -0.003 C 
HETATM   21  C   UNL     1       8.588  31.835  62.247  1.00  0.00     0.005 C 
ENDBRANCH  19  20
ENDBRANCH  18  19
ENDBRANCH  14  18
ENDBRANCH   1  12
BRANCH   4  22
HETATM   22  C   UNL     1       7.993  23.704  55.985  1.00  0.00     0.058 A 
HETATM   23  C   UNL     1       8.077  23.557  54.589  1.00  0.00     0.034 A 
HETATM   24  C   UNL     1       8.271  22.300  54.010  1.00  0.00     0.039 A 
HETATM   25  C   UNL     1       8.391  21.166  54.808  1.00  0.00     0.068 A 
HETATM   26  C   UNL     1       8.371  21.309  56.194  1.00  0.00     0.039 A 
HETATM   27  C   UNL     1       8.178  22.571  56.781  1.00  0.00     0.034 A 
BRANCH  25  28
HETATM   28  O   UNL     1       8.539  19.993  54.125  1.00  0.00    -0.356 OA
HETATM   29  C   UNL     1       8.527  20.082  52.705  1.00  0.00     0.210 C 
ENDBRANCH  25  28
ENDBRANCH   4  22
TORSDOF 6
ENDMDL
MODEL 3
REMARK VINA RESULT:      -8.0      4.105      5.876
REMARK  6 active torsions:
REMARK  status: ('A' for Active; 'I' for Inactive)
REMARK    1  A    between atoms: C_2  and  C_3 
REMARK    2  A    between atoms: C_3  and  C_4 
REMARK    3  A    between atoms: C_4  and  N_5 
REMARK       I    between atoms: N_5  and  C_6 
REMARK       I    between atoms: C_6  and  N_7 
REMARK    4  A    between atoms: N_7  and  C_8 
REMARK    5  A    between atoms: N_11  and  C_12 
REMARK    6  A    between atoms: C_15  and  O_16 
ROOT
HETATM    1  C   UNL     1       7.675  27.713  55.446  1.00  0.00     0.123 C 
HETATM    2  C   UNL     1       8.204  28.664  56.457  1.00  0.00     0.009 A 
HETATM    3  C   UNL     1       7.427  29.489  57.252  1.00  0.00     0.047 A 
HETATM    4  N   UNL     1       8.291  30.073  58.176  1.00  0.00    -0.238 N 
HETATM    5  N   UNL     1       9.585  29.735  57.890  1.00  0.00    -0.179 NA
HETATM    6  C   UNL     1       9.518  28.883  56.874  1.00  0.00     0.150 A 
HETATM    7  C   UNL     1       5.946  29.635  57.130  1.00  0.00     0.069 C 
HETATM    8  C   UNL     1       5.303  28.572  56.177  1.00  0.00    -0.040 C 
HETATM    9  C   UNL     1       4.035  29.187  55.544  1.00  0.00     0.015 C 
HETATM   10  C   UNL     1       4.855  27.348  57.003  1.00  0.00     0.015 C 
HETATM   11  C   UNL     1       6.255  28.135  55.017  1.00  0.00     0.039 C 
ENDROOT
BRANCH   1  12
HETATM   12  N   UNL     1       7.728  26.403  56.070  1.00  0.00    -0.334 N 
HETATM   13  C   UNL     1       7.487  25.166  55.590  1.00  0.00     0.316 C 
HETATM   14  N   UNL     1       6.963  25.077  54.339  1.00  0.00    -0.343 N 
HETATM   15  O   UNL     1       7.737  24.198  56.299  1.00  0.00    -0.247 OA
HETATM   16  H   UNL     1       7.032  25.889  53.750  1.00  0.00     0.164 HD
HETATM   17  H   UNL     1       8.086  26.358  57.018  1.00  0.00     0.165 HD
BRANCH  14  18
HETATM   18  C   UNL     1       6.841  23.798  53.666  1.00  0.00     0.124 C 
BRANCH  18  19
HETATM   19  C   UNL     1       8.102  23.296  52.956  1.00  0.00     0.019 C 
BRANCH  19  20
HETATM   20  C   UNL     1       8.679  21.989  53.503  1.00  0.00    -0.003 C 
HETATM   21  C   UNL     1       7.893  20.749  53.108  1.00  0.00     0.005 C 
ENDBRANCH  19  20
ENDBRANCH  18  19
ENDBRANCH  14  18
ENDBRANCH   1  12
BRANCH   4  22
HETATM   22  C   UNL     1       8.038  30.855  59.347  1.00  0.00     0.058 A 
HETATM   23  C   UNL     1       8.782  30.580  60.507  1.00  0.00     0.034 A 
HETATM   24  C   UNL     1       8.505  31.235  61.710  1.00  0.00     0.039 A 
HETATM   25  C   UNL     1       7.486  32.180  61.781  1.00  0.00     0.068 A 
HETATM   26  C   UNL     1       6.783  32.505  60.622  1.00  0.00     0.039 A 
HETATM   27  C   UNL     1       7.059  31.850  59.410  1.00  0.00     0.034 A 
BRANCH  25  28
HETATM   28  O   UNL     1       7.287  32.722  63.019  1.00  0.00    -0.356 OA
HETATM   29  C   UNL     1       5.960  32.667  63.528  1.00  0.00     0.210 C 
ENDBRANCH  25  28
ENDBRANCH   4  22
TORSDOF 6
ENDMDL
MODEL 4
REMARK VINA RESULT:      -7.9      4.227      6.614
REMARK  6 active torsions:
REMARK  status: ('A' for Active; 'I' for Inactive)
REMARK    1  A    between atoms: C_2  and  C_3 
REMARK    2  A    between atoms: C_3  and  C_4 
REMARK    3  A    between atoms: C_4  and  N_5 
REMARK       I    between atoms: N_5  and  C_6 
REMARK       I    between atoms: C_6  and  N_7 
REMARK    4  A    between atoms: N_7  and  C_8 
REMARK    5  A    between atoms: N_11  and  C_12 
REMARK    6  A    between atoms: C_15  and  O_16 
ROOT
HETATM    1  C   UNL     1       6.229  29.227  56.161  1.00  0.00     0.123 C 
HETATM    2  C   UNL     1       7.037  29.662  57.329  1.00  0.00     0.009 A 
HETATM    3  C   UNL     1       6.739  30.742  58.142  1.00  0.00     0.047 A 
HETATM    4  N   UNL     1       7.631  30.688  59.211  1.00  0.00    -0.238 N 
HETATM    5  N   UNL     1       8.545  29.691  59.012  1.00  0.00    -0.179 NA
HETATM    6  C   UNL     1       8.171  29.077  57.896  1.00  0.00     0.150 A 
HETATM    7  C   UNL     1       5.626  31.706  57.896  1.00  0.00     0.069 C 
HETATM    8  C   UNL     1       4.654  31.241  56.760  1.00  0.00    -0.040 C 
HETATM    9  C   UNL     1       4.052  32.497  56.089  1.00  0.00     0.015 C 
HETATM   10  C   UNL     1       3.484  30.448  57.379  1.00  0.00     0.015 C 
HETATM   11  C   UNL     1       5.366  30.399  55.652  1.00  0.00     0.039 C 
ENDROOT
BRANCH   1  12
HETATM   12  N   UNL     1       5.452  28.089  56.618  1.00  0.00    -0.334 N 
HETATM   13  C   UNL     1       5.586  26.764  56.408  1.00  0.00     0.316 C 
HETATM   14  N   UNL     1       6.518  26.370  55.502  1.00  0.00    -0.343 N 
HETATM   15  O   UNL     1       4.864  25.991  57.028  1.00  0.00    -0.247 OA
HETATM   16  H   UNL     1       7.222  27.040  55.242  1.00  0.00     0.164 HD
HETATM   17  H   UNL     1       4.712  28.275  57.285  1.00  0.00     0.165 HD
BRANCH  14  18
HETATM   18  C   UNL     1       6.865  24.971  55.341  1.00  0.00     0.124 C 
BRANCH  18  19
HETATM   19  C   UNL     1       6.526  24.352  53.982  1.00  0.00     0.019 C 
BRANCH  19  20
HETATM   20  C   UNL     1       7.727  23.849  53.179  1.00  0.00    -0.003 C 
HETATM   21  C   UNL     1       7.791  22.337  53.038  1.00  0.00     0.005 C 
ENDBRANCH  19  20
ENDBRANCH  18  19
ENDBRANCH  14  18
ENDBRANCH   1  12
BRANCH   4  22
HETATM   22  C   UNL     1       7.680  31.418  60.440  1.00  0.00     0.058 A 
HETATM   23  C   UNL     1       8.654  31.061  61.389  1.00  0.00     0.034 A 
HETATM   24  C   UNL     1       8.683  31.664  62.650  1.00  0.00     0.039 A 
HETATM   25  C   UNL     1       7.747  32.637  62.989  1.00  0.00     0.068 A 
HETATM   26  C   UNL     1       6.816  33.041  62.034  1.00  0.00     0.039 A 
HETATM   27  C   UNL     1       6.784  32.439  60.765  1.00  0.00     0.034 A 
BRANCH  25  28
HETATM   28  O   UNL     1       7.855  33.123  64.261  1.00  0.00    -0.356 OA
HETATM   29  C   UNL     1       6.645  33.527  64.889  1.00  0.00     0.210 C 
ENDBRANCH  25  28
ENDBRANCH   4  22
TORSDOF 6
ENDMDL
MODEL 5
REMARK VINA RESULT:      -7.8      2.867      7.583
REMARK  6 active torsions:
REMARK  status: ('A' for Active; 'I' for Inactive)
REMARK    1  A    between atoms: C_2  and  C_3 
REMARK    2  A    between atoms: C_3  and  C_4 
REMARK    3  A    between atoms: C_4  and  N_5 
REMARK       I    between atoms: N_5  and  C_6 
REMARK       I    between atoms: C_6  and  N_7 
REMARK    4  A    between atoms: N_7  and  C_8 
REMARK    5  A    between atoms: N_11  and  C_12 
REMARK    6  A    between atoms: C_15  and  O_16 
ROOT
HETATM    1  C   UNL     1       6.104  24.944  55.587  1.00  0.00     0.123 C 
HETATM    2  C   UNL     1       5.682  25.329  54.215  1.00  0.00     0.009 A 
HETATM    3  C   UNL     1       5.443  26.625  53.793  1.00  0.00     0.047 A 
HETATM    4  N   UNL     1       5.255  26.561  52.413  1.00  0.00    -0.238 N 
HETATM    5  N   UNL     1       5.241  25.258  52.000  1.00  0.00    -0.179 NA
HETATM    6  C   UNL     1       5.512  24.535  53.080  1.00  0.00     0.150 A 
HETATM    7  C   UNL     1       5.457  27.823  54.684  1.00  0.00     0.069 C 
HETATM    8  C   UNL     1       6.019  27.516  56.113  1.00  0.00    -0.040 C 
HETATM    9  C   UNL     1       5.355  28.485  57.117  1.00  0.00     0.015 C 
HETATM   10  C   UNL     1       7.536  27.800  56.139  1.00  0.00     0.015 C 
HETATM   11  C   UNL     1       5.724  26.056  56.586  1.00  0.00     0.039 C 
ENDROOT
BRANCH   1  12
HETATM   12  N   UNL     1       7.533  24.699  55.507  1.00  0.00    -0.334 N 
HETATM   13  C   UNL     1       8.280  23.618  55.813  1.00  0.00     0.316 C 
HETATM   14  N   UNL     1       7.654  22.589  56.443  1.00  0.00    -0.343 N 
HETATM   15  O   UNL     1       9.470  23.622  55.522  1.00  0.00    -0.247 OA
HETATM   16  H   UNL     1       6.649  22.569  56.408  1.00  0.00     0.164 HD
HETATM   17  H   UNL     1       8.100  25.417  55.071  1.00  0.00     0.165 HD
BRANCH  14  18
HETATM   18  C   UNL     1       8.321  21.318  56.647  1.00  0.00     0.124 C 
BRANCH  18  19
HETATM   19  C   UNL     1       7.951  20.205  55.662  1.00  0.00     0.019 C 
BRANCH  19  20
HETATM   20  C   UNL     1       8.743  20.207  54.353  1.00  0.00    -0.003 C 
HETATM   21  C   UNL     1       7.937  20.638  53.139  1.00  0.00     0.005 C 
ENDBRANCH  19  20
ENDBRANCH  18  19
ENDBRANCH  14  18
ENDBRANCH   1  12
BRANCH   4  22
HETATM   22  C   UNL     1       5.161  27.589  51.423  1.00  0.00     0.058 A 
HETATM   23  C   UNL     1       4.748  27.230  50.128  1.00  0.00     0.034 A 
HETATM   24  C   UNL     1       4.741  28.168  49.091  1.00  0.00     0.039 A 
HETATM   25  C   UNL     1       5.139  29.481  49.324  1.00  0.00     0.068 A 
HETATM   26  C   UNL     1       5.493  29.861  50.617  1.00  0.00     0.039 A 
HETATM   27  C   UNL     1       5.500  28.923  51.663  1.00  0.00     0.034 A 
BRANCH  25  28
HETATM   28  O   UNL     1       5.125  30.292  48.225  1.00  0.00    -0.356 OA
HETATM   29  C   UNL     1       4.282  29.888  47.152  1.00  0.00     0.210 C 
ENDBRANCH  25  28
ENDBRANCH   4  22
TORSDOF 6
ENDMDL
MODEL 6
REMARK VINA RESULT:      -7.8      2.107      8.642
REMARK  6 active torsions:
REMARK  status: ('A' for Active; 'I' for Inactive)
REMARK    1  A    between atoms: C_2  and  C_3 
REMARK    2  A    between atoms: C_3  and  C_4 
REMARK    3  A    between atoms: C_4  and  N_5 
REMARK       I    between atoms: N_5  and  C_6 
REMARK       I    between atoms: C_6  and  N_7 
REMARK    4  A    between atoms: N_7  and  C_8 
REMARK    5  A    between atoms: N_11  and  C_12 
REMARK    6  A    between atoms: C_15  and  O_16 
ROOT
HETATM    1  C   UNL     1       6.655  27.861  53.464  1.00  0.00     0.123 C 
HETATM    2  C   UNL     1       5.919  28.260  52.237  1.00  0.00     0.009 A 
HETATM    3  C   UNL     1       5.508  27.391  51.242  1.00  0.00     0.047 A 
HETATM    4  N   UNL     1       4.703  28.133  50.379  1.00  0.00    -0.238 N 
HETATM    5  N   UNL     1       4.716  29.451  50.741  1.00  0.00    -0.179 NA
HETATM    6  C   UNL     1       5.431  29.512  51.858  1.00  0.00     0.150 A 
HETATM    7  C   UNL     1       5.846  25.937  51.191  1.00  0.00     0.069 C 
HETATM    8  C   UNL     1       6.508  25.417  52.512  1.00  0.00    -0.040 C 
HETATM    9  C   UNL     1       7.444  24.241  52.158  1.00  0.00     0.015 C 
HETATM   10  C   UNL     1       5.414  24.866  53.450  1.00  0.00     0.015 C 
HETATM   11  C   UNL     1       7.360  26.507  53.240  1.00  0.00     0.039 C 
ENDROOT
BRANCH   1  12
HETATM   12  N   UNL     1       5.666  27.831  54.528  1.00  0.00    -0.334 N 
HETATM   13  C   UNL     1       5.750  28.113  55.843  1.00  0.00     0.316 C 
HETATM   14  N   UNL     1       6.989  28.340  56.353  1.00  0.00    -0.343 N 
HETATM   15  O   UNL     1       4.720  28.140  56.508  1.00  0.00    -0.247 OA
HETATM   16  H   UNL     1       7.726  28.547  55.700  1.00  0.00     0.164 HD
HETATM   17  H   UNL     1       4.706  27.649  54.258  1.00  0.00     0.165 HD
BRANCH  14  18
HETATM   18  C   UNL     1       7.167  28.828  57.706  1.00  0.00     0.124 C 
BRANCH  18  19
HETATM   19  C   UNL     1       8.551  29.397  58.033  1.00  0.00     0.019 C 
BRANCH  19  20
HETATM   20  C   UNL     1       9.658  29.021  57.046  1.00  0.00    -0.003 C 
HETATM   21  C   UNL     1      10.883  29.918  57.116  1.00  0.00     0.005 C 
ENDBRANCH  19  20
ENDBRANCH  18  19
ENDBRANCH  14  18
ENDBRANCH   1  12
BRANCH   4  22
HETATM   22  C   UNL     1       3.860  27.736  49.294  1.00  0.00     0.058 A 
HETATM   23  C   UNL     1       2.550  28.245  49.246  1.00  0.00     0.034 A 
HETATM   24  C   UNL     1       1.646  27.810  48.274  1.00  0.00     0.039 A 
HETATM   25  C   UNL     1       2.028  26.864  47.327  1.00  0.00     0.068 A 
HETATM   26  C   UNL     1       3.342  26.398  47.328  1.00  0.00     0.039 A 
HETATM   27  C   UNL     1       4.255  26.834  48.303  1.00  0.00     0.034 A 
BRANCH  25  28
HETATM   28  O   UNL     1       1.045  26.492  46.454  1.00  0.00    -0.356 OA
HETATM   29  C   UNL     1       0.106  27.498  46.093  1.00  0.00     0.210 C 
ENDBRANCH  25  28
ENDBRANCH   4  22
TORSDOF 6
ENDMDL
MODEL 7
REMARK VINA RESULT:      -7.7      8.106     12.738
REMARK  6 active torsions:
REMARK  status: ('A' for Active; 'I' for Inactive)
REMARK    1  A    between atoms: C_2  and  C_3 
REMARK    2  A    between atoms: C_3  and  C_4 
REMARK    3  A    between atoms: C_4  and  N_5 
REMARK       I    between atoms: N_5  and  C_6 
REMARK       I    between atoms: C_6  and  N_7 
REMARK    4  A    between atoms: N_7  and  C_8 
REMARK    5  A    between atoms: N_11  and  C_12 
REMARK    6  A    between atoms: C_15  and  O_16 
ROOT
HETATM    1  C   UNL     1       3.247  34.222  62.384  1.00  0.00     0.123 C 
HETATM    2  C   UNL     1       4.396  33.309  62.161  1.00  0.00     0.009 A 
HETATM    3  C   UNL     1       5.037  33.122  60.948  1.00  0.00     0.047 A 
HETATM    4  N   UNL     1       6.160  32.339  61.213  1.00  0.00    -0.238 N 
HETATM    5  N   UNL     1       6.154  31.934  62.518  1.00  0.00    -0.179 NA
HETATM    6  C   UNL     1       5.108  32.531  63.076  1.00  0.00     0.150 A 
HETATM    7  C   UNL     1       4.594  33.720  59.654  1.00  0.00     0.069 C 
HETATM    8  C   UNL     1       3.469  34.795  59.830  1.00  0.00    -0.040 C 
HETATM    9  C   UNL     1       2.600  34.805  58.553  1.00  0.00     0.015 C 
HETATM   10  C   UNL     1       4.112  36.192  59.959  1.00  0.00     0.015 C 
HETATM   11  C   UNL     1       2.532  34.506  61.047  1.00  0.00     0.039 C 
ENDROOT
BRANCH   1  12
HETATM   12  N   UNL     1       3.800  35.410  63.010  1.00  0.00    -0.334 N 
HETATM   13  C   UNL     1       3.881  35.795  64.299  1.00  0.00     0.316 C 
HETATM   14  N   UNL     1       3.219  35.039  65.215  1.00  0.00    -0.343 N 
HETATM   15  O   UNL     1       4.527  36.798  64.578  1.00  0.00    -0.247 OA
HETATM   16  H   UNL     1       2.940  34.114  64.935  1.00  0.00     0.164 HD
HETATM   17  H   UNL     1       4.300  36.056  62.409  1.00  0.00     0.165 HD
BRANCH  14  18
HETATM   18  C   UNL     1       3.394  35.260  66.637  1.00  0.00     0.124 C 
BRANCH  18  19
HETATM   19  C   UNL     1       4.293  34.253  67.363  1.00  0.00     0.019 C 
BRANCH  19  20
HETATM   20  C   UNL     1       5.371  34.871  68.255  1.00  0.00    -0.003 C 
HETATM   21  C   UNL     1       6.777  34.369  67.968  1.00  0.00     0.005 C 
ENDBRANCH  19  20
ENDBRANCH  18  19
ENDBRANCH  14  18
ENDBRANCH   1  12
BRANCH   4  22
HETATM   22  C   UNL     1       7.281  31.987  60.397  1.00  0.00     0.058 A 
HETATM   23  C   UNL     1       8.555  32.442  60.783  1.00  0.00     0.034 A 
HETATM   24  C   UNL     1       9.671  32.223  59.971  1.00  0.00     0.039 A 
HETATM   25  C   UNL     1       9.543  31.542  58.764  1.00  0.00     0.068 A 
HETATM   26  C   UNL     1       8.297  31.033  58.402  1.00  0.00     0.039 A 
HETATM   27  C   UNL     1       7.172  31.250  59.216  1.00  0.00     0.034 A 
BRANCH  25  28
HETATM   28  O   UNL     1      10.698  31.424  58.043  1.00  0.00    -0.356 OA
HETATM   29  C   UNL     1      10.860  30.222  57.300  1.00  0.00     0.210 C 
ENDBRANCH  25  28
ENDBRANCH   4  22
TORSDOF 6
ENDMDL
MODEL 8
REMARK VINA RESULT:      -7.5      4.571     10.623
REMARK  6 active torsions:
REMARK  status: ('A' for Active; 'I' for Inactive)
REMARK    1  A    between atoms: C_2  and  C_3 
REMARK    2  A    between atoms: C_3  and  C_4 
REMARK    3  A    between atoms: C_4  and  N_5 
REMARK       I    between atoms: N_5  and  C_6 
REMARK       I    between atoms: C_6  and  N_7 
REMARK    4  A    between atoms: N_7  and  C_8 
REMARK    5  A    between atoms: N_11  and  C_12 
REMARK    6  A    between atoms: C_15  and  O_16 
ROOT
HETATM    1  C   UNL     1       6.415  32.519  60.362  1.00  0.00     0.123 C 
HETATM    2  C   UNL     1       6.029  31.693  59.190  1.00  0.00     0.009 A 
HETATM    3  C   UNL     1       6.881  30.852  58.496  1.00  0.00     0.047 A 
HETATM    4  N   UNL     1       6.087  30.136  57.602  1.00  0.00    -0.238 N 
HETATM    5  N   UNL     1       4.803  30.605  57.634  1.00  0.00    -0.179 NA
HETATM    6  C   UNL     1       4.777  31.521  58.595  1.00  0.00     0.150 A 
HETATM    7  C   UNL     1       8.349  30.737  58.747  1.00  0.00     0.069 C 
HETATM    8  C   UNL     1       8.806  31.477  60.049  1.00  0.00    -0.040 C 
HETATM    9  C   UNL     1      10.268  31.939  59.859  1.00  0.00     0.015 C 
HETATM   10  C   UNL     1       8.788  30.489  61.234  1.00  0.00     0.015 C 
HETATM   11  C   UNL     1       7.942  32.739  60.371  1.00  0.00     0.039 C 
ENDROOT
BRANCH   1  12
HETATM   12  N   UNL     1       5.925  31.806  61.528  1.00  0.00    -0.334 N 
HETATM   13  C   UNL     1       5.217  32.212  62.601  1.00  0.00     0.316 C 
HETATM   14  N   UNL     1       5.013  33.549  62.740  1.00  0.00    -0.343 N 
HETATM   15  O   UNL     1       4.807  31.371  63.392  1.00  0.00    -0.247 OA
HETATM   16  H   UNL     1       5.157  34.125  61.929  1.00  0.00     0.164 HD
HETATM   17  H   UNL     1       6.046  30.799  61.537  1.00  0.00     0.165 HD
BRANCH  14  18
HETATM   18  C   UNL     1       4.114  34.069  63.751  1.00  0.00     0.124 C 
BRANCH  18  19
HETATM   19  C   UNL     1       4.777  34.820  64.910  1.00  0.00     0.019 C 
BRANCH  19  20
HETATM   20  C   UNL     1       5.526  33.939  65.912  1.00  0.00    -0.003 C 
HETATM   21  C   UNL     1       7.008  33.782  65.615  1.00  0.00     0.005 C 
ENDBRANCH  19  20
ENDBRANCH  18  19
ENDBRANCH  14  18
ENDBRANCH   1  12
BRANCH   4  22
HETATM   22  C   UNL     1       6.377  29.009  56.771  1.00  0.00     0.058 A 
HETATM   23  C   UNL     1       6.860  27.838  57.380  1.00  0.00     0.034 A 
HETATM   24  C   UNL     1       7.264  26.743  56.612  1.00  0.00     0.039 A 
HETATM   25  C   UNL     1       7.190  26.789  55.223  1.00  0.00     0.068 A 
HETATM   26  C   UNL     1       6.656  27.922  54.611  1.00  0.00     0.039 A 
HETATM   27  C   UNL     1       6.248  29.025  55.380  1.00  0.00     0.034 A 
BRANCH  25  28
HETATM   28  O   UNL     1       7.649  25.673  54.583  1.00  0.00    -0.356 OA
HETATM   29  C   UNL     1       7.522  24.443  55.287  1.00  0.00     0.210 C 
ENDBRANCH  25  28
ENDBRANCH   4  22
TORSDOF 6
ENDMDL
MODEL 9
REMARK VINA RESULT:      -7.3      3.793      6.648
REMARK  6 active torsions:
REMARK  status: ('A' for Active; 'I' for Inactive)
REMARK    1  A    between atoms: C_2  and  C_3 
REMARK    2  A    between atoms: C_3  and  C_4 
REMARK    3  A    between atoms: C_4  and  N_5 
REMARK       I    between atoms: N_5  and  C_6 
REMARK       I    between atoms: C_6  and  N_7 
REMARK    4  A    between atoms: N_7  and  C_8 
REMARK    5  A    between atoms: N_11  and  C_12 
REMARK    6  A    between atoms: C_15  and  O_16 
ROOT
HETATM    1  C   UNL     1       6.569  29.644  56.666  1.00  0.00     0.123 C 
HETATM    2  C   UNL     1       7.201  30.110  57.926  1.00  0.00     0.009 A 
HETATM    3  C   UNL     1       6.731  31.148  58.713  1.00  0.00     0.047 A 
HETATM    4  N   UNL     1       7.495  31.134  59.879  1.00  0.00    -0.238 N 
HETATM    5  N   UNL     1       8.498  30.211  59.774  1.00  0.00    -0.179 NA
HETATM    6  C   UNL     1       8.303  29.597  58.614  1.00  0.00     0.150 A 
HETATM    7  C   UNL     1       5.585  32.034  58.352  1.00  0.00     0.069 C 
HETATM    8  C   UNL     1       4.789  31.525  57.104  1.00  0.00    -0.040 C 
HETATM    9  C   UNL     1       4.177  32.749  56.384  1.00  0.00     0.015 C 
HETATM   10  C   UNL     1       3.618  30.636  57.571  1.00  0.00     0.015 C 
HETATM   11  C   UNL     1       5.685  30.762  56.075  1.00  0.00     0.039 C 
ENDROOT
BRANCH   1  12
HETATM   12  N   UNL     1       5.831  28.443  57.013  1.00  0.00    -0.334 N 
HETATM   13  C   UNL     1       5.595  27.303  56.334  1.00  0.00     0.316 C 
HETATM   14  N   UNL     1       5.976  27.267  55.030  1.00  0.00    -0.343 N 
HETATM   15  O   UNL     1       5.047  26.372  56.913  1.00  0.00    -0.247 OA
HETATM   16  H   UNL     1       6.633  27.962  54.721  1.00  0.00     0.164 HD
HETATM   17  H   UNL     1       5.481  28.376  57.962  1.00  0.00     0.165 HD
BRANCH  14  18
HETATM   18  C   UNL     1       5.935  26.033  54.270  1.00  0.00     0.124 C 
BRANCH  18  19
HETATM   19  C   UNL     1       4.787  25.908  53.263  1.00  0.00     0.019 C 
BRANCH  19  20
HETATM   20  C   UNL     1       5.110  25.098  52.006  1.00  0.00    -0.003 C 
HETATM   21  C   UNL     1       5.146  25.922  50.729  1.00  0.00     0.005 C 
ENDBRANCH  19  20
ENDBRANCH  18  19
ENDBRANCH  14  18
ENDBRANCH   1  12
BRANCH   4  22
HETATM   22  C   UNL     1       7.347  31.839  61.115  1.00  0.00     0.058 A 
HETATM   23  C   UNL     1       6.453  32.923  61.162  1.00  0.00     0.034 A 
HETATM   24  C   UNL     1       6.346  33.716  62.307  1.00  0.00     0.039 A 
HETATM   25  C   UNL     1       7.122  33.443  63.430  1.00  0.00     0.068 A 
HETATM   26  C   UNL     1       7.967  32.334  63.416  1.00  0.00     0.039 A 
HETATM   27  C   UNL     1       8.076  31.533  62.267  1.00  0.00     0.034 A 
BRANCH  25  28
HETATM   28  O   UNL     1       6.955  34.311  64.472  1.00  0.00    -0.356 OA
HETATM   29  C   UNL     1       6.933  33.740  65.774  1.00  0.00     0.210 C 
ENDBRANCH  25  28
ENDBRANCH   4  22
TORSDOF 6
ENDMDL
MODEL 10
REMARK VINA RESULT:      -7.1      2.892      5.645
REMARK  6 active torsions:
REMARK  status: ('A' for Active; 'I' for Inactive)
REMARK    1  A    between atoms: C_2  and  C_3 
REMARK    2  A    between atoms: C_3  and  C_4 
REMARK    3  A    between atoms: C_4  and  N_5 
REMARK       I    between atoms: N_5  and  C_6 
REMARK       I    between atoms: C_6  and  N_7 
REMARK    4  A    between atoms: N_7  and  C_8 
REMARK    5  A    between atoms: N_11  and  C_12 
REMARK    6  A    between atoms: C_15  and  O_16 
ROOT
HETATM    1  C   UNL     1       6.147  28.573  53.715  1.00  0.00     0.123 C 
HETATM    2  C   UNL     1       6.655  27.239  53.308  1.00  0.00     0.009 A 
HETATM    3  C   UNL     1       7.043  26.237  54.180  1.00  0.00     0.047 A 
HETATM    4  N   UNL     1       7.272  25.104  53.402  1.00  0.00    -0.238 N 
HETATM    5  N   UNL     1       7.165  25.415  52.075  1.00  0.00    -0.179 NA
HETATM    6  C   UNL     1       6.782  26.685  52.032  1.00  0.00     0.150 A 
HETATM    7  C   UNL     1       7.122  26.389  55.664  1.00  0.00     0.069 C 
HETATM    8  C   UNL     1       6.480  27.721  56.177  1.00  0.00    -0.040 C 
HETATM    9  C   UNL     1       7.206  28.143  57.474  1.00  0.00     0.015 C 
HETATM   10  C   UNL     1       5.002  27.471  56.541  1.00  0.00     0.015 C 
HETATM   11  C   UNL     1       6.605  28.895  55.153  1.00  0.00     0.039 C 
ENDROOT
BRANCH   1  12
HETATM   12  N   UNL     1       4.704  28.511  53.566  1.00  0.00    -0.334 N 
HETATM   13  C   UNL     1       3.891  28.808  52.532  1.00  0.00     0.316 C 
HETATM   14  N   UNL     1       4.456  29.410  51.452  1.00  0.00    -0.343 N 
HETATM   15  O   UNL     1       2.700  28.535  52.620  1.00  0.00    -0.247 OA
HETATM   16  H   UNL     1       5.456  29.360  51.366  1.00  0.00     0.164 HD
HETATM   17  H   UNL     1       4.180  28.096  54.328  1.00  0.00     0.165 HD
BRANCH  14  18
HETATM   18  C   UNL     1       3.709  29.601  50.225  1.00  0.00     0.124 C 
BRANCH  18  19
HETATM   19  C   UNL     1       4.189  28.788  49.018  1.00  0.00     0.019 C 
BRANCH  19  20
HETATM   20  C   UNL     1       3.995  27.275  49.136  1.00  0.00    -0.003 C 
HETATM   21  C   UNL     1       4.475  26.492  47.925  1.00  0.00     0.005 C 
ENDBRANCH  19  20
ENDBRANCH  18  19
ENDBRANCH  14  18
ENDBRANCH   1  12
BRANCH   4  22
HETATM   22  C   UNL     1       7.507  23.740  53.763  1.00  0.00     0.058 A 
HETATM   23  C   UNL     1       7.315  23.362  55.103  1.00  0.00     0.034 A 
HETATM   24  C   UNL     1       7.633  22.073  55.538  1.00  0.00     0.039 A 
HETATM   25  C   UNL     1       8.142  21.132  54.647  1.00  0.00     0.068 A 
HETATM   26  C   UNL     1       8.279  21.478  53.304  1.00  0.00     0.039 A 
HETATM   27  C   UNL     1       7.960  22.773  52.862  1.00  0.00     0.034 A 
BRANCH  25  28
HETATM   28  O   UNL     1       8.449  19.921  55.200  1.00  0.00    -0.356 OA
HETATM   29  C   UNL     1       9.459  19.920  56.202  1.00  0.00     0.210 C 
ENDBRANCH  25  28
ENDBRANCH   4  22
TORSDOF 6
ENDMDL
