MODEL 1
REMARK VINA RESULT:      -8.6      0.000      0.000
REMARK  14 active torsions:
REMARK  status: ('A' for Active; 'I' for Inactive)
REMARK    1  A    between atoms: C_2  and  N_3 
REMARK    2  A    between atoms: N_3  and  C_5 
REMARK    3  A    between atoms: N_3  and  C_37 
REMARK    4  A    between atoms: C_5  and  C_6 
REMARK    5  A    between atoms: C_6  and  N_7 
REMARK    6  A    between atoms: C_10  and  O_11 
REMARK    7  A    between atoms: C_12  and  C_13 
REMARK    8  A    between atoms: C_13  and  C_14 
REMARK    9  A    between atoms: C_18  and  O_19 
REMARK   10  A    between atoms: O_19  and  C_20 
REMARK   11  A    between atoms: C_26  and  C_27 
REMARK   12  A    between atoms: C_29  and  O_30 
REMARK   13  A    between atoms: O_30  and  C_31 
REMARK   14  A    between atoms: C_33  and  O_34 
ROOT
HETATM    1  N   UNL     1       4.788  29.948  55.594  1.00  0.00    -0.332 N 
HETATM    2  C   UNL     1       4.277  29.465  54.414  1.00  0.00     0.278 C 
HETATM    3  O   UNL     1       3.799  30.114  53.500  1.00  0.00    -0.265 OA
HETATM    4  C   UNL     1       4.373  27.990  54.456  1.00  0.00     0.146 C 
HETATM    5  C   UNL     1       4.946  27.663  55.622  1.00  0.00     0.059 C 
HETATM    6  C   UNL     1       5.358  28.882  56.404  1.00  0.00     0.161 C 
ENDROOT
BRANCH   5   7
HETATM    7  C   UNL     1       5.212  26.355  56.260  1.00  0.00     0.193 C 
HETATM    8  O   UNL     1       4.594  26.049  57.279  1.00  0.00    -0.287 OA
BRANCH   7   9
HETATM    9  C   UNL     1       6.203  25.400  55.730  1.00  0.00     0.015 A 
HETATM   10  C   UNL     1       6.510  25.329  54.370  1.00  0.00     0.025 A 
HETATM   11  C   UNL     1       7.397  24.348  53.896  1.00  0.00    -0.028 A 
HETATM   12  C   UNL     1       7.735  24.286  52.431  1.00  0.00     0.051 C 
HETATM   13  C   UNL     1       7.913  23.396  54.792  1.00  0.00     0.075 A 
HETATM   14  C   UNL     1       7.611  23.475  56.152  1.00  0.00     0.038 A 
HETATM   15  C   UNL     1       6.747  24.469  56.619  1.00  0.00     0.018 A 
BRANCH  13  16
HETATM   16  O   UNL     1       8.735  22.436  54.264  1.00  0.00    -0.346 OA
BRANCH  16  17
HETATM   17  C   UNL     1       8.210  21.101  54.198  1.00  0.00     0.121 C 
HETATM   18  C   UNL     1       8.405  20.494  52.808  1.00  0.00     0.040 C 
HETATM   19  C   UNL     1       8.985  20.281  55.229  1.00  0.00     0.040 C 
ENDBRANCH  16  17
ENDBRANCH  13  16
ENDBRANCH   7   9
ENDBRANCH   5   7
BRANCH   4  20
HETATM   20  O   UNL     1       3.896  27.194  53.462  1.00  0.00    -0.355 OA
HETATM   21  H   UNL     1       4.392  26.350  53.510  1.00  0.00     0.218 HD
ENDBRANCH   4  20
BRANCH   6  22
HETATM   22  C   UNL     1       6.859  29.062  56.577  1.00  0.00    -0.028 A 
HETATM   23  C   UNL     1       7.373  29.375  57.853  1.00  0.00     0.049 A 
HETATM   24  C   UNL     1       8.735  29.621  58.032  1.00  0.00     0.102 A 
HETATM   25  C   UNL     1       9.584  29.538  56.926  1.00  0.00     0.099 A 
HETATM   26  C   UNL     1       9.108  29.206  55.665  1.00  0.00     0.040 A 
HETATM   27  C   UNL     1       7.747  28.967  55.489  1.00  0.00     0.012 A 
BRANCH  24  28
HETATM   28  O   UNL     1       9.348  29.967  59.208  1.00  0.00    -0.349 OA
BRANCH  28  29
HETATM   29  C   UNL     1       8.563  30.680  60.164  1.00  0.00     0.171 C 
HETATM   30  C   UNL     1       9.239  30.544  61.517  1.00  0.00     0.034 C 
ENDBRANCH  28  29
ENDBRANCH  24  28
BRANCH  25  31
HETATM   31  O   UNL     1      10.922  29.784  57.062  1.00  0.00    -0.358 OA
HETATM   32  H   UNL     1      11.028  30.744  56.909  1.00  0.00     0.218 HD
ENDBRANCH  25  31
ENDBRANCH   6  22
BRANCH   1  33
HETATM   33  C   UNL     1       4.992  31.364  55.857  1.00  0.00     0.155 C 
BRANCH  33  34
HETATM   34  C   UNL     1       3.698  32.076  56.283  1.00  0.00     0.254 C 
BRANCH  34  35
HETATM   35  N   UNL     1       3.799  32.773  57.637  1.00  0.00    -0.070 N 
HETATM   36  H   UNL     1       2.881  33.214  57.787  1.00  0.00     0.279 HD
BRANCH  35  37
HETATM   37  C   UNL     1       4.802  33.920  57.669  1.00  0.00     0.230 C 
HETATM   38  C   UNL     1       4.401  35.035  56.720  1.00  0.00     0.034 C 
ENDBRANCH  35  37
BRANCH  35  39
HETATM   39  C   UNL     1       4.008  31.850  58.827  1.00  0.00     0.230 C 
HETATM   40  C   UNL     1       5.269  32.205  59.593  1.00  0.00     0.034 C 
ENDBRANCH  35  39
ENDBRANCH  34  35
ENDBRANCH  33  34
ENDBRANCH   1  33
TORSDOF 14
ENDMDL
MODEL 2
REMARK VINA RESULT:      -7.9      2.893      6.631
REMARK  14 active torsions:
REMARK  status: ('A' for Active; 'I' for Inactive)
REMARK    1  A    between atoms: C_2  and  N_3 
REMARK    2  A    between atoms: N_3  and  C_5 
REMARK    3  A    between atoms: N_3  and  C_37 
REMARK    4  A    between atoms: C_5  and  C_6 
REMARK    5  A    between atoms: C_6  and  N_7 
REMARK    6  A    between atoms: C_10  and  O_11 
REMARK    7  A    between atoms: C_12  and  C_13 
REMARK    8  A    between atoms: C_13  and  C_14 
REMARK    9  A    between atoms: C_18  and  O_19 
REMARK   10  A    between atoms: O_19  and  C_20 
REMARK   11  A    between atoms: C_26  and  C_27 
REMARK   12  A    between atoms: C_29  and  O_30 
REMARK   13  A    between atoms: O_30  and  C_31 
REMARK   14  A    between atoms: C_33  and  O_34 
ROOT
HETATM    1  N   UNL     1       7.479  26.177  56.556  1.00  0.00    -0.332 N 
HETATM    2  C   UNL     1       6.215  25.957  57.049  1.00  0.00     0.278 C 
HETATM    3  O   UNL     1       5.866  25.069  57.805  1.00  0.00    -0.265 OA
HETATM    4  C   UNL     1       5.323  26.981  56.463  1.00  0.00     0.146 C 
HETATM    5  C   UNL     1       6.079  27.766  55.683  1.00  0.00     0.059 C 
HETATM    6  C   UNL     1       7.536  27.390  55.755  1.00  0.00     0.161 C 
ENDROOT
BRANCH   5   7
HETATM    7  C   UNL     1       5.736  28.884  54.777  1.00  0.00     0.193 C 
HETATM    8  O   UNL     1       5.824  30.040  55.190  1.00  0.00    -0.287 OA
BRANCH   7   9
HETATM    9  C   UNL     1       5.277  28.670  53.392  1.00  0.00     0.015 A 
HETATM   10  C   UNL     1       4.190  29.364  52.855  1.00  0.00     0.025 A 
HETATM   11  C   UNL     1       3.733  29.070  51.560  1.00  0.00    -0.028 A 
HETATM   12  C   UNL     1       2.572  29.831  50.982  1.00  0.00     0.051 C 
HETATM   13  C   UNL     1       4.332  28.021  50.840  1.00  0.00     0.075 A 
HETATM   14  C   UNL     1       5.423  27.335  51.377  1.00  0.00     0.038 A 
HETATM   15  C   UNL     1       5.888  27.651  52.656  1.00  0.00     0.018 A 
BRANCH  13  16
HETATM   16  O   UNL     1       3.814  27.750  49.602  1.00  0.00    -0.346 OA
BRANCH  16  17
HETATM   17  C   UNL     1       4.632  26.967  48.718  1.00  0.00     0.121 C 
HETATM   18  C   UNL     1       3.809  25.896  48.001  1.00  0.00     0.040 C 
HETATM   19  C   UNL     1       5.213  27.939  47.692  1.00  0.00     0.040 C 
ENDBRANCH  16  17
ENDBRANCH  13  16
ENDBRANCH   7   9
ENDBRANCH   5   7
BRANCH   4  20
HETATM   20  O   UNL     1       3.984  27.011  56.698  1.00  0.00    -0.355 OA
HETATM   21  H   UNL     1       3.561  27.374  55.892  1.00  0.00     0.218 HD
ENDBRANCH   4  20
BRANCH   6  22
HETATM   22  C   UNL     1       8.441  28.433  56.395  1.00  0.00    -0.028 A 
HETATM   23  C   UNL     1       8.194  28.838  57.723  1.00  0.00     0.049 A 
HETATM   24  C   UNL     1       8.957  29.846  58.314  1.00  0.00     0.102 A 
HETATM   25  C   UNL     1       9.981  30.437  57.570  1.00  0.00     0.099 A 
HETATM   26  C   UNL     1      10.262  30.039  56.271  1.00  0.00     0.040 A 
HETATM   27  C   UNL     1       9.494  29.037  55.682  1.00  0.00     0.012 A 
BRANCH  24  28
HETATM   28  O   UNL     1       8.795  30.350  59.577  1.00  0.00    -0.349 OA
BRANCH  28  29
HETATM   29  C   UNL     1       7.716  31.264  59.778  1.00  0.00     0.171 C 
HETATM   30  C   UNL     1       8.265  32.483  60.497  1.00  0.00     0.034 C 
ENDBRANCH  28  29
ENDBRANCH  24  28
BRANCH  25  31
HETATM   31  O   UNL     1      10.742  31.436  58.113  1.00  0.00    -0.358 OA
HETATM   32  H   UNL     1      11.591  31.016  58.352  1.00  0.00     0.218 HD
ENDBRANCH  25  31
ENDBRANCH   6  22
BRANCH   1  33
HETATM   33  C   UNL     1       8.653  25.455  57.018  1.00  0.00     0.155 C 
BRANCH  33  34
HETATM   34  C   UNL     1       8.988  24.245  56.131  1.00  0.00     0.254 C 
BRANCH  34  35
HETATM   35  N   UNL     1       7.875  23.201  56.071  1.00  0.00    -0.070 N 
HETATM   36  H   UNL     1       7.133  23.557  56.689  1.00  0.00     0.279 HD
BRANCH  35  37
HETATM   37  C   UNL     1       8.265  21.848  56.652  1.00  0.00     0.230 C 
HETATM   38  C   UNL     1       7.737  20.706  55.802  1.00  0.00     0.034 C 
ENDBRANCH  35  37
BRANCH  35  39
HETATM   39  C   UNL     1       7.223  23.028  54.708  1.00  0.00     0.230 C 
HETATM   40  C   UNL     1       7.809  23.986  53.686  1.00  0.00     0.034 C 
ENDBRANCH  35  39
ENDBRANCH  34  35
ENDBRANCH  33  34
ENDBRANCH   1  33
TORSDOF 14
ENDMDL
MODEL 3
REMARK VINA RESULT:      -7.7      5.627      9.901
REMARK  14 active torsions:
REMARK  status: ('A' for Active; 'I' for Inactive)
REMARK    1  A    between atoms: C_2  and  N_3 
REMARK    2  A    between atoms: N_3  and  C_5 
REMARK    3  A    between atoms: N_3  and  C_37 
REMARK    4  A    between atoms: C_5  and  C_6 
REMARK    5  A    between atoms: C_6  and  N_7 
REMARK    6  A    between atoms: C_10  and  O_11 
REMARK    7  A    between atoms: C_12  and  C_13 
REMARK    8  A    between atoms: C_13  and  C_14 
REMARK    9  A    between atoms: C_18  and  O_19 
REMARK   10  A    between atoms: O_19  and  C_20 
REMARK   11  A    between atoms: C_26  and  C_27 
REMARK   12  A    between atoms: C_29  and  O_30 
REMARK   13  A    between atoms: O_30  and  C_31 
REMARK   14  A    between atoms: C_33  and  O_34 
ROOT
HETATM    1  N   UNL     1       4.845  36.119  63.788  1.00  0.00    -0.332 N 
HETATM    2  C   UNL     1       4.768  35.631  65.070  1.00  0.00     0.278 C 
HETATM    3  O   UNL     1       4.641  36.276  66.095  1.00  0.00    -0.265 OA
HETATM    4  C   UNL     1       4.909  34.160  64.997  1.00  0.00     0.146 C 
HETATM    5  C   UNL     1       5.035  33.838  63.703  1.00  0.00     0.059 C 
HETATM    6  C   UNL     1       4.899  35.043  62.810  1.00  0.00     0.161 C 
ENDROOT
BRANCH   5   7
HETATM    7  C   UNL     1       5.299  32.548  63.027  1.00  0.00     0.193 C 
HETATM    8  O   UNL     1       4.788  31.522  63.472  1.00  0.00    -0.287 OA
BRANCH   7   9
HETATM    9  C   UNL     1       6.166  32.439  61.839  1.00  0.00     0.015 A 
HETATM   10  C   UNL     1       5.645  32.288  60.552  1.00  0.00     0.025 A 
HETATM   11  C   UNL     1       6.506  32.102  59.458  1.00  0.00    -0.028 A 
HETATM   12  C   UNL     1       5.940  31.956  58.072  1.00  0.00     0.051 C 
HETATM   13  C   UNL     1       7.890  31.996  59.681  1.00  0.00     0.075 A 
HETATM   14  C   UNL     1       8.408  32.156  60.968  1.00  0.00     0.038 A 
HETATM   15  C   UNL     1       7.546  32.365  62.047  1.00  0.00     0.018 A 
BRANCH  13  16
HETATM   16  O   UNL     1       8.675  31.769  58.583  1.00  0.00    -0.346 OA
BRANCH  16  17
HETATM   17  C   UNL     1       9.426  30.544  58.568  1.00  0.00     0.121 C 
HETATM   18  C   UNL     1       8.589  29.386  58.022  1.00  0.00     0.040 C 
HETATM   19  C   UNL     1      10.627  30.784  57.654  1.00  0.00     0.040 C 
ENDBRANCH  16  17
ENDBRANCH  13  16
ENDBRANCH   7   9
ENDBRANCH   5   7
BRANCH   4  20
HETATM   20  O   UNL     1       4.938  33.369  66.103  1.00  0.00    -0.355 OA
HETATM   21  H   UNL     1       4.573  32.498  65.840  1.00  0.00     0.218 HD
ENDBRANCH   4  20
BRANCH   6  22
HETATM   22  C   UNL     1       3.670  35.048  61.914  1.00  0.00    -0.028 A 
HETATM   23  C   UNL     1       3.800  35.449  60.568  1.00  0.00     0.049 A 
HETATM   24  C   UNL     1       2.681  35.538  59.739  1.00  0.00     0.102 A 
HETATM   25  C   UNL     1       1.428  35.207  60.264  1.00  0.00     0.099 A 
HETATM   26  C   UNL     1       1.276  34.784  61.577  1.00  0.00     0.040 A 
HETATM   27  C   UNL     1       2.395  34.702  62.403  1.00  0.00     0.012 A 
BRANCH  24  28
HETATM   28  O   UNL     1       2.671  35.947  58.432  1.00  0.00    -0.349 OA
BRANCH  28  29
HETATM   29  C   UNL     1       3.890  36.474  57.907  1.00  0.00     0.171 C 
HETATM   30  C   UNL     1       4.536  35.396  57.055  1.00  0.00     0.034 C 
ENDBRANCH  28  29
ENDBRANCH  24  28
BRANCH  25  31
HETATM   31  O   UNL     1       0.308  35.294  59.484  1.00  0.00    -0.358 OA
HETATM   32  H   UNL     1       0.373  34.551  58.852  1.00  0.00     0.218 HD
ENDBRANCH  25  31
ENDBRANCH   6  22
BRANCH   1  33
HETATM   33  C   UNL     1       4.605  37.512  63.448  1.00  0.00     0.155 C 
BRANCH  33  34
HETATM   34  C   UNL     1       5.902  38.334  63.382  1.00  0.00     0.254 C 
BRANCH  34  35
HETATM   35  N   UNL     1       6.397  38.587  61.960  1.00  0.00    -0.070 N 
HETATM   36  H   UNL     1       6.913  37.736  61.694  1.00  0.00     0.279 HD
BRANCH  35  37
HETATM   37  C   UNL     1       7.412  39.718  61.851  1.00  0.00     0.230 C 
HETATM   38  C   UNL     1       7.666  40.368  63.199  1.00  0.00     0.034 C 
ENDBRANCH  35  37
BRANCH  35  39
HETATM   39  C   UNL     1       5.305  38.746  60.913  1.00  0.00     0.230 C 
HETATM   40  C   UNL     1       5.880  39.140  59.565  1.00  0.00     0.034 C 
ENDBRANCH  35  39
ENDBRANCH  34  35
ENDBRANCH  33  34
ENDBRANCH   1  33
TORSDOF 14
ENDMDL
MODEL 4
REMARK VINA RESULT:      -7.4      3.431      7.200
REMARK  14 active torsions:
REMARK  status: ('A' for Active; 'I' for Inactive)
REMARK    1  A    between atoms: C_2  and  N_3 
REMARK    2  A    between atoms: N_3  and  C_5 
REMARK    3  A    between atoms: N_3  and  C_37 
REMARK    4  A    between atoms: C_5  and  C_6 
REMARK    5  A    between atoms: C_6  and  N_7 
REMARK    6  A    between atoms: C_10  and  O_11 
REMARK    7  A    between atoms: C_12  and  C_13 
REMARK    8  A    between atoms: C_13  and  C_14 
REMARK    9  A    between atoms: C_18  and  O_19 
REMARK   10  A    between atoms: O_19  and  C_20 
REMARK   11  A    between atoms: C_26  and  C_27 
REMARK   12  A    between atoms: C_29  and  O_30 
REMARK   13  A    between atoms: O_30  and  C_31 
REMARK   14  A    between atoms: C_33  and  O_34 
ROOT
HETATM    1  N   UNL     1       5.012  33.095  61.860  1.00  0.00    -0.332 N 
HETATM    2  C   UNL     1       5.423  32.058  62.663  1.00  0.00     0.278 C 
HETATM    3  O   UNL     1       4.907  31.684  63.701  1.00  0.00    -0.265 OA
HETATM    4  C   UNL     1       6.646  31.484  62.062  1.00  0.00     0.146 C 
HETATM    5  C   UNL     1       6.894  32.169  60.937  1.00  0.00     0.059 C 
HETATM    6  C   UNL     1       5.819  33.185  60.653  1.00  0.00     0.161 C 
ENDROOT
BRANCH   5   7
HETATM    7  C   UNL     1       8.017  32.117  59.975  1.00  0.00     0.193 C 
HETATM    8  O   UNL     1       8.827  33.043  59.949  1.00  0.00    -0.287 OA
BRANCH   7   9
HETATM    9  C   UNL     1       8.201  31.001  59.030  1.00  0.00     0.015 A 
HETATM   10  C   UNL     1       9.431  30.737  58.424  1.00  0.00     0.025 A 
HETATM   11  C   UNL     1       9.543  29.717  57.466  1.00  0.00    -0.028 A 
HETATM   12  C   UNL     1      10.874  29.428  56.827  1.00  0.00     0.051 C 
HETATM   13  C   UNL     1       8.391  29.015  57.070  1.00  0.00     0.075 A 
HETATM   14  C   UNL     1       7.165  29.275  57.684  1.00  0.00     0.038 A 
HETATM   15  C   UNL     1       7.067  30.275  58.654  1.00  0.00     0.018 A 
BRANCH  13  16
HETATM   16  O   UNL     1       8.554  28.063  56.098  1.00  0.00    -0.346 OA
BRANCH  16  17
HETATM   17  C   UNL     1       7.585  27.003  56.065  1.00  0.00     0.121 C 
HETATM   18  C   UNL     1       7.357  26.502  54.638  1.00  0.00     0.040 C 
HETATM   19  C   UNL     1       8.153  25.872  56.921  1.00  0.00     0.040 C 
ENDBRANCH  16  17
ENDBRANCH  13  16
ENDBRANCH   7   9
ENDBRANCH   5   7
BRANCH   4  20
HETATM   20  O   UNL     1       7.346  30.474  62.642  1.00  0.00    -0.355 OA
HETATM   21  H   UNL     1       8.214  30.844  62.908  1.00  0.00     0.218 HD
ENDBRANCH   4  20
BRANCH   6  22
HETATM   22  C   UNL     1       4.986  32.912  59.410  1.00  0.00    -0.028 A 
HETATM   23  C   UNL     1       4.928  33.887  58.391  1.00  0.00     0.049 A 
HETATM   24  C   UNL     1       4.114  33.702  57.273  1.00  0.00     0.102 A 
HETATM   25  C   UNL     1       3.366  32.525  57.173  1.00  0.00     0.099 A 
HETATM   26  C   UNL     1       3.425  31.539  58.147  1.00  0.00     0.040 A 
HETATM   27  C   UNL     1       4.235  31.730  59.265  1.00  0.00     0.012 A 
BRANCH  24  28
HETATM   28  O   UNL     1       3.945  34.584  56.239  1.00  0.00    -0.349 OA
BRANCH  28  29
HETATM   29  C   UNL     1       5.053  34.773  55.359  1.00  0.00     0.171 C 
HETATM   30  C   UNL     1       5.488  36.225  55.460  1.00  0.00     0.034 C 
ENDBRANCH  28  29
ENDBRANCH  24  28
BRANCH  25  31
HETATM   31  O   UNL     1       2.549  32.316  56.097  1.00  0.00    -0.358 OA
HETATM   32  H   UNL     1       3.109  32.471  55.310  1.00  0.00     0.218 HD
ENDBRANCH  25  31
ENDBRANCH   6  22
BRANCH   1  33
HETATM   33  C   UNL     1       3.761  33.809  62.055  1.00  0.00     0.155 C 
BRANCH  33  34
HETATM   34  C   UNL     1       3.976  35.296  62.376  1.00  0.00     0.254 C 
BRANCH  34  35
HETATM   35  N   UNL     1       3.527  35.692  63.781  1.00  0.00    -0.070 N 
HETATM   36  H   UNL     1       2.654  36.222  63.649  1.00  0.00     0.279 HD
BRANCH  35  37
HETATM   37  C   UNL     1       4.476  36.655  64.484  1.00  0.00     0.230 C 
HETATM   38  C   UNL     1       5.589  37.113  63.559  1.00  0.00     0.034 C 
ENDBRANCH  35  37
BRANCH  35  39
HETATM   39  C   UNL     1       3.168  34.533  64.696  1.00  0.00     0.230 C 
HETATM   40  C   UNL     1       4.193  34.358  65.801  1.00  0.00     0.034 C 
ENDBRANCH  35  39
ENDBRANCH  34  35
ENDBRANCH  33  34
ENDBRANCH   1  33
TORSDOF 14
ENDMDL
MODEL 5
REMARK VINA RESULT:      -7.3      2.941      9.300
REMARK  14 active torsions:
REMARK  status: ('A' for Active; 'I' for Inactive)
REMARK    1  A    between atoms: C_2  and  N_3 
REMARK    2  A    between atoms: N_3  and  C_5 
REMARK    3  A    between atoms: N_3  and  C_37 
REMARK    4  A    between atoms: C_5  and  C_6 
REMARK    5  A    between atoms: C_6  and  N_7 
REMARK    6  A    between atoms: C_10  and  O_11 
REMARK    7  A    between atoms: C_12  and  C_13 
REMARK    8  A    between atoms: C_13  and  C_14 
REMARK    9  A    between atoms: C_18  and  O_19 
REMARK   10  A    between atoms: O_19  and  C_20 
REMARK   11  A    between atoms: C_26  and  C_27 
REMARK   12  A    between atoms: C_29  and  O_30 
REMARK   13  A    between atoms: O_30  and  C_31 
REMARK   14  A    between atoms: C_33  and  O_34 
ROOT
HETATM    1  N   UNL     1       8.409  28.765  57.725  1.00  0.00    -0.332 N 
HETATM    2  C   UNL     1       9.488  29.611  57.638  1.00  0.00     0.278 C 
HETATM    3  O   UNL     1      10.632  29.315  57.343  1.00  0.00    -0.265 OA
HETATM    4  C   UNL     1       9.024  30.966  58.009  1.00  0.00     0.146 C 
HETATM    5  C   UNL     1       7.713  30.878  58.271  1.00  0.00     0.059 C 
HETATM    6  C   UNL     1       7.183  29.493  58.012  1.00  0.00     0.161 C 
ENDROOT
BRANCH   5   7
HETATM    7  C   UNL     1       6.737  31.869  58.777  1.00  0.00     0.193 C 
HETATM    8  O   UNL     1       6.266  32.698  57.999  1.00  0.00    -0.287 OA
BRANCH   7   9
HETATM    9  C   UNL     1       6.310  31.913  60.187  1.00  0.00     0.015 A 
HETATM   10  C   UNL     1       5.064  32.414  60.570  1.00  0.00     0.025 A 
HETATM   11  C   UNL     1       4.730  32.517  61.930  1.00  0.00    -0.028 A 
HETATM   12  C   UNL     1       3.381  33.043  62.335  1.00  0.00     0.051 C 
HETATM   13  C   UNL     1       5.689  32.180  62.901  1.00  0.00     0.075 A 
HETATM   14  C   UNL     1       6.931  31.671  62.516  1.00  0.00     0.038 A 
HETATM   15  C   UNL     1       7.246  31.550  61.160  1.00  0.00     0.018 A 
BRANCH  13  16
HETATM   16  O   UNL     1       5.323  32.344  64.211  1.00  0.00    -0.346 OA
BRANCH  16  17
HETATM   17  C   UNL     1       5.594  33.626  64.801  1.00  0.00     0.121 C 
HETATM   18  C   UNL     1       4.631  33.923  65.951  1.00  0.00     0.040 C 
HETATM   19  C   UNL     1       7.025  33.562  65.333  1.00  0.00     0.040 C 
ENDBRANCH  16  17
ENDBRANCH  13  16
ENDBRANCH   7   9
ENDBRANCH   5   7
BRANCH   4  20
HETATM   20  O   UNL     1       9.861  32.035  58.085  1.00  0.00    -0.355 OA
HETATM   21  H   UNL     1       9.560  32.580  58.841  1.00  0.00     0.218 HD
ENDBRANCH   4  20
BRANCH   6  22
HETATM   22  C   UNL     1       6.194  29.384  56.860  1.00  0.00    -0.028 A 
HETATM   23  C   UNL     1       6.653  28.957  55.596  1.00  0.00     0.049 A 
HETATM   24  C   UNL     1       5.789  28.919  54.500  1.00  0.00     0.102 A 
HETATM   25  C   UNL     1       4.457  29.299  54.681  1.00  0.00     0.099 A 
HETATM   26  C   UNL     1       3.974  29.698  55.919  1.00  0.00     0.040 A 
HETATM   27  C   UNL     1       4.840  29.740  57.010  1.00  0.00     0.012 A 
BRANCH  24  28
HETATM   28  O   UNL     1       6.120  28.559  53.221  1.00  0.00    -0.349 OA
BRANCH  28  29
HETATM   29  C   UNL     1       6.616  27.234  53.027  1.00  0.00     0.171 C 
HETATM   30  C   UNL     1       5.460  26.269  53.224  1.00  0.00     0.034 C 
ENDBRANCH  28  29
ENDBRANCH  24  28
BRANCH  25  31
HETATM   31  O   UNL     1       3.586  29.285  53.627  1.00  0.00    -0.358 OA
HETATM   32  H   UNL     1       4.143  29.184  52.830  1.00  0.00     0.218 HD
ENDBRANCH  25  31
ENDBRANCH   6  22
BRANCH   1  33
HETATM   33  C   UNL     1       8.447  27.376  57.297  1.00  0.00     0.155 C 
BRANCH  33  34
HETATM   34  C   UNL     1       7.562  26.467  58.166  1.00  0.00     0.254 C 
BRANCH  34  35
HETATM   35  N   UNL     1       7.432  25.044  57.631  1.00  0.00    -0.070 N 
HETATM   36  H   UNL     1       7.178  24.467  58.445  1.00  0.00     0.279 HD
BRANCH  35  37
HETATM   37  C   UNL     1       8.740  24.455  57.116  1.00  0.00     0.230 C 
HETATM   38  C   UNL     1       8.534  23.696  55.817  1.00  0.00     0.034 C 
ENDBRANCH  35  37
BRANCH  35  39
HETATM   39  C   UNL     1       6.317  24.833  56.618  1.00  0.00     0.230 C 
HETATM   40  C   UNL     1       5.108  25.693  56.935  1.00  0.00     0.034 C 
ENDBRANCH  35  39
ENDBRANCH  34  35
ENDBRANCH  33  34
ENDBRANCH   1  33
TORSDOF 14
ENDMDL
MODEL 6
REMARK VINA RESULT:      -7.3      2.325      7.725
REMARK  14 active torsions:
REMARK  status: ('A' for Active; 'I' for Inactive)
REMARK    1  A    between atoms: C_2  and  N_3 
REMARK    2  A    between atoms: N_3  and  C_5 
REMARK    3  A    between atoms: N_3  and  C_37 
REMARK    4  A    between atoms: C_5  and  C_6 
REMARK    5  A    between atoms: C_6  and  N_7 
REMARK    6  A    between atoms: C_10  and  O_11 
REMARK    7  A    between atoms: C_12  and  C_13 
REMARK    8  A    between atoms: C_13  and  C_14 
REMARK    9  A    between atoms: C_18  and  O_19 
REMARK   10  A    between atoms: O_19  and  C_20 
REMARK   11  A    between atoms: C_26  and  C_27 
REMARK   12  A    between atoms: C_29  and  O_30 
REMARK   13  A    between atoms: O_30  and  C_31 
REMARK   14  A    between atoms: C_33  and  O_34 
ROOT
HETATM    1  N   UNL     1       6.262  26.674  53.468  1.00  0.00    -0.332 N 
HETATM    2  C   UNL     1       4.967  26.284  53.221  1.00  0.00     0.278 C 
HETATM    3  O   UNL     1       4.565  25.149  53.036  1.00  0.00    -0.265 OA
HETATM    4  C   UNL     1       4.133  27.505  53.178  1.00  0.00     0.146 C 
HETATM    5  C   UNL     1       4.941  28.545  53.421  1.00  0.00     0.059 C 
HETATM    6  C   UNL     1       6.347  28.102  53.731  1.00  0.00     0.161 C 
ENDROOT
BRANCH   5   7
HETATM    7  C   UNL     1       4.702  30.006  53.412  1.00  0.00     0.193 C 
HETATM    8  O   UNL     1       4.887  30.637  52.372  1.00  0.00    -0.287 OA
BRANCH   7   9
HETATM    9  C   UNL     1       4.261  30.745  54.609  1.00  0.00     0.015 A 
HETATM   10  C   UNL     1       4.704  32.040  54.886  1.00  0.00     0.025 A 
HETATM   11  C   UNL     1       4.326  32.676  56.080  1.00  0.00    -0.028 A 
HETATM   12  C   UNL     1       4.793  34.077  56.366  1.00  0.00     0.051 C 
HETATM   13  C   UNL     1       3.560  31.970  57.024  1.00  0.00     0.075 A 
HETATM   14  C   UNL     1       3.112  30.679  56.740  1.00  0.00     0.038 A 
HETATM   15  C   UNL     1       3.472  30.062  55.539  1.00  0.00     0.018 A 
BRANCH  13  16
HETATM   16  O   UNL     1       3.261  32.625  58.188  1.00  0.00    -0.346 OA
BRANCH  16  17
HETATM   17  C   UNL     1       3.758  32.041  59.403  1.00  0.00     0.121 C 
HETATM   18  C   UNL     1       5.286  32.079  59.454  1.00  0.00     0.040 C 
HETATM   19  C   UNL     1       3.186  32.875  60.549  1.00  0.00     0.040 C 
ENDBRANCH  16  17
ENDBRANCH  13  16
ENDBRANCH   7   9
ENDBRANCH   5   7
BRANCH   4  20
HETATM   20  O   UNL     1       2.804  27.477  52.892  1.00  0.00    -0.355 OA
HETATM   21  H   UNL     1       2.496  28.407  52.879  1.00  0.00     0.218 HD
ENDBRANCH   4  20
BRANCH   6  22
HETATM   22  C   UNL     1       6.810  28.375  55.155  1.00  0.00    -0.028 A 
HETATM   23  C   UNL     1       8.167  28.681  55.390  1.00  0.00     0.049 A 
HETATM   24  C   UNL     1       8.641  28.862  56.691  1.00  0.00     0.102 A 
HETATM   25  C   UNL     1       7.743  28.748  57.755  1.00  0.00     0.099 A 
HETATM   26  C   UNL     1       6.399  28.474  57.549  1.00  0.00     0.040 A 
HETATM   27  C   UNL     1       5.930  28.289  56.250  1.00  0.00     0.012 A 
BRANCH  24  28
HETATM   28  O   UNL     1       9.936  29.126  57.051  1.00  0.00    -0.349 OA
BRANCH  28  29
HETATM   29  C   UNL     1      10.457  30.410  56.705  1.00  0.00     0.171 C 
HETATM   30  C   UNL     1      10.498  31.253  57.968  1.00  0.00     0.034 C 
ENDBRANCH  28  29
ENDBRANCH  24  28
BRANCH  25  31
HETATM   31  O   UNL     1       8.175  28.908  59.043  1.00  0.00    -0.358 OA
HETATM   32  H   UNL     1       7.802  29.762  59.339  1.00  0.00     0.218 HD
ENDBRANCH  25  31
ENDBRANCH   6  22
BRANCH   1  33
HETATM   33  C   UNL     1       7.344  25.737  53.720  1.00  0.00     0.155 C 
BRANCH  33  34
HETATM   34  C   UNL     1       7.122  24.911  54.998  1.00  0.00     0.254 C 
BRANCH  34  35
HETATM   35  N   UNL     1       7.692  23.497  54.922  1.00  0.00    -0.070 N 
HETATM   36  H   UNL     1       6.898  22.871  55.117  1.00  0.00     0.279 HD
BRANCH  35  37
HETATM   37  C   UNL     1       8.720  23.186  56.003  1.00  0.00     0.230 C 
HETATM   38  C   UNL     1       8.781  24.289  57.045  1.00  0.00     0.034 C 
ENDBRANCH  35  37
BRANCH  35  39
HETATM   39  C   UNL     1       8.213  23.082  53.555  1.00  0.00     0.230 C 
HETATM   40  C   UNL     1       7.901  21.626  53.260  1.00  0.00     0.034 C 
ENDBRANCH  35  39
ENDBRANCH  34  35
ENDBRANCH  33  34
ENDBRANCH   1  33
TORSDOF 14
ENDMDL
MODEL 7
REMARK VINA RESULT:      -7.3      2.907      7.109
REMARK  14 active torsions:
REMARK  status: ('A' for Active; 'I' for Inactive)
REMARK    1  A    between atoms: C_2  and  N_3 
REMARK    2  A    between atoms: N_3  and  C_5 
REMARK    3  A    between atoms: N_3  and  C_37 
REMARK    4  A    between atoms: C_5  and  C_6 
REMARK    5  A    between atoms: C_6  and  N_7 
REMARK    6  A    between atoms: C_10  and  O_11 
REMARK    7  A    between atoms: C_12  and  C_13 
REMARK    8  A    between atoms: C_13  and  C_14 
REMARK    9  A    between atoms: C_18  and  O_19 
REMARK   10  A    between atoms: O_19  and  C_20 
REMARK   11  A    between atoms: C_26  and  C_27 
REMARK   12  A    between atoms: C_29  and  O_30 
REMARK   13  A    between atoms: O_30  and  C_31 
REMARK   14  A    between atoms: C_33  and  O_34 
ROOT
HETATM    1  N   UNL     1       6.837  26.331  55.995  1.00  0.00    -0.332 N 
HETATM    2  C   UNL     1       5.624  26.189  56.625  1.00  0.00     0.278 C 
HETATM    3  O   UNL     1       5.254  25.247  57.303  1.00  0.00    -0.265 OA
HETATM    4  C   UNL     1       4.811  27.382  56.301  1.00  0.00     0.146 C 
HETATM    5  C   UNL     1       5.564  28.178  55.531  1.00  0.00     0.059 C 
HETATM    6  C   UNL     1       6.956  27.632  55.354  1.00  0.00     0.161 C 
ENDROOT
BRANCH   5   7
HETATM    7  C   UNL     1       5.264  29.446  54.829  1.00  0.00     0.193 C 
HETATM    8  O   UNL     1       5.462  30.513  55.409  1.00  0.00    -0.287 OA
BRANCH   7   9
HETATM    9  C   UNL     1       4.723  29.485  53.458  1.00  0.00     0.015 A 
HETATM   10  C   UNL     1       5.249  28.698  52.431  1.00  0.00     0.025 A 
HETATM   11  C   UNL     1       4.760  28.827  51.121  1.00  0.00    -0.028 A 
HETATM   12  C   UNL     1       5.319  27.966  50.022  1.00  0.00     0.051 C 
HETATM   13  C   UNL     1       3.791  29.807  50.841  1.00  0.00     0.075 A 
HETATM   14  C   UNL     1       3.263  30.586  51.871  1.00  0.00     0.038 A 
HETATM   15  C   UNL     1       3.737  30.434  53.176  1.00  0.00     0.018 A 
BRANCH  13  16
HETATM   16  O   UNL     1       3.387  29.918  49.537  1.00  0.00    -0.346 OA
BRANCH  16  17
HETATM   17  C   UNL     1       1.973  29.857  49.292  1.00  0.00     0.121 C 
HETATM   18  C   UNL     1       1.597  30.604  48.012  1.00  0.00     0.040 C 
HETATM   19  C   UNL     1       1.623  28.377  49.145  1.00  0.00     0.040 C 
ENDBRANCH  16  17
ENDBRANCH  13  16
ENDBRANCH   7   9
ENDBRANCH   5   7
BRANCH   4  20
HETATM   20  O   UNL     1       3.526  27.531  56.720  1.00  0.00    -0.355 OA
HETATM   21  H   UNL     1       3.013  27.863  55.954  1.00  0.00     0.218 HD
ENDBRANCH   4  20
BRANCH   6  22
HETATM   22  C   UNL     1       8.061  28.462  55.990  1.00  0.00    -0.028 A 
HETATM   23  C   UNL     1       7.973  28.793  57.359  1.00  0.00     0.049 A 
HETATM   24  C   UNL     1       8.930  29.616  57.955  1.00  0.00     0.102 A 
HETATM   25  C   UNL     1       9.986  30.094  57.175  1.00  0.00     0.099 A 
HETATM   26  C   UNL     1      10.110  29.762  55.834  1.00  0.00     0.040 A 
HETATM   27  C   UNL     1       9.151  28.945  55.240  1.00  0.00     0.012 A 
BRANCH  24  28
HETATM   28  O   UNL     1       8.937  30.037  59.259  1.00  0.00    -0.349 OA
BRANCH  28  29
HETATM   29  C   UNL     1       8.050  31.103  59.602  1.00  0.00     0.171 C 
HETATM   30  C   UNL     1       8.688  31.898  60.727  1.00  0.00     0.034 C 
ENDBRANCH  28  29
ENDBRANCH  24  28
BRANCH  25  31
HETATM   31  O   UNL     1      10.935  30.912  57.724  1.00  0.00    -0.358 OA
HETATM   32  H   UNL     1      10.985  30.657  58.667  1.00  0.00     0.218 HD
ENDBRANCH  25  31
ENDBRANCH   6  22
BRANCH   1  33
HETATM   33  C   UNL     1       7.953  25.421  56.196  1.00  0.00     0.155 C 
BRANCH  33  34
HETATM   34  C   UNL     1       8.239  24.557  54.958  1.00  0.00     0.254 C 
BRANCH  34  35
HETATM   35  N   UNL     1       8.683  23.135  55.290  1.00  0.00    -0.070 N 
HETATM   36  H   UNL     1       9.710  23.146  55.226  1.00  0.00     0.279 HD
BRANCH  35  37
HETATM   37  C   UNL     1       8.231  22.093  54.273  1.00  0.00     0.230 C 
HETATM   38  C   UNL     1       7.759  22.743  52.985  1.00  0.00     0.034 C 
ENDBRANCH  35  37
BRANCH  35  39
HETATM   39  C   UNL     1       8.367  22.672  56.704  1.00  0.00     0.230 C 
HETATM   40  C   UNL     1       8.393  21.159  56.812  1.00  0.00     0.034 C 
ENDBRANCH  35  39
ENDBRANCH  34  35
ENDBRANCH  33  34
ENDBRANCH   1  33
TORSDOF 14
ENDMDL
MODEL 8
REMARK VINA RESULT:      -7.2      2.554      5.110
REMARK  14 active torsions:
REMARK  status: ('A' for Active; 'I' for Inactive)
REMARK    1  A    between atoms: C_2  and  N_3 
REMARK    2  A    between atoms: N_3  and  C_5 
REMARK    3  A    between atoms: N_3  and  C_37 
REMARK    4  A    between atoms: C_5  and  C_6 
REMARK    5  A    between atoms: C_6  and  N_7 
REMARK    6  A    between atoms: C_10  and  O_11 
REMARK    7  A    between atoms: C_12  and  C_13 
REMARK    8  A    between atoms: C_13  and  C_14 
REMARK    9  A    between atoms: C_18  and  O_19 
REMARK   10  A    between atoms: O_19  and  C_20 
REMARK   11  A    between atoms: C_26  and  C_27 
REMARK   12  A    between atoms: C_29  and  O_30 
REMARK   13  A    between atoms: O_30  and  C_31 
REMARK   14  A    between atoms: C_33  and  O_34 
ROOT
HETATM    1  N   UNL     1       4.311  30.210  54.870  1.00  0.00    -0.332 N 
HETATM    2  C   UNL     1       3.920  29.808  56.124  1.00  0.00     0.278 C 
HETATM    3  O   UNL     1       2.930  30.169  56.735  1.00  0.00    -0.265 OA
HETATM    4  C   UNL     1       4.946  28.872  56.633  1.00  0.00     0.146 C 
HETATM    5  C   UNL     1       5.871  28.738  55.674  1.00  0.00     0.059 C 
HETATM    6  C   UNL     1       5.498  29.494  54.426  1.00  0.00     0.161 C 
ENDROOT
BRANCH   5   7
HETATM    7  C   UNL     1       7.165  28.019  55.642  1.00  0.00     0.193 C 
HETATM    8  O   UNL     1       8.195  28.625  55.935  1.00  0.00    -0.287 OA
BRANCH   7   9
HETATM    9  C   UNL     1       7.274  26.600  55.258  1.00  0.00     0.015 A 
HETATM   10  C   UNL     1       7.584  26.205  53.955  1.00  0.00     0.025 A 
HETATM   11  C   UNL     1       7.596  24.844  53.612  1.00  0.00    -0.028 A 
HETATM   12  C   UNL     1       7.945  24.424  52.210  1.00  0.00     0.051 C 
HETATM   13  C   UNL     1       7.221  23.889  54.573  1.00  0.00     0.075 A 
HETATM   14  C   UNL     1       6.920  24.286  55.877  1.00  0.00     0.038 A 
HETATM   15  C   UNL     1       6.934  25.640  56.216  1.00  0.00     0.018 A 
BRANCH  13  16
HETATM   16  O   UNL     1       7.206  22.581  54.168  1.00  0.00    -0.346 OA
BRANCH  16  17
HETATM   17  C   UNL     1       8.273  21.745  54.644  1.00  0.00     0.121 C 
HETATM   18  C   UNL     1       7.776  20.755  55.698  1.00  0.00     0.040 C 
HETATM   19  C   UNL     1       8.799  20.982  53.430  1.00  0.00     0.040 C 
ENDBRANCH  16  17
ENDBRANCH  13  16
ENDBRANCH   7   9
ENDBRANCH   5   7
BRANCH   4  20
HETATM   20  O   UNL     1       4.893  28.331  57.880  1.00  0.00    -0.355 OA
HETATM   21  H   UNL     1       5.760  27.903  58.042  1.00  0.00     0.218 HD
ENDBRANCH   4  20
BRANCH   6  22
HETATM   22  C   UNL     1       5.199  28.627  53.212  1.00  0.00    -0.028 A 
HETATM   23  C   UNL     1       5.630  29.054  51.938  1.00  0.00     0.049 A 
HETATM   24  C   UNL     1       5.307  28.322  50.794  1.00  0.00     0.102 A 
HETATM   25  C   UNL     1       4.560  27.150  50.935  1.00  0.00     0.099 A 
HETATM   26  C   UNL     1       4.145  26.695  52.178  1.00  0.00     0.040 A 
HETATM   27  C   UNL     1       4.465  27.430  53.318  1.00  0.00     0.012 A 
BRANCH  24  28
HETATM   28  O   UNL     1       5.635  28.648  49.505  1.00  0.00    -0.349 OA
BRANCH  28  29
HETATM   29  C   UNL     1       4.757  29.540  48.817  1.00  0.00     0.171 C 
HETATM   30  C   UNL     1       5.373  30.927  48.858  1.00  0.00     0.034 C 
ENDBRANCH  28  29
ENDBRANCH  24  28
BRANCH  25  31
HETATM   31  O   UNL     1       4.215  26.415  49.835  1.00  0.00    -0.358 OA
HETATM   32  H   UNL     1       4.338  27.014  49.072  1.00  0.00     0.218 HD
ENDBRANCH  25  31
ENDBRANCH   6  22
BRANCH   1  33
HETATM   33  C   UNL     1       3.481  31.023  53.996  1.00  0.00     0.155 C 
BRANCH  33  34
HETATM   34  C   UNL     1       3.663  32.529  54.243  1.00  0.00     0.254 C 
BRANCH  34  35
HETATM   35  N   UNL     1       2.698  33.103  55.277  1.00  0.00    -0.070 N 
HETATM   36  H   UNL     1       2.109  32.311  55.570  1.00  0.00     0.279 HD
BRANCH  35  37
HETATM   37  C   UNL     1       1.729  34.134  54.712  1.00  0.00     0.230 C 
HETATM   38  C   UNL     1       0.614  33.473  53.921  1.00  0.00     0.034 C 
ENDBRANCH  35  37
BRANCH  35  39
HETATM   39  C   UNL     1       3.347  33.622  56.550  1.00  0.00     0.230 C 
HETATM   40  C   UNL     1       4.856  33.466  56.508  1.00  0.00     0.034 C 
ENDBRANCH  35  39
ENDBRANCH  34  35
ENDBRANCH  33  34
ENDBRANCH   1  33
TORSDOF 14
ENDMDL
MODEL 9
REMARK VINA RESULT:      -7.1      2.748      8.609
REMARK  14 active torsions:
REMARK  status: ('A' for Active; 'I' for Inactive)
REMARK    1  A    between atoms: C_2  and  N_3 
REMARK    2  A    between atoms: N_3  and  C_5 
REMARK    3  A    between atoms: N_3  and  C_37 
REMARK    4  A    between atoms: C_5  and  C_6 
REMARK    5  A    between atoms: C_6  and  N_7 
REMARK    6  A    between atoms: C_10  and  O_11 
REMARK    7  A    between atoms: C_12  and  C_13 
REMARK    8  A    between atoms: C_13  and  C_14 
REMARK    9  A    between atoms: C_18  and  O_19 
REMARK   10  A    between atoms: O_19  and  C_20 
REMARK   11  A    between atoms: C_26  and  C_27 
REMARK   12  A    between atoms: C_29  and  O_30 
REMARK   13  A    between atoms: O_30  and  C_31 
REMARK   14  A    between atoms: C_33  and  O_34 
ROOT
HETATM    1  N   UNL     1       7.126  28.678  56.881  1.00  0.00    -0.332 N 
HETATM    2  C   UNL     1       8.134  28.657  55.948  1.00  0.00     0.278 C 
HETATM    3  O   UNL     1       8.232  27.912  54.989  1.00  0.00    -0.265 OA
HETATM    4  C   UNL     1       9.123  29.687  56.335  1.00  0.00     0.146 C 
HETATM    5  C   UNL     1       8.660  30.283  57.442  1.00  0.00     0.059 C 
HETATM    6  C   UNL     1       7.299  29.768  57.829  1.00  0.00     0.161 C 
ENDROOT
BRANCH   5   7
HETATM    7  C   UNL     1       9.249  31.308  58.333  1.00  0.00     0.193 C 
HETATM    8  O   UNL     1      10.171  32.007  57.915  1.00  0.00    -0.287 OA
BRANCH   7   9
HETATM    9  C   UNL     1       8.782  31.521  59.715  1.00  0.00     0.015 A 
HETATM   10  C   UNL     1       9.046  30.605  60.736  1.00  0.00     0.025 A 
HETATM   11  C   UNL     1       8.511  30.804  62.020  1.00  0.00    -0.028 A 
HETATM   12  C   UNL     1       8.812  29.822  63.119  1.00  0.00     0.051 C 
HETATM   13  C   UNL     1       7.649  31.891  62.245  1.00  0.00     0.075 A 
HETATM   14  C   UNL     1       7.394  32.808  61.225  1.00  0.00     0.038 A 
HETATM   15  C   UNL     1       7.949  32.617  59.958  1.00  0.00     0.018 A 
BRANCH  13  16
HETATM   16  O   UNL     1       7.121  32.007  63.504  1.00  0.00    -0.346 OA
BRANCH  16  17
HETATM   17  C   UNL     1       6.562  33.283  63.854  1.00  0.00     0.121 C 
HETATM   18  C   UNL     1       5.117  33.145  64.335  1.00  0.00     0.040 C 
HETATM   19  C   UNL     1       7.428  33.838  64.984  1.00  0.00     0.040 C 
ENDBRANCH  16  17
ENDBRANCH  13  16
ENDBRANCH   7   9
ENDBRANCH   5   7
BRANCH   4  20
HETATM   20  O   UNL     1      10.281  29.888  55.653  1.00  0.00    -0.355 OA
HETATM   21  H   UNL     1      10.905  29.187  55.937  1.00  0.00     0.218 HD
ENDBRANCH   4  20
BRANCH   6  22
HETATM   22  C   UNL     1       6.169  30.781  57.718  1.00  0.00    -0.028 A 
HETATM   23  C   UNL     1       5.244  30.899  58.777  1.00  0.00     0.049 A 
HETATM   24  C   UNL     1       4.153  31.764  58.676  1.00  0.00     0.102 A 
HETATM   25  C   UNL     1       4.001  32.522  57.512  1.00  0.00     0.099 A 
HETATM   26  C   UNL     1       4.911  32.444  56.468  1.00  0.00     0.040 A 
HETATM   27  C   UNL     1       5.996  31.576  56.569  1.00  0.00     0.012 A 
BRANCH  24  28
HETATM   28  O   UNL     1       3.171  31.941  59.615  1.00  0.00    -0.349 OA
BRANCH  28  29
HETATM   29  C   UNL     1       3.588  32.311  60.929  1.00  0.00     0.171 C 
HETATM   30  C   UNL     1       3.740  33.822  60.963  1.00  0.00     0.034 C 
ENDBRANCH  28  29
ENDBRANCH  24  28
BRANCH  25  31
HETATM   31  O   UNL     1       2.938  33.371  57.375  1.00  0.00    -0.358 OA
HETATM   32  H   UNL     1       3.213  34.026  56.703  1.00  0.00     0.218 HD
ENDBRANCH  25  31
ENDBRANCH   6  22
BRANCH   1  33
HETATM   33  C   UNL     1       5.904  27.900  56.754  1.00  0.00     0.155 C 
BRANCH  33  34
HETATM   34  C   UNL     1       6.108  26.420  57.116  1.00  0.00     0.254 C 
BRANCH  34  35
HETATM   35  N   UNL     1       6.663  25.578  55.970  1.00  0.00    -0.070 N 
HETATM   36  H   UNL     1       7.249  26.220  55.418  1.00  0.00     0.279 HD
BRANCH  35  37
HETATM   37  C   UNL     1       5.600  25.075  55.001  1.00  0.00     0.230 C 
HETATM   38  C   UNL     1       5.647  25.831  53.685  1.00  0.00     0.034 C 
ENDBRANCH  35  37
BRANCH  35  39
HETATM   39  C   UNL     1       7.584  24.442  56.388  1.00  0.00     0.230 C 
HETATM   40  C   UNL     1       8.590  24.897  57.429  1.00  0.00     0.034 C 
ENDBRANCH  35  39
ENDBRANCH  34  35
ENDBRANCH  33  34
ENDBRANCH   1  33
TORSDOF 14
ENDMDL
MODEL 10
REMARK VINA RESULT:      -7.0      2.701      4.986
REMARK  14 active torsions:
REMARK  status: ('A' for Active; 'I' for Inactive)
REMARK    1  A    between atoms: C_2  and  N_3 
REMARK    2  A    between atoms: N_3  and  C_5 
REMARK    3  A    between atoms: N_3  and  C_37 
REMARK    4  A    between atoms: C_5  and  C_6 
REMARK    5  A    between atoms: C_6  and  N_7 
REMARK    6  A    between atoms: C_10  and  O_11 
REMARK    7  A    between atoms: C_12  and  C_13 
REMARK    8  A    between atoms: C_13  and  C_14 
REMARK    9  A    between atoms: C_18  and  O_19 
REMARK   10  A    between atoms: O_19  and  C_20 
REMARK   11  A    between atoms: C_26  and  C_27 
REMARK   12  A    between atoms: C_29  and  O_30 
REMARK   13  A    between atoms: O_30  and  C_31 
REMARK   14  A    between atoms: C_33  and  O_34 
ROOT
HETATM    1  N   UNL     1       4.473  34.069  58.066  1.00  0.00    -0.332 N 
HETATM    2  C   UNL     1       4.895  33.965  56.763  1.00  0.00     0.278 C 
HETATM    3  O   UNL     1       5.205  34.877  56.016  1.00  0.00    -0.265 OA
HETATM    4  C   UNL     1       4.872  32.532  56.398  1.00  0.00     0.146 C 
HETATM    5  C   UNL     1       4.471  31.854  57.482  1.00  0.00     0.059 C 
HETATM    6  C   UNL     1       4.283  32.759  58.670  1.00  0.00     0.161 C 
ENDROOT
BRANCH   5   7
HETATM    7  C   UNL     1       4.169  30.421  57.696  1.00  0.00     0.193 C 
HETATM    8  O   UNL     1       3.187  30.110  58.370  1.00  0.00    -0.287 OA
BRANCH   7   9
HETATM    9  C   UNL     1       5.006  29.342  57.141  1.00  0.00     0.015 A 
HETATM   10  C   UNL     1       6.357  29.208  57.470  1.00  0.00     0.025 A 
HETATM   11  C   UNL     1       7.140  28.218  56.856  1.00  0.00    -0.028 A 
HETATM   12  C   UNL     1       8.590  28.069  57.226  1.00  0.00     0.051 C 
HETATM   13  C   UNL     1       6.570  27.413  55.853  1.00  0.00     0.075 A 
HETATM   14  C   UNL     1       5.218  27.544  55.533  1.00  0.00     0.038 A 
HETATM   15  C   UNL     1       4.440  28.516  56.167  1.00  0.00     0.018 A 
BRANCH  13  16
HETATM   16  O   UNL     1       7.394  26.497  55.257  1.00  0.00    -0.346 OA
BRANCH  16  17
HETATM   17  C   UNL     1       6.900  25.151  55.159  1.00  0.00     0.121 C 
HETATM   18  C   UNL     1       7.638  24.365  54.075  1.00  0.00     0.040 C 
HETATM   19  C   UNL     1       7.143  24.502  56.521  1.00  0.00     0.040 C 
ENDBRANCH  16  17
ENDBRANCH  13  16
ENDBRANCH   7   9
ENDBRANCH   5   7
BRANCH   4  20
HETATM   20  O   UNL     1       5.177  32.086  55.151  1.00  0.00    -0.355 OA
HETATM   21  H   UNL     1       4.362  32.164  54.612  1.00  0.00     0.218 HD
ENDBRANCH   4  20
BRANCH   6  22
HETATM   22  C   UNL     1       5.258  32.533  59.816  1.00  0.00    -0.028 A 
HETATM   23  C   UNL     1       6.633  32.394  59.533  1.00  0.00     0.049 A 
HETATM   24  C   UNL     1       7.545  32.110  60.550  1.00  0.00     0.102 A 
HETATM   25  C   UNL     1       7.073  31.979  61.859  1.00  0.00     0.099 A 
HETATM   26  C   UNL     1       5.730  32.136  62.168  1.00  0.00     0.040 A 
HETATM   27  C   UNL     1       4.821  32.414  61.149  1.00  0.00     0.012 A 
BRANCH  24  28
HETATM   28  O   UNL     1       8.893  31.919  60.400  1.00  0.00    -0.349 OA
BRANCH  28  29
HETATM   29  C   UNL     1       9.307  30.843  59.556  1.00  0.00     0.171 C 
HETATM   30  C   UNL     1      10.084  31.433  58.393  1.00  0.00     0.034 C 
ENDBRANCH  28  29
ENDBRANCH  24  28
BRANCH  25  31
HETATM   31  O   UNL     1       7.937  31.689  62.879  1.00  0.00    -0.358 OA
HETATM   32  H   UNL     1       7.627  30.839  63.249  1.00  0.00     0.218 HD
ENDBRANCH  25  31
ENDBRANCH   6  22
BRANCH   1  33
HETATM   33  C   UNL     1       4.500  35.313  58.818  1.00  0.00     0.155 C 
BRANCH  33  34
HETATM   34  C   UNL     1       3.182  35.580  59.563  1.00  0.00     0.254 C 
BRANCH  34  35
HETATM   35  N   UNL     1       3.266  35.334  61.067  1.00  0.00    -0.070 N 
HETATM   36  H   UNL     1       3.886  34.518  61.177  1.00  0.00     0.279 HD
BRANCH  35  37
HETATM   37  C   UNL     1       1.944  34.918  61.700  1.00  0.00     0.230 C 
HETATM   38  C   UNL     1       2.163  34.162  62.998  1.00  0.00     0.034 C 
ENDBRANCH  35  37
BRANCH  35  39
HETATM   39  C   UNL     1       3.915  36.450  61.871  1.00  0.00     0.230 C 
HETATM   40  C   UNL     1       5.312  36.069  62.325  1.00  0.00     0.034 C 
ENDBRANCH  35  39
ENDBRANCH  34  35
ENDBRANCH  33  34
ENDBRANCH   1  33
TORSDOF 14
ENDMDL
