MODEL 1
REMARK VINA RESULT:      -8.2      0.000      0.000
REMARK  3 active torsions:
REMARK  status: ('A' for Active; 'I' for Inactive)
REMARK    1  A    between atoms: C_4  and  C_5 
REMARK    2  A    between atoms: C_11  and  C_12 
REMARK    3  A    between atoms: C_21  and  N_22 
ROOT
HETATM    1  C   UNL     1       6.840  33.101  63.620  1.00  0.00     0.071 A 
HETATM    2  N   UNL     1       8.078  32.493  63.575  1.00  0.00    -0.274 N 
HETATM    3  H   UNL     1       8.686  32.279  64.359  1.00  0.00     0.189 HD
HETATM    4  N   UNL     1       8.467  32.119  62.346  1.00  0.00    -0.148 NA
HETATM    5  C   UNL     1       7.443  32.506  61.597  1.00  0.00     0.199 A 
HETATM    6  C   UNL     1       6.420  33.166  62.295  1.00  0.00     0.036 A 
HETATM    7  C   UNL     1       5.185  33.662  61.586  1.00  0.00     0.079 A 
HETATM    8  C   UNL     1       5.249  33.181  60.105  1.00  0.00     0.063 A 
HETATM    9  C   UNL     1       4.094  33.595  59.205  1.00  0.00     0.020 C 
HETATM   10  N   UNL     1       3.137  33.938  58.460  1.00  0.00    -0.096 N 
HETATM   11  C   UNL     1       6.303  32.529  59.552  1.00  0.00     0.139 A 
HETATM   12  O   UNL     1       7.440  32.204  60.289  1.00  0.00    -0.277 OA
ENDROOT
BRANCH   7  13
HETATM   13  C   UNL     1       4.903  35.231  61.685  1.00  0.00     0.022 C 
HETATM   14  C   UNL     1       6.006  36.070  62.298  1.00  0.00    -0.025 C 
HETATM   15  C   UNL     1       5.871  36.852  63.379  1.00  0.00    -0.030 C 
HETATM   16  C   UNL     1       4.568  37.055  64.079  1.00  0.00     0.027 C 
HETATM   17  C   UNL     1       3.417  36.839  63.111  1.00  0.00     0.004 C 
HETATM   18  C   UNL     1       3.539  35.492  62.403  1.00  0.00     0.010 C 
ENDBRANCH   7  13
BRANCH  11  19
HETATM   19  N   UNL     1       6.396  32.138  58.235  1.00  0.00    -0.282 NA
HETATM   20  H   UNL     1       5.849  32.673  57.565  1.00  0.00     0.126 HD
HETATM   21  H   UNL     1       7.363  32.005  57.947  1.00  0.00     0.126 HD
ENDBRANCH  11  19
BRANCH   1  22
HETATM   22  C   UNL     1       6.247  33.519  64.886  1.00  0.00    -0.007 A 
HETATM   23  C   UNL     1       7.069  33.914  65.954  1.00  0.00     0.014 A 
HETATM   24  C   UNL     1       6.511  34.336  67.162  1.00  0.00     0.001 A 
HETATM   25  C   UNL     1       5.128  34.361  67.317  1.00  0.00     0.000 A 
HETATM   26  C   UNL     1       4.303  33.964  66.265  1.00  0.00     0.001 A 
HETATM   27  C   UNL     1       4.859  33.546  65.054  1.00  0.00     0.014 A 
ENDBRANCH   1  22
TORSDOF 3
ENDMDL
MODEL 2
REMARK VINA RESULT:      -8.0      8.528     12.157
REMARK  3 active torsions:
REMARK  status: ('A' for Active; 'I' for Inactive)
REMARK    1  A    between atoms: C_4  and  C_5 
REMARK    2  A    between atoms: C_11  and  C_12 
REMARK    3  A    between atoms: C_21  and  N_22 
ROOT
HETATM    1  C   UNL     1       6.319  24.632  53.365  1.00  0.00     0.071 A 
HETATM    2  N   UNL     1       5.829  24.568  52.076  1.00  0.00    -0.274 N 
HETATM    3  H   UNL     1       5.954  23.815  51.408  1.00  0.00     0.189 HD
HETATM    4  N   UNL     1       5.073  25.619  51.720  1.00  0.00    -0.148 NA
HETATM    5  C   UNL     1       5.090  26.363  52.818  1.00  0.00     0.199 A 
HETATM    6  C   UNL     1       5.877  25.854  53.862  1.00  0.00     0.036 A 
HETATM    7  C   UNL     1       5.995  26.580  55.178  1.00  0.00     0.079 A 
HETATM    8  C   UNL     1       5.024  27.800  55.148  1.00  0.00     0.063 A 
HETATM    9  C   UNL     1       5.004  28.683  56.386  1.00  0.00     0.020 C 
HETATM   10  N   UNL     1       4.987  29.415  57.412  1.00  0.00    -0.096 N 
HETATM   11  C   UNL     1       4.299  28.180  54.066  1.00  0.00     0.139 A 
HETATM   12  O   UNL     1       4.344  27.478  52.862  1.00  0.00    -0.277 OA
ENDROOT
BRANCH   7  13
HETATM   13  C   UNL     1       7.470  27.011  55.610  1.00  0.00     0.022 C 
HETATM   14  C   UNL     1       7.749  27.041  57.099  1.00  0.00    -0.025 C 
HETATM   15  C   UNL     1       8.163  28.116  57.786  1.00  0.00    -0.030 C 
HETATM   16  C   UNL     1       8.482  29.423  57.139  1.00  0.00     0.027 C 
HETATM   17  C   UNL     1       8.895  29.200  55.694  1.00  0.00     0.004 C 
HETATM   18  C   UNL     1       7.853  28.373  54.944  1.00  0.00     0.010 C 
ENDBRANCH   7  13
BRANCH  11  19
HETATM   19  N   UNL     1       3.473  29.280  54.007  1.00  0.00    -0.282 NA
HETATM   20  H   UNL     1       3.208  29.693  54.897  1.00  0.00     0.126 HD
HETATM   21  H   UNL     1       3.803  29.964  53.329  1.00  0.00     0.126 HD
ENDBRANCH  11  19
BRANCH   1  22
HETATM   22  C   UNL     1       7.115  23.544  53.926  1.00  0.00    -0.007 A 
HETATM   23  C   UNL     1       7.872  22.715  53.083  1.00  0.00     0.014 A 
HETATM   24  C   UNL     1       8.654  21.686  53.612  1.00  0.00     0.001 A 
HETATM   25  C   UNL     1       8.681  21.472  54.986  1.00  0.00     0.000 A 
HETATM   26  C   UNL     1       7.927  22.284  55.832  1.00  0.00     0.001 A 
HETATM   27  C   UNL     1       7.148  23.318  55.306  1.00  0.00     0.014 A 
ENDBRANCH   1  22
TORSDOF 3
ENDMDL
MODEL 3
REMARK VINA RESULT:      -7.8      2.175      4.363
REMARK  3 active torsions:
REMARK  status: ('A' for Active; 'I' for Inactive)
REMARK    1  A    between atoms: C_4  and  C_5 
REMARK    2  A    between atoms: C_11  and  C_12 
REMARK    3  A    between atoms: C_21  and  N_22 
ROOT
HETATM    1  C   UNL     1       3.706  34.697  61.338  1.00  0.00     0.071 A 
HETATM    2  N   UNL     1       2.378  34.750  60.966  1.00  0.00    -0.274 N 
HETATM    3  H   UNL     1       1.670  35.392  61.307  1.00  0.00     0.189 HD
HETATM    4  N   UNL     1       2.034  33.866  60.016  1.00  0.00    -0.148 NA
HETATM    5  C   UNL     1       3.181  33.240  59.786  1.00  0.00     0.199 A 
HETATM    6  C   UNL     1       4.251  33.655  60.594  1.00  0.00     0.036 A 
HETATM    7  C   UNL     1       5.621  33.044  60.450  1.00  0.00     0.079 A 
HETATM    8  C   UNL     1       5.595  32.073  59.231  1.00  0.00     0.063 A 
HETATM    9  C   UNL     1       6.887  31.334  58.922  1.00  0.00     0.020 C 
HETATM   10  N   UNL     1       7.959  30.721  58.666  1.00  0.00    -0.096 N 
HETATM   11  C   UNL     1       4.483  31.766  58.515  1.00  0.00     0.139 A 
HETATM   12  O   UNL     1       3.240  32.328  58.803  1.00  0.00    -0.277 OA
ENDROOT
BRANCH   7  13
HETATM   13  C   UNL     1       6.213  32.337  61.753  1.00  0.00     0.022 C 
HETATM   14  C   UNL     1       5.264  32.195  62.926  1.00  0.00    -0.025 C 
HETATM   15  C   UNL     1       5.473  32.694  64.154  1.00  0.00    -0.030 C 
HETATM   16  C   UNL     1       6.731  33.397  64.543  1.00  0.00     0.027 C 
HETATM   17  C   UNL     1       7.884  32.921  63.676  1.00  0.00     0.004 C 
HETATM   18  C   UNL     1       7.541  33.035  62.193  1.00  0.00     0.010 C 
ENDBRANCH   7  13
BRANCH  11  19
HETATM   19  N   UNL     1       4.432  30.877  57.465  1.00  0.00    -0.282 NA
HETATM   20  H   UNL     1       4.863  29.969  57.621  1.00  0.00     0.126 HD
HETATM   21  H   UNL     1       3.497  30.815  57.068  1.00  0.00     0.126 HD
ENDBRANCH  11  19
BRANCH   1  22
HETATM   22  C   UNL     1       4.255  35.627  62.320  1.00  0.00    -0.007 A 
HETATM   23  C   UNL     1       3.658  35.752  63.585  1.00  0.00     0.014 A 
HETATM   24  C   UNL     1       4.188  36.622  64.539  1.00  0.00     0.001 A 
HETATM   25  C   UNL     1       5.314  37.381  64.236  1.00  0.00     0.000 A 
HETATM   26  C   UNL     1       5.911  37.271  62.981  1.00  0.00     0.001 A 
HETATM   27  C   UNL     1       5.385  36.397  62.026  1.00  0.00     0.014 A 
ENDBRANCH   1  22
TORSDOF 3
ENDMDL
MODEL 4
REMARK VINA RESULT:      -7.5      8.400     11.249
REMARK  3 active torsions:
REMARK  status: ('A' for Active; 'I' for Inactive)
REMARK    1  A    between atoms: C_4  and  C_5 
REMARK    2  A    between atoms: C_11  and  C_12 
REMARK    3  A    between atoms: C_21  and  N_22 
ROOT
HETATM    1  C   UNL     1       5.974  26.434  53.330  1.00  0.00     0.071 A 
HETATM    2  N   UNL     1       5.988  26.291  51.957  1.00  0.00    -0.274 N 
HETATM    3  H   UNL     1       6.393  25.530  51.424  1.00  0.00     0.189 HD
HETATM    4  N   UNL     1       5.346  27.266  51.294  1.00  0.00    -0.148 NA
HETATM    5  C   UNL     1       4.918  28.043  52.279  1.00  0.00     0.199 A 
HETATM    6  C   UNL     1       5.305  27.632  53.564  1.00  0.00     0.036 A 
HETATM    7  C   UNL     1       4.893  28.407  54.789  1.00  0.00     0.079 A 
HETATM    8  C   UNL     1       3.924  29.544  54.342  1.00  0.00     0.063 A 
HETATM    9  C   UNL     1       3.401  30.461  55.437  1.00  0.00     0.020 C 
HETATM   10  N   UNL     1       2.967  31.221  56.344  1.00  0.00    -0.096 N 
HETATM   11  C   UNL     1       3.616  29.830  53.052  1.00  0.00     0.139 A 
HETATM   12  O   UNL     1       4.138  29.096  51.988  1.00  0.00    -0.277 OA
ENDROOT
BRANCH   7  13
HETATM   13  C   UNL     1       6.082  28.969  55.695  1.00  0.00     0.022 C 
HETATM   14  C   UNL     1       7.479  28.834  55.124  1.00  0.00    -0.025 C 
HETATM   15  C   UNL     1       8.493  28.181  55.710  1.00  0.00    -0.030 C 
HETATM   16  C   UNL     1       8.388  27.562  57.065  1.00  0.00     0.027 C 
HETATM   17  C   UNL     1       7.331  28.281  57.885  1.00  0.00     0.004 C 
HETATM   18  C   UNL     1       6.005  28.355  57.131  1.00  0.00     0.010 C 
ENDBRANCH   7  13
BRANCH  11  19
HETATM   19  N   UNL     1       2.800  30.858  52.637  1.00  0.00    -0.282 NA
HETATM   20  H   UNL     1       2.346  31.398  53.369  1.00  0.00     0.126 HD
HETATM   21  H   UNL     1       3.250  31.437  51.931  1.00  0.00     0.126 HD
ENDBRANCH  11  19
BRANCH   1  22
HETATM   22  C   UNL     1       6.580  25.433  54.202  1.00  0.00    -0.007 A 
HETATM   23  C   UNL     1       7.725  24.735  53.786  1.00  0.00     0.014 A 
HETATM   24  C   UNL     1       8.325  23.791  54.621  1.00  0.00     0.001 A 
HETATM   25  C   UNL     1       7.783  23.530  55.876  1.00  0.00     0.000 A 
HETATM   26  C   UNL     1       6.642  24.212  56.296  1.00  0.00     0.001 A 
HETATM   27  C   UNL     1       6.042  25.161  55.464  1.00  0.00     0.014 A 
ENDBRANCH   1  22
TORSDOF 3
ENDMDL
MODEL 5
REMARK VINA RESULT:      -7.4      9.800     11.735
REMARK  3 active torsions:
REMARK  status: ('A' for Active; 'I' for Inactive)
REMARK    1  A    between atoms: C_4  and  C_5 
REMARK    2  A    between atoms: C_11  and  C_12 
REMARK    3  A    between atoms: C_21  and  N_22 
ROOT
HETATM    1  C   UNL     1       5.306  27.597  55.653  1.00  0.00     0.071 A 
HETATM    2  N   UNL     1       4.255  27.972  56.465  1.00  0.00    -0.274 N 
HETATM    3  H   UNL     1       4.108  27.716  57.436  1.00  0.00     0.189 HD
HETATM    4  N   UNL     1       3.374  28.800  55.882  1.00  0.00    -0.148 NA
HETATM    5  C   UNL     1       3.887  28.949  54.669  1.00  0.00     0.199 A 
HETATM    6  C   UNL     1       5.050  28.201  54.426  1.00  0.00     0.036 A 
HETATM    7  C   UNL     1       5.757  28.266  53.096  1.00  0.00     0.079 A 
HETATM    8  C   UNL     1       5.054  29.351  52.224  1.00  0.00     0.063 A 
HETATM    9  C   UNL     1       5.609  29.562  50.824  1.00  0.00     0.020 C 
HETATM   10  N   UNL     1       6.069  29.738  49.664  1.00  0.00    -0.096 N 
HETATM   11  C   UNL     1       3.931  30.020  52.587  1.00  0.00     0.139 A 
HETATM   12  O   UNL     1       3.307  29.806  53.815  1.00  0.00    -0.277 OA
ENDROOT
BRANCH   7  13
HETATM   13  C   UNL     1       5.902  26.883  52.312  1.00  0.00     0.022 C 
HETATM   14  C   UNL     1       4.817  25.855  52.564  1.00  0.00    -0.025 C 
HETATM   15  C   UNL     1       5.022  24.617  53.038  1.00  0.00    -0.030 C 
HETATM   16  C   UNL     1       6.382  24.062  53.305  1.00  0.00     0.027 C 
HETATM   17  C   UNL     1       7.408  24.750  52.421  1.00  0.00     0.004 C 
HETATM   18  C   UNL     1       7.319  26.268  52.553  1.00  0.00     0.010 C 
ENDBRANCH   7  13
BRANCH  11  19
HETATM   19  N   UNL     1       3.271  30.947  51.812  1.00  0.00    -0.282 NA
HETATM   20  H   UNL     1       2.699  31.626  52.308  1.00  0.00     0.126 HD
HETATM   21  H   UNL     1       3.888  31.371  51.121  1.00  0.00     0.126 HD
ENDBRANCH  11  19
BRANCH   1  22
HETATM   22  C   UNL     1       6.380  26.742  56.150  1.00  0.00    -0.007 A 
HETATM   23  C   UNL     1       7.666  27.269  56.351  1.00  0.00     0.014 A 
HETATM   24  C   UNL     1       8.694  26.465  56.847  1.00  0.00     0.001 A 
HETATM   25  C   UNL     1       8.448  25.127  57.141  1.00  0.00     0.000 A 
HETATM   26  C   UNL     1       7.177  24.592  56.938  1.00  0.00     0.001 A 
HETATM   27  C   UNL     1       6.145  25.395  56.446  1.00  0.00     0.014 A 
ENDBRANCH   1  22
TORSDOF 3
ENDMDL
MODEL 6
REMARK VINA RESULT:      -7.2      8.306     12.015
REMARK  3 active torsions:
REMARK  status: ('A' for Active; 'I' for Inactive)
REMARK    1  A    between atoms: C_4  and  C_5 
REMARK    2  A    between atoms: C_11  and  C_12 
REMARK    3  A    between atoms: C_21  and  N_22 
ROOT
HETATM    1  C   UNL     1       7.972  24.846  56.148  1.00  0.00     0.071 A 
HETATM    2  N   UNL     1       8.466  24.374  57.347  1.00  0.00    -0.274 N 
HETATM    3  H   UNL     1       8.879  23.465  57.527  1.00  0.00     0.189 HD
HETATM    4  N   UNL     1       8.416  25.262  58.353  1.00  0.00    -0.148 NA
HETATM    5  C   UNL     1       7.875  26.321  57.767  1.00  0.00     0.199 A 
HETATM    6  C   UNL     1       7.522  26.134  56.422  1.00  0.00     0.036 A 
HETATM    7  C   UNL     1       6.901  27.245  55.614  1.00  0.00     0.079 A 
HETATM    8  C   UNL     1       6.893  28.535  56.489  1.00  0.00     0.063 A 
HETATM    9  C   UNL     1       6.286  29.779  55.861  1.00  0.00     0.020 C 
HETATM   10  N   UNL     1       5.783  30.811  55.339  1.00  0.00    -0.096 N 
HETATM   11  C   UNL     1       7.281  28.586  57.789  1.00  0.00     0.139 A 
HETATM   12  O   UNL     1       7.754  27.462  58.464  1.00  0.00    -0.277 OA
ENDROOT
BRANCH   7  13
HETATM   13  C   UNL     1       5.459  26.942  54.999  1.00  0.00     0.022 C 
HETATM   14  C   UNL     1       5.019  25.492  55.012  1.00  0.00    -0.025 C 
HETATM   15  C   UNL     1       4.681  24.778  53.928  1.00  0.00    -0.030 C 
HETATM   16  C   UNL     1       4.620  25.362  52.555  1.00  0.00     0.027 C 
HETATM   17  C   UNL     1       4.349  26.854  52.635  1.00  0.00     0.004 C 
HETATM   18  C   UNL     1       5.346  27.546  53.562  1.00  0.00     0.010 C 
ENDBRANCH   7  13
BRANCH  11  19
HETATM   19  N   UNL     1       7.237  29.705  58.590  1.00  0.00    -0.282 NA
HETATM   20  H   UNL     1       7.591  30.566  58.182  1.00  0.00     0.126 HD
HETATM   21  H   UNL     1       6.329  29.816  59.036  1.00  0.00     0.126 HD
ENDBRANCH  11  19
BRANCH   1  22
HETATM   22  C   UNL     1       8.002  24.024  54.941  1.00  0.00    -0.007 A 
HETATM   23  C   UNL     1       7.917  22.626  55.037  1.00  0.00     0.014 A 
HETATM   24  C   UNL     1       7.923  21.833  53.888  1.00  0.00     0.001 A 
HETATM   25  C   UNL     1       8.022  22.429  52.634  1.00  0.00     0.000 A 
HETATM   26  C   UNL     1       8.115  23.816  52.528  1.00  0.00     0.001 A 
HETATM   27  C   UNL     1       8.104  24.612  53.676  1.00  0.00     0.014 A 
ENDBRANCH   1  22
TORSDOF 3
ENDMDL
MODEL 7
REMARK VINA RESULT:      -7.1      9.534     12.853
REMARK  3 active torsions:
REMARK  status: ('A' for Active; 'I' for Inactive)
REMARK    1  A    between atoms: C_4  and  C_5 
REMARK    2  A    between atoms: C_11  and  C_12 
REMARK    3  A    between atoms: C_21  and  N_22 
ROOT
HETATM    1  C   UNL     1       8.393  23.584  56.613  1.00  0.00     0.071 A 
HETATM    2  N   UNL     1       8.629  23.627  57.972  1.00  0.00    -0.274 N 
HETATM    3  H   UNL     1       8.921  22.861  58.569  1.00  0.00     0.189 HD
HETATM    4  N   UNL     1       8.489  24.845  58.519  1.00  0.00    -0.148 NA
HETATM    5  C   UNL     1       8.154  25.587  57.472  1.00  0.00     0.199 A 
HETATM    6  C   UNL     1       8.021  24.880  56.268  1.00  0.00     0.036 A 
HETATM    7  C   UNL     1       7.652  25.582  54.986  1.00  0.00     0.079 A 
HETATM    8  C   UNL     1       7.611  27.115  55.266  1.00  0.00     0.063 A 
HETATM    9  C   UNL     1       7.236  28.010  54.095  1.00  0.00     0.020 C 
HETATM   10  N   UNL     1       6.925  28.752  53.125  1.00  0.00    -0.096 N 
HETATM   11  C   UNL     1       7.773  27.678  56.490  1.00  0.00     0.139 A 
HETATM   12  O   UNL     1       8.019  26.913  57.629  1.00  0.00    -0.277 OA
ENDROOT
BRANCH   7  13
HETATM   13  C   UNL     1       6.315  25.078  54.272  1.00  0.00     0.022 C 
HETATM   14  C   UNL     1       6.452  24.640  52.828  1.00  0.00    -0.025 C 
HETATM   15  C   UNL     1       5.780  25.168  51.794  1.00  0.00    -0.030 C 
HETATM   16  C   UNL     1       4.732  26.219  51.955  1.00  0.00     0.027 C 
HETATM   17  C   UNL     1       4.111  26.127  53.339  1.00  0.00     0.004 C 
HETATM   18  C   UNL     1       5.183  26.145  54.426  1.00  0.00     0.010 C 
ENDBRANCH   7  13
BRANCH  11  19
HETATM   19  N   UNL     1       7.694  29.026  56.763  1.00  0.00    -0.282 NA
HETATM   20  H   UNL     1       7.688  29.649  55.960  1.00  0.00     0.126 HD
HETATM   21  H   UNL     1       6.961  29.232  57.438  1.00  0.00     0.126 HD
ENDBRANCH  11  19
BRANCH   1  22
HETATM   22  C   UNL     1       8.555  22.347  55.855  1.00  0.00    -0.007 A 
HETATM   23  C   UNL     1       8.409  21.104  56.493  1.00  0.00     0.014 A 
HETATM   24  C   UNL     1       8.540  19.916  55.773  1.00  0.00     0.001 A 
HETATM   25  C   UNL     1       8.826  19.957  54.412  1.00  0.00     0.000 A 
HETATM   26  C   UNL     1       8.981  21.185  53.770  1.00  0.00     0.001 A 
HETATM   27  C   UNL     1       8.845  22.376  54.487  1.00  0.00     0.014 A 
ENDBRANCH   1  22
TORSDOF 3
ENDMDL
MODEL 8
REMARK VINA RESULT:      -7.0      1.420      2.039
REMARK  3 active torsions:
REMARK  status: ('A' for Active; 'I' for Inactive)
REMARK    1  A    between atoms: C_4  and  C_5 
REMARK    2  A    between atoms: C_11  and  C_12 
REMARK    3  A    between atoms: C_21  and  N_22 
ROOT
HETATM    1  C   UNL     1       5.844  33.079  62.123  1.00  0.00     0.071 A 
HETATM    2  N   UNL     1       6.760  32.242  61.517  1.00  0.00    -0.274 N 
HETATM    3  H   UNL     1       7.537  31.761  61.956  1.00  0.00     0.189 HD
HETATM    4  N   UNL     1       6.536  32.034  60.209  1.00  0.00    -0.148 NA
HETATM    5  C   UNL     1       5.450  32.762  59.989  1.00  0.00     0.199 A 
HETATM    6  C   UNL     1       4.987  33.480  61.102  1.00  0.00     0.036 A 
HETATM    7  C   UNL     1       3.759  34.350  61.016  1.00  0.00     0.079 A 
HETATM    8  C   UNL     1       3.123  34.154  59.606  1.00  0.00     0.063 A 
HETATM    9  C   UNL     1       1.872  34.964  59.306  1.00  0.00     0.020 C 
HETATM   10  N   UNL     1       0.835  35.636  59.057  1.00  0.00    -0.096 N 
HETATM   11  C   UNL     1       3.671  33.410  58.611  1.00  0.00     0.139 A 
HETATM   12  O   UNL     1       4.870  32.720  58.779  1.00  0.00    -0.277 OA
ENDROOT
BRANCH   7  13
HETATM   13  C   UNL     1       3.970  35.895  61.358  1.00  0.00     0.022 C 
HETATM   14  C   UNL     1       5.403  36.387  61.372  1.00  0.00    -0.025 C 
HETATM   15  C   UNL     1       6.013  36.959  62.421  1.00  0.00    -0.030 C 
HETATM   16  C   UNL     1       5.313  37.259  63.705  1.00  0.00     0.027 C 
HETATM   17  C   UNL     1       3.826  37.445  63.457  1.00  0.00     0.004 C 
HETATM   18  C   UNL     1       3.243  36.259  62.693  1.00  0.00     0.010 C 
ENDBRANCH   7  13
BRANCH  11  19
HETATM   19  N   UNL     1       3.148  33.264  57.346  1.00  0.00    -0.282 NA
HETATM   20  H   UNL     1       2.809  32.337  57.103  1.00  0.00     0.126 HD
HETATM   21  H   UNL     1       2.487  34.005  57.122  1.00  0.00     0.126 HD
ENDBRANCH  11  19
BRANCH   1  22
HETATM   22  C   UNL     1       5.913  33.367  63.552  1.00  0.00    -0.007 A 
HETATM   23  C   UNL     1       7.156  33.564  64.174  1.00  0.00     0.014 A 
HETATM   24  C   UNL     1       7.231  33.862  65.536  1.00  0.00     0.001 A 
HETATM   25  C   UNL     1       6.065  33.957  66.291  1.00  0.00     0.000 A 
HETATM   26  C   UNL     1       4.826  33.755  65.685  1.00  0.00     0.001 A 
HETATM   27  C   UNL     1       4.748  33.463  64.321  1.00  0.00     0.014 A 
ENDBRANCH   1  22
TORSDOF 3
ENDMDL
MODEL 9
REMARK VINA RESULT:      -6.8     24.157     27.034
REMARK  3 active torsions:
REMARK  status: ('A' for Active; 'I' for Inactive)
REMARK    1  A    between atoms: C_4  and  C_5 
REMARK    2  A    between atoms: C_11  and  C_12 
REMARK    3  A    between atoms: C_21  and  N_22 
ROOT
HETATM    1  C   UNL     1      13.732  11.226  51.536  1.00  0.00     0.071 A 
HETATM    2  N   UNL     1      13.512  12.396  50.838  1.00  0.00    -0.274 N 
HETATM    3  H   UNL     1      13.987  12.709  49.998  1.00  0.00     0.189 HD
HETATM    4  N   UNL     1      12.522  13.157  51.332  1.00  0.00    -0.148 NA
HETATM    5  C   UNL     1      12.111  12.443  52.371  1.00  0.00     0.199 A 
HETATM    6  C   UNL     1      12.836  11.264  52.600  1.00  0.00     0.036 A 
HETATM    7  C   UNL     1      12.487  10.340  53.739  1.00  0.00     0.079 A 
HETATM    8  C   UNL     1      11.188  10.873  54.417  1.00  0.00     0.063 A 
HETATM    9  C   UNL     1      10.673  10.087  55.611  1.00  0.00     0.020 C 
HETATM   10  N   UNL     1      10.245   9.434  56.602  1.00  0.00    -0.096 N 
HETATM   11  C   UNL     1      10.570  12.035  54.087  1.00  0.00     0.139 A 
HETATM   12  O   UNL     1      11.043  12.862  53.069  1.00  0.00    -0.277 OA
ENDROOT
BRANCH   7  13
HETATM   13  C   UNL     1      13.644  10.077  54.807  1.00  0.00     0.022 C 
HETATM   14  C   UNL     1      14.422  11.295  55.262  1.00  0.00    -0.025 C 
HETATM   15  C   UNL     1      15.749  11.452  55.146  1.00  0.00    -0.030 C 
HETATM   16  C   UNL     1      16.651  10.388  54.614  1.00  0.00     0.027 C 
HETATM   17  C   UNL     1      16.033   9.019  54.844  1.00  0.00     0.004 C 
HETATM   18  C   UNL     1      14.609   8.959  54.296  1.00  0.00     0.010 C 
ENDBRANCH   7  13
BRANCH  11  19
HETATM   19  N   UNL     1       9.450  12.545  54.705  1.00  0.00    -0.282 NA
HETATM   20  H   UNL     1       9.013  11.953  55.406  1.00  0.00     0.126 HD
HETATM   21  H   UNL     1       9.595  13.502  55.021  1.00  0.00     0.126 HD
ENDBRANCH  11  19
BRANCH   1  22
HETATM   22  C   UNL     1      14.736  10.261  51.098  1.00  0.00    -0.007 A 
HETATM   23  C   UNL     1      14.341   9.018  50.578  1.00  0.00     0.014 A 
HETATM   24  C   UNL     1      15.293   8.097  50.137  1.00  0.00     0.001 A 
HETATM   25  C   UNL     1      16.648   8.407  50.216  1.00  0.00     0.000 A 
HETATM   26  C   UNL     1      17.051   9.635  50.737  1.00  0.00     0.001 A 
HETATM   27  C   UNL     1      16.100  10.560  51.176  1.00  0.00     0.014 A 
ENDBRANCH   1  22
TORSDOF 3
ENDMDL
MODEL 10
REMARK VINA RESULT:      -6.8      9.169     13.332
REMARK  3 active torsions:
REMARK  status: ('A' for Active; 'I' for Inactive)
REMARK    1  A    between atoms: C_4  and  C_5 
REMARK    2  A    between atoms: C_11  and  C_12 
REMARK    3  A    between atoms: C_21  and  N_22 
ROOT
HETATM    1  C   UNL     1       4.945  26.541  51.504  1.00  0.00     0.071 A 
HETATM    2  N   UNL     1       4.930  25.192  51.795  1.00  0.00    -0.274 N 
HETATM    3  H   UNL     1       4.925  24.422  51.135  1.00  0.00     0.189 HD
HETATM    4  N   UNL     1       4.969  24.909  53.106  1.00  0.00    -0.148 NA
HETATM    5  C   UNL     1       5.009  26.116  53.654  1.00  0.00     0.199 A 
HETATM    6  C   UNL     1       4.946  27.179  52.740  1.00  0.00     0.036 A 
HETATM    7  C   UNL     1       4.988  28.613  53.205  1.00  0.00     0.079 A 
HETATM    8  C   UNL     1       5.243  28.618  54.743  1.00  0.00     0.063 A 
HETATM    9  C   UNL     1       5.303  29.979  55.418  1.00  0.00     0.020 C 
HETATM   10  N   UNL     1       5.353  31.107  55.978  1.00  0.00    -0.096 N 
HETATM   11  C   UNL     1       5.299  27.504  55.518  1.00  0.00     0.139 A 
HETATM   12  O   UNL     1       5.152  26.225  54.984  1.00  0.00    -0.277 OA
ENDROOT
BRANCH   7  13
HETATM   13  C   UNL     1       3.728  29.512  52.815  1.00  0.00     0.022 C 
HETATM   14  C   UNL     1       2.601  28.805  52.089  1.00  0.00    -0.025 C 
HETATM   15  C   UNL     1       2.129  29.142  50.880  1.00  0.00    -0.030 C 
HETATM   16  C   UNL     1       2.614  30.332  50.119  1.00  0.00     0.027 C 
HETATM   17  C   UNL     1       3.153  31.379  51.079  1.00  0.00     0.004 C 
HETATM   18  C   UNL     1       4.191  30.779  52.024  1.00  0.00     0.010 C 
ENDBRANCH   7  13
BRANCH  11  19
HETATM   19  N   UNL     1       5.477  27.492  56.883  1.00  0.00    -0.282 NA
HETATM   20  H   UNL     1       6.421  27.669  57.216  1.00  0.00     0.126 HD
HETATM   21  H   UNL     1       4.771  28.048  57.361  1.00  0.00     0.126 HD
ENDBRANCH  11  19
BRANCH   1  22
HETATM   22  C   UNL     1       4.961  27.018  50.124  1.00  0.00    -0.007 A 
HETATM   23  C   UNL     1       4.337  26.271  49.112  1.00  0.00     0.014 A 
HETATM   24  C   UNL     1       4.328  26.729  47.793  1.00  0.00     0.001 A 
HETATM   25  C   UNL     1       4.948  27.933  47.472  1.00  0.00     0.000 A 
HETATM   26  C   UNL     1       5.577  28.679  48.468  1.00  0.00     0.001 A 
HETATM   27  C   UNL     1       5.584  28.225  49.789  1.00  0.00     0.014 A 
ENDBRANCH   1  22
TORSDOF 3
ENDMDL
