MODEL 1
REMARK VINA RESULT:     -10.8      0.000      0.000
REMARK  5 active torsions:
REMARK  status: ('A' for Active; 'I' for Inactive)
REMARK    1  A    between atoms: O_2  and  C_3 
REMARK    2  A    between atoms: C_5  and  C_6 
REMARK    3  A    between atoms: C_6  and  C_7 
REMARK       I    between atoms: C_7  and  N_8 
REMARK    4  A    between atoms: N_11  and  C_12 
REMARK    5  A    between atoms: C_16  and  C_17 
ROOT
HETATM    1  C   UNL     1       6.748  31.855  60.586  1.00  0.00     0.224 C 
HETATM    2  N   UNL     1       7.181  31.240  59.423  1.00  0.00    -0.349 N 
HETATM    3  C   UNL     1       8.405  30.451  59.264  1.00  0.00     0.145 C 
HETATM    4  C   UNL     1       8.169  29.191  58.407  1.00  0.00     0.144 C 
HETATM    5  N   UNL     1       7.485  29.503  57.125  1.00  0.00    -0.363 N 
HETATM    6  C   UNL     1       6.261  30.331  57.305  1.00  0.00     0.144 C 
HETATM    7  C   UNL     1       6.535  31.580  58.155  1.00  0.00     0.145 C 
HETATM    8  O   UNL     1       5.785  32.627  60.591  1.00  0.00    -0.273 OA
ENDROOT
BRANCH   5   9
HETATM    9  C   UNL     1       7.428  28.521  56.167  1.00  0.00     0.122 A 
HETATM   10  N   UNL     1       7.101  28.767  54.860  1.00  0.00    -0.262 N 
HETATM   11  H   UNL     1       6.844  29.653  54.446  1.00  0.00     0.191 HD
HETATM   12  N   UNL     1       7.116  27.684  54.068  1.00  0.00    -0.173 NA
HETATM   13  C   UNL     1       7.416  26.668  54.894  1.00  0.00     0.090 A 
HETATM   14  C   UNL     1       7.598  27.154  56.219  1.00  0.00     0.084 A 
BRANCH  13  15
HETATM   15  C   UNL     1       7.519  25.285  54.408  1.00  0.00    -0.005 A 
HETATM   16  C   UNL     1       7.775  25.003  53.057  1.00  0.00     0.015 A 
HETATM   17  C   UNL     1       7.872  23.681  52.607  1.00  0.00     0.024 A 
HETATM   18  C   UNL     1       7.712  22.628  53.505  1.00  0.00     0.034 A 
HETATM   19 CL   UNL     1       7.832  21.005  52.949  1.00  0.00    -0.084 Cl
HETATM   20  C   UNL     1       7.456  22.885  54.848  1.00  0.00     0.024 A 
HETATM   21  C   UNL     1       7.359  24.207  55.296  1.00  0.00     0.015 A 
ENDBRANCH  13  15
ENDBRANCH   5   9
BRANCH   1  22
HETATM   22  C   UNL     1       7.473  31.554  61.891  1.00  0.00     0.141 C 
BRANCH  22  23
HETATM   23  C   UNL     1       7.011  32.391  63.062  1.00  0.00    -0.047 A 
HETATM   24  C   UNL     1       5.647  32.477  63.398  1.00  0.00     0.044 A 
HETATM   25  C   UNL     1       5.228  33.226  64.498  1.00  0.00     0.068 A 
HETATM   26  C   UNL     1       6.180  33.876  65.284  1.00  0.00     0.037 A 
HETATM   27  C   UNL     1       7.537  33.780  64.980  1.00  0.00     0.003 A 
HETATM   28  C   UNL     1       7.952  33.037  63.876  1.00  0.00     0.007 A 
BRANCH  25  29
HETATM   29  O   UNL     1       3.933  33.393  64.911  1.00  0.00    -0.356 OA
HETATM   30  C   UNL     1       3.440  34.726  64.953  1.00  0.00     0.210 C 
ENDBRANCH  25  29
ENDBRANCH  22  23
ENDBRANCH   1  22
TORSDOF 5
ENDMDL
MODEL 2
REMARK VINA RESULT:     -10.5      4.996     11.109
REMARK  5 active torsions:
REMARK  status: ('A' for Active; 'I' for Inactive)
REMARK    1  A    between atoms: O_2  and  C_3 
REMARK    2  A    between atoms: C_5  and  C_6 
REMARK    3  A    between atoms: C_6  and  C_7 
REMARK       I    between atoms: C_7  and  N_8 
REMARK    4  A    between atoms: N_11  and  C_12 
REMARK    5  A    between atoms: C_16  and  C_17 
ROOT
HETATM    1  C   UNL     1       7.293  25.596  53.498  1.00  0.00     0.224 C 
HETATM    2  N   UNL     1       7.145  26.695  54.327  1.00  0.00    -0.349 N 
HETATM    3  C   UNL     1       6.142  26.856  55.382  1.00  0.00     0.145 C 
HETATM    4  C   UNL     1       6.739  27.498  56.651  1.00  0.00     0.144 C 
HETATM    5  N   UNL     1       7.497  28.739  56.349  1.00  0.00    -0.363 N 
HETATM    6  C   UNL     1       8.490  28.564  55.255  1.00  0.00     0.144 C 
HETATM    7  C   UNL     1       7.859  27.931  54.006  1.00  0.00     0.145 C 
HETATM    8  O   UNL     1       8.067  25.609  52.536  1.00  0.00    -0.273 OA
ENDROOT
BRANCH   5   9
HETATM    9  C   UNL     1       7.876  29.537  57.400  1.00  0.00     0.122 A 
HETATM   10  N   UNL     1       9.146  30.028  57.550  1.00  0.00    -0.262 N 
HETATM   11  H   UNL     1       9.945  29.859  56.955  1.00  0.00     0.191 HD
HETATM   12  N   UNL     1       9.320  30.804  58.630  1.00  0.00    -0.173 NA
HETATM   13  C   UNL     1       8.129  30.788  59.252  1.00  0.00     0.090 A 
HETATM   14  C   UNL     1       7.208  29.988  58.519  1.00  0.00     0.084 A 
BRANCH  13  15
HETATM   15  C   UNL     1       7.903  31.520  60.506  1.00  0.00    -0.005 A 
HETATM   16  C   UNL     1       8.759  31.361  61.608  1.00  0.00     0.015 A 
HETATM   17  C   UNL     1       8.534  32.065  62.796  1.00  0.00     0.024 A 
HETATM   18  C   UNL     1       7.451  32.935  62.894  1.00  0.00     0.034 A 
HETATM   19 CL   UNL     1       7.177  33.799  64.356  1.00  0.00    -0.084 Cl
HETATM   20  C   UNL     1       6.590  33.106  61.815  1.00  0.00     0.024 A 
HETATM   21  C   UNL     1       6.816  32.402  60.627  1.00  0.00     0.015 A 
ENDBRANCH  13  15
ENDBRANCH   5   9
BRANCH   1  22
HETATM   22  C   UNL     1       6.490  24.337  53.794  1.00  0.00     0.141 C 
BRANCH  22  23
HETATM   23  C   UNL     1       7.330  23.091  53.958  1.00  0.00    -0.047 A 
HETATM   24  C   UNL     1       7.712  22.638  55.234  1.00  0.00     0.044 A 
HETATM   25  C   UNL     1       8.461  21.470  55.383  1.00  0.00     0.068 A 
HETATM   26  C   UNL     1       8.813  20.736  54.249  1.00  0.00     0.037 A 
HETATM   27  C   UNL     1       8.421  21.158  52.980  1.00  0.00     0.003 A 
HETATM   28  C   UNL     1       7.678  22.329  52.834  1.00  0.00     0.007 A 
BRANCH  25  29
HETATM   29  O   UNL     1       8.900  20.942  56.567  1.00  0.00    -0.356 OA
HETATM   30  C   UNL     1       8.274  21.416  57.752  1.00  0.00     0.210 C 
ENDBRANCH  25  29
ENDBRANCH  22  23
ENDBRANCH   1  22
TORSDOF 5
ENDMDL
MODEL 3
REMARK VINA RESULT:     -10.1      1.648      2.498
REMARK  5 active torsions:
REMARK  status: ('A' for Active; 'I' for Inactive)
REMARK    1  A    between atoms: O_2  and  C_3 
REMARK    2  A    between atoms: C_5  and  C_6 
REMARK    3  A    between atoms: C_6  and  C_7 
REMARK       I    between atoms: C_7  and  N_8 
REMARK    4  A    between atoms: N_11  and  C_12 
REMARK    5  A    between atoms: C_16  and  C_17 
ROOT
HETATM    1  C   UNL     1       4.364  31.965  58.638  1.00  0.00     0.224 C 
HETATM    2  N   UNL     1       4.981  31.038  57.816  1.00  0.00    -0.349 N 
HETATM    3  C   UNL     1       6.360  31.099  57.323  1.00  0.00     0.145 C 
HETATM    4  C   UNL     1       7.047  29.719  57.365  1.00  0.00     0.144 C 
HETATM    5  N   UNL     1       6.225  28.662  56.721  1.00  0.00    -0.363 N 
HETATM    6  C   UNL     1       4.820  28.636  57.211  1.00  0.00     0.144 C 
HETATM    7  C   UNL     1       4.166  30.024  57.147  1.00  0.00     0.145 C 
HETATM    8  O   UNL     1       3.154  31.914  58.879  1.00  0.00    -0.273 OA
ENDROOT
BRANCH   5   9
HETATM    9  C   UNL     1       6.813  27.446  56.474  1.00  0.00     0.122 A 
HETATM   10  N   UNL     1       7.841  26.945  57.226  1.00  0.00    -0.262 N 
HETATM   11  H   UNL     1       8.305  27.387  58.008  1.00  0.00     0.191 HD
HETATM   12  N   UNL     1       8.273  25.733  56.845  1.00  0.00    -0.173 NA
HETATM   13  C   UNL     1       7.533  25.438  55.762  1.00  0.00     0.090 A 
HETATM   14  C   UNL     1       6.622  26.498  55.491  1.00  0.00     0.084 A 
BRANCH  13  15
HETATM   15  C   UNL     1       7.710  24.179  55.027  1.00  0.00    -0.005 A 
HETATM   16  C   UNL     1       7.666  22.938  55.684  1.00  0.00     0.015 A 
HETATM   17  C   UNL     1       7.834  21.745  54.972  1.00  0.00     0.024 A 
HETATM   18  C   UNL     1       8.050  21.781  53.596  1.00  0.00     0.034 A 
HETATM   19 CL   UNL     1       8.256  20.313  52.724  1.00  0.00    -0.084 Cl
HETATM   20  C   UNL     1       8.098  22.999  52.926  1.00  0.00     0.024 A 
HETATM   21  C   UNL     1       7.930  24.191  53.639  1.00  0.00     0.015 A 
ENDBRANCH  13  15
ENDBRANCH   5   9
BRANCH   1  22
HETATM   22  C   UNL     1       5.207  33.064  59.271  1.00  0.00     0.141 C 
BRANCH  22  23
HETATM   23  C   UNL     1       5.789  32.699  60.618  1.00  0.00    -0.047 A 
HETATM   24  C   UNL     1       4.998  32.728  61.781  1.00  0.00     0.044 A 
HETATM   25  C   UNL     1       5.532  32.362  63.018  1.00  0.00     0.068 A 
HETATM   26  C   UNL     1       6.860  31.940  63.089  1.00  0.00     0.037 A 
HETATM   27  C   UNL     1       7.650  31.882  61.942  1.00  0.00     0.003 A 
HETATM   28  C   UNL     1       7.116  32.255  60.710  1.00  0.00     0.007 A 
BRANCH  25  29
HETATM   29  O   UNL     1       4.865  32.364  64.213  1.00  0.00    -0.356 OA
HETATM   30  C   UNL     1       4.913  33.566  64.972  1.00  0.00     0.210 C 
ENDBRANCH  25  29
ENDBRANCH  22  23
ENDBRANCH   1  22
TORSDOF 5
ENDMDL
MODEL 4
REMARK VINA RESULT:      -9.8      2.067      3.166
REMARK  5 active torsions:
REMARK  status: ('A' for Active; 'I' for Inactive)
REMARK    1  A    between atoms: O_2  and  C_3 
REMARK    2  A    between atoms: C_5  and  C_6 
REMARK    3  A    between atoms: C_6  and  C_7 
REMARK       I    between atoms: C_7  and  N_8 
REMARK    4  A    between atoms: N_11  and  C_12 
REMARK    5  A    between atoms: C_16  and  C_17 
ROOT
HETATM    1  C   UNL     1       4.377  32.031  58.780  1.00  0.00     0.224 C 
HETATM    2  N   UNL     1       4.983  31.103  57.950  1.00  0.00    -0.349 N 
HETATM    3  C   UNL     1       6.358  31.159  57.446  1.00  0.00     0.145 C 
HETATM    4  C   UNL     1       7.040  29.776  57.480  1.00  0.00     0.144 C 
HETATM    5  N   UNL     1       6.208  28.724  56.840  1.00  0.00    -0.363 N 
HETATM    6  C   UNL     1       4.808  28.703  57.343  1.00  0.00     0.144 C 
HETATM    7  C   UNL     1       4.158  30.093  57.287  1.00  0.00     0.145 C 
HETATM    8  O   UNL     1       3.169  31.984  59.031  1.00  0.00    -0.273 OA
ENDROOT
BRANCH   5   9
HETATM    9  C   UNL     1       6.789  27.506  56.587  1.00  0.00     0.122 A 
HETATM   10  N   UNL     1       7.794  26.980  57.355  1.00  0.00    -0.262 N 
HETATM   11  H   UNL     1       8.243  27.404  58.156  1.00  0.00     0.191 HD
HETATM   12  N   UNL     1       8.222  25.771  56.962  1.00  0.00    -0.173 NA
HETATM   13  C   UNL     1       7.506  25.503  55.858  1.00  0.00     0.090 A 
HETATM   14  C   UNL     1       6.613  26.577  55.583  1.00  0.00     0.084 A 
BRANCH  13  15
HETATM   15  C   UNL     1       7.687  24.255  55.104  1.00  0.00    -0.005 A 
HETATM   16  C   UNL     1       7.773  23.015  55.758  1.00  0.00     0.015 A 
HETATM   17  C   UNL     1       7.945  21.832  55.029  1.00  0.00     0.024 A 
HETATM   18  C   UNL     1       8.034  21.878  53.640  1.00  0.00     0.034 A 
HETATM   19 CL   UNL     1       8.244  20.424  52.748  1.00  0.00    -0.084 Cl
HETATM   20  C   UNL     1       7.952  23.097  52.973  1.00  0.00     0.024 A 
HETATM   21  C   UNL     1       7.781  24.278  53.703  1.00  0.00     0.015 A 
ENDBRANCH  13  15
ENDBRANCH   5   9
BRANCH   1  22
HETATM   22  C   UNL     1       5.229  33.125  59.408  1.00  0.00     0.141 C 
BRANCH  22  23
HETATM   23  C   UNL     1       5.920  32.714  60.688  1.00  0.00    -0.047 A 
HETATM   24  C   UNL     1       7.284  32.372  60.697  1.00  0.00     0.044 A 
HETATM   25  C   UNL     1       7.925  32.023  61.887  1.00  0.00     0.068 A 
HETATM   26  C   UNL     1       7.203  32.037  63.081  1.00  0.00     0.037 A 
HETATM   27  C   UNL     1       5.857  32.398  63.092  1.00  0.00     0.003 A 
HETATM   28  C   UNL     1       5.218  32.740  61.901  1.00  0.00     0.007 A 
BRANCH  25  29
HETATM   29  O   UNL     1       9.239  31.660  62.015  1.00  0.00    -0.356 OA
HETATM   30  C   UNL     1       9.522  30.266  62.018  1.00  0.00     0.210 C 
ENDBRANCH  25  29
ENDBRANCH  22  23
ENDBRANCH   1  22
TORSDOF 5
ENDMDL
MODEL 5
REMARK VINA RESULT:      -9.7      7.612     10.774
REMARK  5 active torsions:
REMARK  status: ('A' for Active; 'I' for Inactive)
REMARK    1  A    between atoms: O_2  and  C_3 
REMARK    2  A    between atoms: C_5  and  C_6 
REMARK    3  A    between atoms: C_6  and  C_7 
REMARK       I    between atoms: C_7  and  N_8 
REMARK    4  A    between atoms: N_11  and  C_12 
REMARK    5  A    between atoms: C_16  and  C_17 
ROOT
HETATM    1  C   UNL     1       6.954  25.495  55.953  1.00  0.00     0.224 C 
HETATM    2  N   UNL     1       6.642  26.162  54.781  1.00  0.00    -0.349 N 
HETATM    3  C   UNL     1       7.544  26.399  53.651  1.00  0.00     0.145 C 
HETATM    4  C   UNL     1       6.838  26.189  52.296  1.00  0.00     0.144 C 
HETATM    5  N   UNL     1       5.557  26.935  52.209  1.00  0.00    -0.363 N 
HETATM    6  C   UNL     1       4.667  26.705  53.379  1.00  0.00     0.144 C 
HETATM    7  C   UNL     1       5.400  26.933  54.708  1.00  0.00     0.145 C 
HETATM    8  O   UNL     1       6.180  25.475  56.914  1.00  0.00    -0.273 OA
ENDROOT
BRANCH   5   9
HETATM    9  C   UNL     1       4.947  27.031  50.982  1.00  0.00     0.122 A 
HETATM   10  N   UNL     1       5.394  26.369  49.869  1.00  0.00    -0.262 N 
HETATM   11  H   UNL     1       6.206  25.772  49.793  1.00  0.00     0.191 HD
HETATM   12  N   UNL     1       4.657  26.572  48.766  1.00  0.00    -0.173 NA
HETATM   13  C   UNL     1       3.711  27.445  49.150  1.00  0.00     0.090 A 
HETATM   14  C   UNL     1       3.875  27.768  50.526  1.00  0.00     0.084 A 
BRANCH  13  15
HETATM   15  C   UNL     1       2.693  27.940  48.213  1.00  0.00    -0.005 A 
HETATM   16  C   UNL     1       2.807  29.206  47.615  1.00  0.00     0.015 A 
HETATM   17  C   UNL     1       1.832  29.667  46.723  1.00  0.00     0.024 A 
HETATM   18  C   UNL     1       0.732  28.866  46.421  1.00  0.00     0.034 A 
HETATM   19 CL   UNL     1      -0.464  29.435  45.325  1.00  0.00    -0.084 Cl
HETATM   20  C   UNL     1       0.600  27.610  47.003  1.00  0.00     0.024 A 
HETATM   21  C   UNL     1       1.575  27.151  47.895  1.00  0.00     0.015 A 
ENDBRANCH  13  15
ENDBRANCH   5   9
BRANCH   1  22
HETATM   22  C   UNL     1       8.283  24.757  56.048  1.00  0.00     0.141 C 
BRANCH  22  23
HETATM   23  C   UNL     1       8.161  23.252  55.986  1.00  0.00    -0.047 A 
HETATM   24  C   UNL     1       7.881  22.597  54.773  1.00  0.00     0.044 A 
HETATM   25  C   UNL     1       7.799  21.205  54.714  1.00  0.00     0.068 A 
HETATM   26  C   UNL     1       8.021  20.459  55.872  1.00  0.00     0.037 A 
HETATM   27  C   UNL     1       8.325  21.092  57.076  1.00  0.00     0.003 A 
HETATM   28  C   UNL     1       8.399  22.482  57.133  1.00  0.00     0.007 A 
BRANCH  25  29
HETATM   29  O   UNL     1       7.520  20.463  53.598  1.00  0.00    -0.356 OA
HETATM   30  C   UNL     1       8.549  20.361  52.622  1.00  0.00     0.210 C 
ENDBRANCH  25  29
ENDBRANCH  22  23
ENDBRANCH   1  22
TORSDOF 5
ENDMDL
MODEL 6
REMARK VINA RESULT:      -9.6      9.142     11.317
REMARK  5 active torsions:
REMARK  status: ('A' for Active; 'I' for Inactive)
REMARK    1  A    between atoms: O_2  and  C_3 
REMARK    2  A    between atoms: C_5  and  C_6 
REMARK    3  A    between atoms: C_6  and  C_7 
REMARK       I    between atoms: C_7  and  N_8 
REMARK    4  A    between atoms: N_11  and  C_12 
REMARK    5  A    between atoms: C_16  and  C_17 
ROOT
HETATM    1  C   UNL     1       3.882  30.140  47.837  1.00  0.00     0.224 C 
HETATM    2  N   UNL     1       4.617  29.206  48.546  1.00  0.00    -0.349 N 
HETATM    3  C   UNL     1       5.649  29.492  49.546  1.00  0.00     0.145 C 
HETATM    4  C   UNL     1       5.547  28.551  50.764  1.00  0.00     0.144 C 
HETATM    5  N   UNL     1       5.476  27.121  50.365  1.00  0.00    -0.363 N 
HETATM    6  C   UNL     1       4.444  26.856  49.327  1.00  0.00     0.144 C 
HETATM    7  C   UNL     1       4.581  27.804  48.127  1.00  0.00     0.145 C 
HETATM    8  O   UNL     1       3.143  29.812  46.904  1.00  0.00    -0.273 OA
ENDROOT
BRANCH   5   9
HETATM    9  C   UNL     1       5.624  26.170  51.344  1.00  0.00     0.122 A 
HETATM   10  N   UNL     1       4.608  25.791  52.181  1.00  0.00    -0.262 N 
HETATM   11  H   UNL     1       3.667  26.159  52.212  1.00  0.00     0.191 HD
HETATM   12  N   UNL     1       4.937  24.833  53.061  1.00  0.00    -0.173 NA
HETATM   13  C   UNL     1       6.240  24.600  52.832  1.00  0.00     0.090 A 
HETATM   14  C   UNL     1       6.707  25.434  51.777  1.00  0.00     0.084 A 
BRANCH  13  15
HETATM   15  C   UNL     1       6.995  23.609  53.611  1.00  0.00    -0.005 A 
HETATM   16  C   UNL     1       7.014  23.645  55.015  1.00  0.00     0.015 A 
HETATM   17  C   UNL     1       7.735  22.695  55.746  1.00  0.00     0.024 A 
HETATM   18  C   UNL     1       8.447  21.700  55.080  1.00  0.00     0.034 A 
HETATM   19 CL   UNL     1       9.332  20.533  55.981  1.00  0.00    -0.084 Cl
HETATM   20  C   UNL     1       8.443  21.646  53.690  1.00  0.00     0.024 A 
HETATM   21  C   UNL     1       7.721  22.598  52.960  1.00  0.00     0.015 A 
ENDBRANCH  13  15
ENDBRANCH   5   9
BRANCH   1  22
HETATM   22  C   UNL     1       3.982  31.608  48.230  1.00  0.00     0.141 C 
BRANCH  22  23
HETATM   23  C   UNL     1       5.060  32.373  47.497  1.00  0.00    -0.047 A 
HETATM   24  C   UNL     1       6.101  33.009  48.198  1.00  0.00     0.044 A 
HETATM   25  C   UNL     1       7.111  33.689  47.516  1.00  0.00     0.068 A 
HETATM   26  C   UNL     1       7.094  33.715  46.121  1.00  0.00     0.037 A 
HETATM   27  C   UNL     1       6.083  33.068  45.411  1.00  0.00     0.003 A 
HETATM   28  C   UNL     1       5.073  32.396  46.096  1.00  0.00     0.007 A 
BRANCH  25  29
HETATM   29  O   UNL     1       8.162  34.353  48.089  1.00  0.00    -0.356 OA
HETATM   30  C   UNL     1       7.902  35.664  48.577  1.00  0.00     0.210 C 
ENDBRANCH  25  29
ENDBRANCH  22  23
ENDBRANCH   1  22
TORSDOF 5
ENDMDL
MODEL 7
REMARK VINA RESULT:      -9.6      5.012     11.494
REMARK  5 active torsions:
REMARK  status: ('A' for Active; 'I' for Inactive)
REMARK    1  A    between atoms: O_2  and  C_3 
REMARK    2  A    between atoms: C_5  and  C_6 
REMARK    3  A    between atoms: C_6  and  C_7 
REMARK       I    between atoms: C_7  and  N_8 
REMARK    4  A    between atoms: N_11  and  C_12 
REMARK    5  A    between atoms: C_16  and  C_17 
ROOT
HETATM    1  C   UNL     1       7.780  26.082  57.075  1.00  0.00     0.224 C 
HETATM    2  N   UNL     1       7.461  27.429  57.062  1.00  0.00    -0.349 N 
HETATM    3  C   UNL     1       6.288  28.036  56.427  1.00  0.00     0.145 C 
HETATM    4  C   UNL     1       5.662  29.136  57.309  1.00  0.00     0.144 C 
HETATM    5  N   UNL     1       6.669  30.122  57.778  1.00  0.00    -0.363 N 
HETATM    6  C   UNL     1       7.866  29.486  58.391  1.00  0.00     0.144 C 
HETATM    7  C   UNL     1       8.468  28.404  57.482  1.00  0.00     0.145 C 
HETATM    8  O   UNL     1       8.866  25.677  57.500  1.00  0.00    -0.273 OA
ENDROOT
BRANCH   5   9
HETATM    9  C   UNL     1       6.217  31.277  58.366  1.00  0.00     0.122 A 
HETATM   10  N   UNL     1       5.664  32.312  57.660  1.00  0.00    -0.262 N 
HETATM   11  H   UNL     1       5.541  32.378  56.659  1.00  0.00     0.191 HD
HETATM   12  N   UNL     1       5.263  33.349  58.411  1.00  0.00    -0.173 NA
HETATM   13  C   UNL     1       5.612  33.011  59.664  1.00  0.00     0.090 A 
HETATM   14  C   UNL     1       6.229  31.729  59.669  1.00  0.00     0.084 A 
BRANCH  13  15
HETATM   15  C   UNL     1       5.354  33.903  60.803  1.00  0.00    -0.005 A 
HETATM   16  C   UNL     1       6.185  33.898  61.936  1.00  0.00     0.015 A 
HETATM   17  C   UNL     1       5.930  34.753  63.014  1.00  0.00     0.024 A 
HETATM   18  C   UNL     1       4.840  35.619  62.971  1.00  0.00     0.034 A 
HETATM   19 CL   UNL     1       4.529  36.668  64.298  1.00  0.00    -0.084 Cl
HETATM   20  C   UNL     1       4.003  35.638  61.860  1.00  0.00     0.024 A 
HETATM   21  C   UNL     1       4.259  34.783  60.783  1.00  0.00     0.015 A 
ENDBRANCH  13  15
ENDBRANCH   5   9
BRANCH   1  22
HETATM   22  C   UNL     1       6.755  25.078  56.564  1.00  0.00     0.141 C 
BRANCH  22  23
HETATM   23  C   UNL     1       7.191  24.323  55.330  1.00  0.00    -0.047 A 
HETATM   24  C   UNL     1       7.286  22.919  55.336  1.00  0.00     0.044 A 
HETATM   25  C   UNL     1       7.659  22.223  54.185  1.00  0.00     0.068 A 
HETATM   26  C   UNL     1       7.917  22.934  53.012  1.00  0.00     0.037 A 
HETATM   27  C   UNL     1       7.803  24.322  52.983  1.00  0.00     0.003 A 
HETATM   28  C   UNL     1       7.437  25.015  54.136  1.00  0.00     0.007 A 
BRANCH  25  29
HETATM   29  O   UNL     1       7.798  20.866  54.076  1.00  0.00    -0.356 OA
HETATM   30  C   UNL     1       8.733  20.392  53.115  1.00  0.00     0.210 C 
ENDBRANCH  25  29
ENDBRANCH  22  23
ENDBRANCH   1  22
TORSDOF 5
ENDMDL
MODEL 8
REMARK VINA RESULT:      -9.5      4.971     11.461
REMARK  5 active torsions:
REMARK  status: ('A' for Active; 'I' for Inactive)
REMARK    1  A    between atoms: O_2  and  C_3 
REMARK    2  A    between atoms: C_5  and  C_6 
REMARK    3  A    between atoms: C_6  and  C_7 
REMARK       I    between atoms: C_7  and  N_8 
REMARK    4  A    between atoms: N_11  and  C_12 
REMARK    5  A    between atoms: C_16  and  C_17 
ROOT
HETATM    1  C   UNL     1       6.966  28.520  55.192  1.00  0.00     0.224 C 
HETATM    2  N   UNL     1       7.161  29.435  56.212  1.00  0.00    -0.349 N 
HETATM    3  C   UNL     1       6.250  30.518  56.591  1.00  0.00     0.145 C 
HETATM    4  C   UNL     1       6.131  30.661  58.122  1.00  0.00     0.144 C 
HETATM    5  N   UNL     1       7.459  30.733  58.784  1.00  0.00    -0.363 N 
HETATM    6  C   UNL     1       8.381  29.643  58.364  1.00  0.00     0.144 C 
HETATM    7  C   UNL     1       8.481  29.537  56.835  1.00  0.00     0.145 C 
HETATM    8  O   UNL     1       7.856  27.738  54.843  1.00  0.00    -0.273 OA
ENDROOT
BRANCH   5   9
HETATM    9  C   UNL     1       7.503  31.099  60.107  1.00  0.00     0.122 A 
HETATM   10  N   UNL     1       8.459  30.650  60.978  1.00  0.00    -0.262 N 
HETATM   11  H   UNL     1       9.211  30.001  60.787  1.00  0.00     0.191 HD
HETATM   12  N   UNL     1       8.349  31.132  62.226  1.00  0.00    -0.173 NA
HETATM   13  C   UNL     1       7.242  31.894  62.195  1.00  0.00     0.090 A 
HETATM   14  C   UNL     1       6.677  31.879  60.889  1.00  0.00     0.084 A 
BRANCH  13  15
HETATM   15  C   UNL     1       6.760  32.602  63.389  1.00  0.00    -0.005 A 
HETATM   16  C   UNL     1       5.388  32.788  63.621  1.00  0.00     0.015 A 
HETATM   17  C   UNL     1       4.940  33.463  64.762  1.00  0.00     0.024 A 
HETATM   18  C   UNL     1       5.861  33.959  65.682  1.00  0.00     0.034 A 
HETATM   19 CL   UNL     1       5.308  34.788  67.084  1.00  0.00    -0.084 Cl
HETATM   20  C   UNL     1       7.225  33.787  65.470  1.00  0.00     0.024 A 
HETATM   21  C   UNL     1       7.671  33.112  64.329  1.00  0.00     0.015 A 
ENDBRANCH  13  15
ENDBRANCH   5   9
BRANCH   1  22
HETATM   22  C   UNL     1       5.612  28.471  54.496  1.00  0.00     0.141 C 
BRANCH  22  23
HETATM   23  C   UNL     1       5.401  27.243  53.641  1.00  0.00    -0.047 A 
HETATM   24  C   UNL     1       5.400  27.330  52.237  1.00  0.00     0.044 A 
HETATM   25  C   UNL     1       5.235  26.189  51.450  1.00  0.00     0.068 A 
HETATM   26  C   UNL     1       5.091  24.947  52.071  1.00  0.00     0.037 A 
HETATM   27  C   UNL     1       5.115  24.841  53.461  1.00  0.00     0.003 A 
HETATM   28  C   UNL     1       5.274  25.983  54.243  1.00  0.00     0.007 A 
BRANCH  25  29
HETATM   29  O   UNL     1       5.203  26.153  50.082  1.00  0.00    -0.356 OA
HETATM   30  C   UNL     1       4.677  27.298  49.422  1.00  0.00     0.210 C 
ENDBRANCH  25  29
ENDBRANCH  22  23
ENDBRANCH   1  22
TORSDOF 5
ENDMDL
MODEL 9
REMARK VINA RESULT:      -9.3      2.336      3.619
REMARK  5 active torsions:
REMARK  status: ('A' for Active; 'I' for Inactive)
REMARK    1  A    between atoms: O_2  and  C_3 
REMARK    2  A    between atoms: C_5  and  C_6 
REMARK    3  A    between atoms: C_6  and  C_7 
REMARK       I    between atoms: C_7  and  N_8 
REMARK    4  A    between atoms: N_11  and  C_12 
REMARK    5  A    between atoms: C_16  and  C_17 
ROOT
HETATM    1  C   UNL     1       3.928  32.511  57.260  1.00  0.00     0.224 C 
HETATM    2  N   UNL     1       4.475  31.400  56.642  1.00  0.00    -0.349 N 
HETATM    3  C   UNL     1       5.895  31.040  56.605  1.00  0.00     0.145 C 
HETATM    4  C   UNL     1       6.111  29.528  56.815  1.00  0.00     0.144 C 
HETATM    5  N   UNL     1       5.260  28.708  55.914  1.00  0.00    -0.363 N 
HETATM    6  C   UNL     1       3.827  29.108  55.942  1.00  0.00     0.144 C 
HETATM    7  C   UNL     1       3.650  30.617  55.721  1.00  0.00     0.145 C 
HETATM    8  O   UNL     1       2.741  32.817  57.110  1.00  0.00    -0.273 OA
ENDROOT
BRANCH   5   9
HETATM    9  C   UNL     1       5.521  27.363  55.825  1.00  0.00     0.122 A 
HETATM   10  N   UNL     1       4.971  26.435  56.667  1.00  0.00    -0.262 N 
HETATM   11  H   UNL     1       4.349  26.603  57.447  1.00  0.00     0.191 HD
HETATM   12  N   UNL     1       5.330  25.167  56.413  1.00  0.00    -0.173 NA
HETATM   13  C   UNL     1       6.195  25.262  55.390  1.00  0.00     0.090 A 
HETATM   14  C   UNL     1       6.354  26.625  55.010  1.00  0.00     0.084 A 
BRANCH  13  15
HETATM   15  C   UNL     1       6.840  24.075  54.812  1.00  0.00    -0.005 A 
HETATM   16  C   UNL     1       7.254  23.003  55.620  1.00  0.00     0.015 A 
HETATM   17  C   UNL     1       7.865  21.877  55.058  1.00  0.00     0.024 A 
HETATM   18  C   UNL     1       8.069  21.812  53.682  1.00  0.00     0.034 A 
HETATM   19 CL   UNL     1       8.820  20.426  52.994  1.00  0.00    -0.084 Cl
HETATM   20  C   UNL     1       7.668  22.863  52.863  1.00  0.00     0.024 A 
HETATM   21  C   UNL     1       7.057  23.988  53.427  1.00  0.00     0.015 A 
ENDBRANCH  13  15
ENDBRANCH   5   9
BRANCH   1  22
HETATM   22  C   UNL     1       4.813  33.364  58.158  1.00  0.00     0.141 C 
BRANCH  22  23
HETATM   23  C   UNL     1       4.817  32.938  59.608  1.00  0.00    -0.047 A 
HETATM   24  C   UNL     1       5.988  32.451  60.217  1.00  0.00     0.044 A 
HETATM   25  C   UNL     1       5.996  32.088  61.564  1.00  0.00     0.068 A 
HETATM   26  C   UNL     1       4.829  32.233  62.316  1.00  0.00     0.037 A 
HETATM   27  C   UNL     1       3.668  32.738  61.735  1.00  0.00     0.003 A 
HETATM   28  C   UNL     1       3.662  33.093  60.387  1.00  0.00     0.007 A 
BRANCH  25  29
HETATM   29  O   UNL     1       7.067  31.591  62.257  1.00  0.00    -0.356 OA
HETATM   30  C   UNL     1       8.219  31.246  61.496  1.00  0.00     0.210 C 
ENDBRANCH  25  29
ENDBRANCH  22  23
ENDBRANCH   1  22
TORSDOF 5
ENDMDL
MODEL 10
REMARK VINA RESULT:      -9.2      5.156     11.220
REMARK  5 active torsions:
REMARK  status: ('A' for Active; 'I' for Inactive)
REMARK    1  A    between atoms: O_2  and  C_3 
REMARK    2  A    between atoms: C_5  and  C_6 
REMARK    3  A    between atoms: C_6  and  C_7 
REMARK       I    between atoms: C_7  and  N_8 
REMARK    4  A    between atoms: N_11  and  C_12 
REMARK    5  A    between atoms: C_16  and  C_17 
ROOT
HETATM    1  C   UNL     1       6.166  27.771  53.767  1.00  0.00     0.224 C 
HETATM    2  N   UNL     1       5.641  28.176  54.982  1.00  0.00    -0.349 N 
HETATM    3  C   UNL     1       6.232  27.945  56.303  1.00  0.00     0.145 C 
HETATM    4  C   UNL     1       6.114  29.186  57.211  1.00  0.00     0.144 C 
HETATM    5  N   UNL     1       4.728  29.718  57.258  1.00  0.00    -0.363 N 
HETATM    6  C   UNL     1       4.133  29.917  55.908  1.00  0.00     0.144 C 
HETATM    7  C   UNL     1       4.261  28.660  55.036  1.00  0.00     0.145 C 
HETATM    8  O   UNL     1       5.526  27.873  52.717  1.00  0.00    -0.273 OA
ENDROOT
BRANCH   5   9
HETATM    9  C   UNL     1       4.431  30.665  58.206  1.00  0.00     0.122 A 
HETATM   10  N   UNL     1       3.289  30.639  58.961  1.00  0.00    -0.262 N 
HETATM   11  H   UNL     1       2.532  29.970  58.910  1.00  0.00     0.191 HD
HETATM   12  N   UNL     1       3.183  31.639  59.849  1.00  0.00    -0.173 NA
HETATM   13  C   UNL     1       4.277  32.391  59.640  1.00  0.00     0.090 A 
HETATM   14  C   UNL     1       5.070  31.820  58.605  1.00  0.00     0.084 A 
BRANCH  13  15
HETATM   15  C   UNL     1       4.534  33.611  60.417  1.00  0.00    -0.005 A 
HETATM   16  C   UNL     1       3.885  34.819  60.114  1.00  0.00     0.015 A 
HETATM   17  C   UNL     1       4.137  35.975  60.862  1.00  0.00     0.024 A 
HETATM   18  C   UNL     1       5.042  35.934  61.920  1.00  0.00     0.034 A 
HETATM   19 CL   UNL     1       5.349  37.355  62.838  1.00  0.00    -0.084 Cl
HETATM   20  C   UNL     1       5.696  34.748  62.237  1.00  0.00     0.024 A 
HETATM   21  C   UNL     1       5.444  33.593  61.488  1.00  0.00     0.015 A 
ENDBRANCH  13  15
ENDBRANCH   5   9
BRANCH   1  22
HETATM   22  C   UNL     1       7.577  27.197  53.730  1.00  0.00     0.141 C 
BRANCH  22  23
HETATM   23  C   UNL     1       7.630  25.690  53.629  1.00  0.00    -0.047 A 
HETATM   24  C   UNL     1       7.446  24.881  54.765  1.00  0.00     0.044 A 
HETATM   25  C   UNL     1       7.465  23.489  54.663  1.00  0.00     0.068 A 
HETATM   26  C   UNL     1       7.647  22.900  53.410  1.00  0.00     0.037 A 
HETATM   27  C   UNL     1       7.805  23.688  52.271  1.00  0.00     0.003 A 
HETATM   28  C   UNL     1       7.792  25.077  52.378  1.00  0.00     0.007 A 
BRANCH  25  29
HETATM   29  O   UNL     1       7.313  22.605  55.696  1.00  0.00    -0.356 OA
HETATM   30  C   UNL     1       8.360  22.555  56.657  1.00  0.00     0.210 C 
ENDBRANCH  25  29
ENDBRANCH  22  23
ENDBRANCH   1  22
TORSDOF 5
ENDMDL
