MODEL 1
REMARK VINA RESULT:      -9.3      0.000      0.000
REMARK  6 active torsions:
REMARK  status: ('A' for Active; 'I' for Inactive)
REMARK    1  A    between atoms: C_4  and  C_5 
REMARK    2  A    between atoms: C_5  and  O_6 
REMARK    3  A    between atoms: O_6  and  C_7 
REMARK    4  A    between atoms: C_10  and  C_11 
REMARK    5  A    between atoms: C_17  and  C_18 
REMARK    6  A    between atoms: C_27  and  N_28 
ROOT
HETATM    1  C   UNL     1       4.745  29.350  53.545  1.00  0.00     0.072 A 
HETATM    2  N   UNL     1       4.677  30.220  52.478  1.00  0.00    -0.274 N 
HETATM    3  H   UNL     1       4.910  30.028  51.509  1.00  0.00     0.189 HD
HETATM    4  N   UNL     1       4.248  31.457  52.802  1.00  0.00    -0.148 NA
HETATM    5  C   UNL     1       4.034  31.351  54.107  1.00  0.00     0.199 A 
HETATM    6  C   UNL     1       4.326  30.093  54.637  1.00  0.00     0.040 A 
HETATM    7  C   UNL     1       4.166  29.826  56.091  1.00  0.00     0.106 A 
HETATM    8  C   UNL     1       3.631  31.056  56.816  1.00  0.00     0.081 A 
HETATM    9  C   UNL     1       3.346  30.901  58.205  1.00  0.00     0.100 C 
HETATM   10  N   UNL     1       3.119  30.765  59.335  1.00  0.00    -0.191 NA
HETATM   11  C   UNL     1       3.380  32.234  56.187  1.00  0.00     0.140 A 
HETATM   12  O   UNL     1       3.600  32.410  54.813  1.00  0.00    -0.277 OA
ENDROOT
BRANCH   7  13
HETATM   13  C   UNL     1       5.528  29.376  56.601  1.00  0.00    -0.041 A 
HETATM   14  C   UNL     1       6.639  30.229  56.653  1.00  0.00     0.027 A 
HETATM   15  C   UNL     1       7.842  29.735  57.136  1.00  0.00     0.116 A 
HETATM   16  N   UNL     1       8.014  28.473  57.578  1.00  0.00    -0.273 NA
HETATM   17  C   UNL     1       6.935  27.666  57.535  1.00  0.00     0.116 A 
HETATM   18  C   UNL     1       5.692  28.063  57.068  1.00  0.00     0.027 A 
ENDBRANCH   7  13
BRANCH  11  19
HETATM   19  N   UNL     1       2.889  33.369  56.794  1.00  0.00    -0.282 NA
HETATM   20  H   UNL     1       3.438  33.733  57.569  1.00  0.00     0.126 HD
HETATM   21  H   UNL     1       2.630  34.083  56.116  1.00  0.00     0.126 HD
ENDBRANCH  11  19
BRANCH   1  22
HETATM   22  C   UNL     1       5.235  27.985  53.438  1.00  0.00    -0.007 A 
HETATM   23  C   UNL     1       4.338  26.926  53.255  1.00  0.00     0.016 A 
HETATM   24  C   UNL     1       4.813  25.630  53.047  1.00  0.00     0.037 A 
HETATM   25  C   UNL     1       6.184  25.389  53.001  1.00  0.00     0.069 A 
HETATM   26  C   UNL     1       7.086  26.424  53.242  1.00  0.00     0.037 A 
HETATM   27  C   UNL     1       6.611  27.721  53.454  1.00  0.00     0.016 A 
BRANCH  25  28
HETATM   28  O   UNL     1       6.565  24.104  52.738  1.00  0.00    -0.347 OA
BRANCH  28  29
HETATM   29  C   UNL     1       7.949  23.852  53.012  1.00  0.00     0.214 C 
BRANCH  29  30
HETATM   30  C   UNL     1       8.082  22.578  53.814  1.00  0.00    -0.034 A 
HETATM   31  C   UNL     1       7.773  22.568  55.182  1.00  0.00     0.009 A 
HETATM   32  C   UNL     1       7.880  21.392  55.925  1.00  0.00     0.001 A 
HETATM   33  C   UNL     1       8.291  20.212  55.309  1.00  0.00     0.000 A 
HETATM   34  C   UNL     1       8.593  20.206  53.949  1.00  0.00     0.001 A 
HETATM   35  C   UNL     1       8.484  21.382  53.203  1.00  0.00     0.009 A 
ENDBRANCH  29  30
ENDBRANCH  28  29
ENDBRANCH  25  28
ENDBRANCH   1  22
TORSDOF 6
ENDMDL
MODEL 2
REMARK VINA RESULT:      -9.3      2.579      3.818
REMARK  6 active torsions:
REMARK  status: ('A' for Active; 'I' for Inactive)
REMARK    1  A    between atoms: C_4  and  C_5 
REMARK    2  A    between atoms: C_5  and  O_6 
REMARK    3  A    between atoms: O_6  and  C_7 
REMARK    4  A    between atoms: C_10  and  C_11 
REMARK    5  A    between atoms: C_17  and  C_18 
REMARK    6  A    between atoms: C_27  and  N_28 
ROOT
HETATM    1  C   UNL     1       6.031  30.018  56.765  1.00  0.00     0.072 A 
HETATM    2  N   UNL     1       5.096  30.940  56.347  1.00  0.00    -0.274 N 
HETATM    3  H   UNL     1       4.525  30.904  55.509  1.00  0.00     0.189 HD
HETATM    4  N   UNL     1       4.955  31.996  57.174  1.00  0.00    -0.148 NA
HETATM    5  C   UNL     1       5.822  31.719  58.139  1.00  0.00     0.199 A 
HETATM    6  C   UNL     1       6.527  30.528  57.954  1.00  0.00     0.040 A 
HETATM    7  C   UNL     1       7.557  30.096  58.936  1.00  0.00     0.106 A 
HETATM    8  C   UNL     1       7.654  31.082  60.095  1.00  0.00     0.081 A 
HETATM    9  C   UNL     1       8.544  30.732  61.154  1.00  0.00     0.100 C 
HETATM   10  N   UNL     1       9.272  30.439  62.009  1.00  0.00    -0.191 NA
HETATM   11  C   UNL     1       6.907  32.214  60.166  1.00  0.00     0.140 A 
HETATM   12  O   UNL     1       5.985  32.567  59.170  1.00  0.00    -0.277 OA
ENDROOT
BRANCH   7  13
HETATM   13  C   UNL     1       8.860  29.951  58.162  1.00  0.00    -0.041 A 
HETATM   14  C   UNL     1       9.199  28.786  57.461  1.00  0.00     0.027 A 
HETATM   15  C   UNL     1      10.407  28.741  56.778  1.00  0.00     0.116 A 
HETATM   16  N   UNL     1      11.283  29.765  56.733  1.00  0.00    -0.273 NA
HETATM   17  C   UNL     1      10.939  30.885  57.401  1.00  0.00     0.116 A 
HETATM   18  C   UNL     1       9.758  31.027  58.113  1.00  0.00     0.027 A 
ENDBRANCH   7  13
BRANCH  11  19
HETATM   19  N   UNL     1       6.952  33.131  61.195  1.00  0.00    -0.282 NA
HETATM   20  H   UNL     1       6.566  32.822  62.084  1.00  0.00     0.126 HD
HETATM   21  H   UNL     1       7.870  33.561  61.283  1.00  0.00     0.126 HD
ENDBRANCH  11  19
BRANCH   1  22
HETATM   22  C   UNL     1       6.388  28.833  56.001  1.00  0.00    -0.007 A 
HETATM   23  C   UNL     1       7.170  28.949  54.845  1.00  0.00     0.016 A 
HETATM   24  C   UNL     1       7.601  27.806  54.170  1.00  0.00     0.037 A 
HETATM   25  C   UNL     1       7.270  26.544  54.655  1.00  0.00     0.069 A 
HETATM   26  C   UNL     1       6.442  26.416  55.769  1.00  0.00     0.037 A 
HETATM   27  C   UNL     1       6.008  27.560  56.444  1.00  0.00     0.016 A 
BRANCH  25  28
HETATM   28  O   UNL     1       7.777  25.478  53.968  1.00  0.00    -0.347 OA
BRANCH  28  29
HETATM   29  C   UNL     1       6.792  24.490  53.639  1.00  0.00     0.214 C 
BRANCH  29  30
HETATM   30  C   UNL     1       7.322  23.116  53.978  1.00  0.00    -0.034 A 
HETATM   31  C   UNL     1       7.382  22.690  55.313  1.00  0.00     0.009 A 
HETATM   32  C   UNL     1       7.857  21.417  55.631  1.00  0.00     0.001 A 
HETATM   33  C   UNL     1       8.271  20.553  54.619  1.00  0.00     0.000 A 
HETATM   34  C   UNL     1       8.207  20.960  53.289  1.00  0.00     0.001 A 
HETATM   35  C   UNL     1       7.731  22.233  52.968  1.00  0.00     0.009 A 
ENDBRANCH  29  30
ENDBRANCH  28  29
ENDBRANCH  25  28
ENDBRANCH   1  22
TORSDOF 6
ENDMDL
MODEL 3
REMARK VINA RESULT:      -8.9      3.890      5.880
REMARK  6 active torsions:
REMARK  status: ('A' for Active; 'I' for Inactive)
REMARK    1  A    between atoms: C_4  and  C_5 
REMARK    2  A    between atoms: C_5  and  O_6 
REMARK    3  A    between atoms: O_6  and  C_7 
REMARK    4  A    between atoms: C_10  and  C_11 
REMARK    5  A    between atoms: C_17  and  C_18 
REMARK    6  A    between atoms: C_27  and  N_28 
ROOT
HETATM    1  C   UNL     1       4.682  26.900  49.497  1.00  0.00     0.072 A 
HETATM    2  N   UNL     1       5.366  26.449  48.388  1.00  0.00    -0.274 N 
HETATM    3  H   UNL     1       6.130  25.782  48.362  1.00  0.00     0.189 HD
HETATM    4  N   UNL     1       4.940  26.982  47.224  1.00  0.00    -0.148 NA
HETATM    5  C   UNL     1       3.958  27.780  47.619  1.00  0.00     0.199 A 
HETATM    6  C   UNL     1       3.746  27.791  48.999  1.00  0.00     0.040 A 
HETATM    7  C   UNL     1       2.698  28.660  49.599  1.00  0.00     0.106 A 
HETATM    8  C   UNL     1       1.942  29.428  48.521  1.00  0.00     0.081 A 
HETATM    9  C   UNL     1       0.846  30.229  48.961  1.00  0.00     0.100 C 
HETATM   10  N   UNL     1      -0.041  30.880  49.329  1.00  0.00    -0.191 NA
HETATM   11  C   UNL     1       2.240  29.331  47.199  1.00  0.00     0.140 A 
HETATM   12  O   UNL     1       3.276  28.515  46.723  1.00  0.00    -0.277 OA
ENDROOT
BRANCH   7  13
HETATM   13  C   UNL     1       3.407  29.568  50.595  1.00  0.00    -0.041 A 
HETATM   14  C   UNL     1       4.399  30.483  50.215  1.00  0.00     0.027 A 
HETATM   15  C   UNL     1       4.990  31.275  51.188  1.00  0.00     0.116 A 
HETATM   16  N   UNL     1       4.660  31.232  52.496  1.00  0.00    -0.273 NA
HETATM   17  C   UNL     1       3.696  30.357  52.847  1.00  0.00     0.116 A 
HETATM   18  C   UNL     1       3.047  29.522  51.950  1.00  0.00     0.027 A 
ENDBRANCH   7  13
BRANCH  11  19
HETATM   19  N   UNL     1       1.581  29.996  46.187  1.00  0.00    -0.282 NA
HETATM   20  H   UNL     1       0.666  29.630  45.935  1.00  0.00     0.126 HD
HETATM   21  H   UNL     1       1.586  31.004  46.326  1.00  0.00     0.126 HD
ENDBRANCH  11  19
BRANCH   1  22
HETATM   22  C   UNL     1       5.010  26.505  50.857  1.00  0.00    -0.007 A 
HETATM   23  C   UNL     1       4.563  25.278  51.363  1.00  0.00     0.016 A 
HETATM   24  C   UNL     1       4.964  24.850  52.630  1.00  0.00     0.037 A 
HETATM   25  C   UNL     1       5.827  25.636  53.389  1.00  0.00     0.069 A 
HETATM   26  C   UNL     1       6.230  26.886  52.923  1.00  0.00     0.037 A 
HETATM   27  C   UNL     1       5.826  27.316  51.655  1.00  0.00     0.016 A 
BRANCH  25  28
HETATM   28  O   UNL     1       6.215  25.120  54.593  1.00  0.00    -0.347 OA
BRANCH  28  29
HETATM   29  C   UNL     1       7.603  24.764  54.641  1.00  0.00     0.214 C 
BRANCH  29  30
HETATM   30  C   UNL     1       7.746  23.268  54.483  1.00  0.00    -0.034 A 
HETATM   31  C   UNL     1       7.609  22.424  55.595  1.00  0.00     0.009 A 
HETATM   32  C   UNL     1       7.726  21.040  55.454  1.00  0.00     0.001 A 
HETATM   33  C   UNL     1       7.975  20.484  54.201  1.00  0.00     0.000 A 
HETATM   34  C   UNL     1       8.105  21.311  53.087  1.00  0.00     0.001 A 
HETATM   35  C   UNL     1       7.986  22.696  53.226  1.00  0.00     0.009 A 
ENDBRANCH  29  30
ENDBRANCH  28  29
ENDBRANCH  25  28
ENDBRANCH   1  22
TORSDOF 6
ENDMDL
MODEL 4
REMARK VINA RESULT:      -8.7      3.692      5.250
REMARK  6 active torsions:
REMARK  status: ('A' for Active; 'I' for Inactive)
REMARK    1  A    between atoms: C_4  and  C_5 
REMARK    2  A    between atoms: C_5  and  O_6 
REMARK    3  A    between atoms: O_6  and  C_7 
REMARK    4  A    between atoms: C_10  and  C_11 
REMARK    5  A    between atoms: C_17  and  C_18 
REMARK    6  A    between atoms: C_27  and  N_28 
ROOT
HETATM    1  C   UNL     1       5.780  31.898  58.236  1.00  0.00     0.072 A 
HETATM    2  N   UNL     1       5.392  32.781  57.250  1.00  0.00    -0.274 N 
HETATM    3  H   UNL     1       5.485  32.666  56.246  1.00  0.00     0.189 HD
HETATM    4  N   UNL     1       4.831  33.916  57.716  1.00  0.00    -0.148 NA
HETATM    5  C   UNL     1       4.863  33.730  59.029  1.00  0.00     0.199 A 
HETATM    6  C   UNL     1       5.439  32.521  59.425  1.00  0.00     0.040 A 
HETATM    7  C   UNL     1       5.574  32.181  60.867  1.00  0.00     0.106 A 
HETATM    8  C   UNL     1       4.979  33.276  61.745  1.00  0.00     0.081 A 
HETATM    9  C   UNL     1       4.963  33.027  63.149  1.00  0.00     0.100 C 
HETATM   10  N   UNL     1       4.958  32.815  64.290  1.00  0.00    -0.191 NA
HETATM   11  C   UNL     1       4.439  34.416  61.239  1.00  0.00     0.140 A 
HETATM   12  O   UNL     1       4.391  34.674  59.862  1.00  0.00    -0.277 OA
ENDROOT
BRANCH   7  13
HETATM   13  C   UNL     1       7.057  31.949  61.120  1.00  0.00    -0.041 A 
HETATM   14  C   UNL     1       8.058  32.746  60.546  1.00  0.00     0.027 A 
HETATM   15  C   UNL     1       9.386  32.466  60.834  1.00  0.00     0.116 A 
HETATM   16  N   UNL     1       9.784  31.471  61.653  1.00  0.00    -0.273 NA
HETATM   17  C   UNL     1       8.812  30.720  62.209  1.00  0.00     0.116 A 
HETATM   18  C   UNL     1       7.459  30.918  61.982  1.00  0.00     0.027 A 
ENDBRANCH   7  13
BRANCH  11  19
HETATM   19  N   UNL     1       3.882  35.430  61.989  1.00  0.00    -0.282 NA
HETATM   20  H   UNL     1       3.930  36.361  61.583  1.00  0.00     0.126 HD
HETATM   21  H   UNL     1       2.954  35.187  62.329  1.00  0.00     0.126 HD
ENDBRANCH  11  19
BRANCH   1  22
HETATM   22  C   UNL     1       6.458  30.641  57.965  1.00  0.00    -0.007 A 
HETATM   23  C   UNL     1       7.843  30.534  58.142  1.00  0.00     0.016 A 
HETATM   24  C   UNL     1       8.480  29.302  57.984  1.00  0.00     0.037 A 
HETATM   25  C   UNL     1       7.736  28.169  57.668  1.00  0.00     0.069 A 
HETATM   26  C   UNL     1       6.366  28.273  57.429  1.00  0.00     0.037 A 
HETATM   27  C   UNL     1       5.729  29.508  57.584  1.00  0.00     0.016 A 
BRANCH  25  28
HETATM   28  O   UNL     1       8.426  26.993  57.586  1.00  0.00    -0.347 OA
BRANCH  28  29
HETATM   29  C   UNL     1       7.598  25.833  57.736  1.00  0.00     0.214 C 
BRANCH  29  30
HETATM   30  C   UNL     1       7.780  24.925  56.542  1.00  0.00    -0.034 A 
HETATM   31  C   UNL     1       8.788  23.949  56.543  1.00  0.00     0.009 A 
HETATM   32  C   UNL     1       8.952  23.097  55.450  1.00  0.00     0.001 A 
HETATM   33  C   UNL     1       8.107  23.206  54.347  1.00  0.00     0.000 A 
HETATM   34  C   UNL     1       7.096  24.164  54.338  1.00  0.00     0.001 A 
HETATM   35  C   UNL     1       6.929  25.016  55.431  1.00  0.00     0.009 A 
ENDBRANCH  29  30
ENDBRANCH  28  29
ENDBRANCH  25  28
ENDBRANCH   1  22
TORSDOF 6
ENDMDL
MODEL 5
REMARK VINA RESULT:      -8.7      3.610      8.019
REMARK  6 active torsions:
REMARK  status: ('A' for Active; 'I' for Inactive)
REMARK    1  A    between atoms: C_4  and  C_5 
REMARK    2  A    between atoms: C_5  and  O_6 
REMARK    3  A    between atoms: O_6  and  C_7 
REMARK    4  A    between atoms: C_10  and  C_11 
REMARK    5  A    between atoms: C_17  and  C_18 
REMARK    6  A    between atoms: C_27  and  N_28 
ROOT
HETATM    1  C   UNL     1       5.942  29.351  54.833  1.00  0.00     0.072 A 
HETATM    2  N   UNL     1       4.891  30.139  54.415  1.00  0.00    -0.274 N 
HETATM    3  H   UNL     1       4.563  31.004  54.833  1.00  0.00     0.189 HD
HETATM    4  N   UNL     1       4.252  29.672  53.323  1.00  0.00    -0.148 NA
HETATM    5  C   UNL     1       4.931  28.565  53.049  1.00  0.00     0.199 A 
HETATM    6  C   UNL     1       5.975  28.297  53.935  1.00  0.00     0.040 A 
HETATM    7  C   UNL     1       6.810  27.075  53.778  1.00  0.00     0.106 A 
HETATM    8  C   UNL     1       6.379  26.274  52.554  1.00  0.00     0.081 A 
HETATM    9  C   UNL     1       7.163  25.125  52.239  1.00  0.00     0.100 C 
HETATM   10  N   UNL     1       7.806  24.191  51.992  1.00  0.00    -0.191 NA
HETATM   11  C   UNL     1       5.341  26.642  51.758  1.00  0.00     0.140 A 
HETATM   12  O   UNL     1       4.578  27.792  52.007  1.00  0.00    -0.277 OA
ENDROOT
BRANCH   7  13
HETATM   13  C   UNL     1       6.686  26.295  55.079  1.00  0.00    -0.041 A 
HETATM   14  C   UNL     1       7.799  25.856  55.809  1.00  0.00     0.027 A 
HETATM   15  C   UNL     1       7.594  25.153  56.987  1.00  0.00     0.116 A 
HETATM   16  N   UNL     1       6.375  24.871  57.493  1.00  0.00    -0.273 NA
HETATM   17  C   UNL     1       5.313  25.309  56.788  1.00  0.00     0.116 A 
HETATM   18  C   UNL     1       5.414  26.016  55.599  1.00  0.00     0.027 A 
ENDBRANCH   7  13
BRANCH  11  19
HETATM   19  N   UNL     1       4.919  25.958  50.639  1.00  0.00    -0.282 NA
HETATM   20  H   UNL     1       4.370  26.493  49.970  1.00  0.00     0.126 HD
HETATM   21  H   UNL     1       5.674  25.429  50.207  1.00  0.00     0.126 HD
ENDBRANCH  11  19
BRANCH   1  22
HETATM   22  C   UNL     1       6.733  29.632  56.021  1.00  0.00    -0.007 A 
HETATM   23  C   UNL     1       6.110  30.075  57.194  1.00  0.00     0.016 A 
HETATM   24  C   UNL     1       6.851  30.244  58.364  1.00  0.00     0.037 A 
HETATM   25  C   UNL     1       8.213  29.953  58.374  1.00  0.00     0.069 A 
HETATM   26  C   UNL     1       8.857  29.571  57.198  1.00  0.00     0.037 A 
HETATM   27  C   UNL     1       8.115  29.404  56.025  1.00  0.00     0.016 A 
BRANCH  25  28
HETATM   28  O   UNL     1       8.854  30.092  59.572  1.00  0.00    -0.347 OA
BRANCH  28  29
HETATM   29  C   UNL     1       9.317  31.426  59.820  1.00  0.00     0.214 C 
BRANCH  29  30
HETATM   30  C   UNL     1       8.527  32.031  60.958  1.00  0.00    -0.034 A 
HETATM   31  C   UNL     1       7.395  32.817  60.693  1.00  0.00     0.009 A 
HETATM   32  C   UNL     1       6.653  33.366  61.739  1.00  0.00     0.001 A 
HETATM   33  C   UNL     1       7.029  33.132  63.061  1.00  0.00     0.000 A 
HETATM   34  C   UNL     1       8.145  32.347  63.337  1.00  0.00     0.001 A 
HETATM   35  C   UNL     1       8.888  31.794  62.292  1.00  0.00     0.009 A 
ENDBRANCH  29  30
ENDBRANCH  28  29
ENDBRANCH  25  28
ENDBRANCH   1  22
TORSDOF 6
ENDMDL
MODEL 6
REMARK VINA RESULT:      -8.6      8.949     13.442
REMARK  6 active torsions:
REMARK  status: ('A' for Active; 'I' for Inactive)
REMARK    1  A    between atoms: C_4  and  C_5 
REMARK    2  A    between atoms: C_5  and  O_6 
REMARK    3  A    between atoms: O_6  and  C_7 
REMARK    4  A    between atoms: C_10  and  C_11 
REMARK    5  A    between atoms: C_17  and  C_18 
REMARK    6  A    between atoms: C_27  and  N_28 
ROOT
HETATM    1  C   UNL     1       6.748  33.046  63.484  1.00  0.00     0.072 A 
HETATM    2  N   UNL     1       7.980  32.471  63.256  1.00  0.00    -0.274 N 
HETATM    3  H   UNL     1       8.695  32.249  63.942  1.00  0.00     0.189 HD
HETATM    4  N   UNL     1       8.225  32.187  61.960  1.00  0.00    -0.148 NA
HETATM    5  C   UNL     1       7.109  32.590  61.366  1.00  0.00     0.199 A 
HETATM    6  C   UNL     1       6.161  33.137  62.233  1.00  0.00     0.040 A 
HETATM    7  C   UNL     1       4.870  33.661  61.712  1.00  0.00     0.106 A 
HETATM    8  C   UNL     1       4.769  33.464  60.204  1.00  0.00     0.081 A 
HETATM    9  C   UNL     1       3.536  33.842  59.594  1.00  0.00     0.100 C 
HETATM   10  N   UNL     1       2.530  34.156  59.108  1.00  0.00    -0.191 NA
HETATM   11  C   UNL     1       5.765  32.911  59.463  1.00  0.00     0.140 A 
HETATM   12  O   UNL     1       6.971  32.481  60.033  1.00  0.00    -0.277 OA
ENDROOT
BRANCH   7  13
HETATM   13  C   UNL     1       4.795  35.123  62.131  1.00  0.00    -0.041 A 
HETATM   14  C   UNL     1       5.871  36.010  61.984  1.00  0.00     0.027 A 
HETATM   15  C   UNL     1       5.714  37.327  62.390  1.00  0.00     0.116 A 
HETATM   16  N   UNL     1       4.574  37.823  62.913  1.00  0.00    -0.273 NA
HETATM   17  C   UNL     1       3.543  36.963  63.038  1.00  0.00     0.116 A 
HETATM   18  C   UNL     1       3.601  35.629  62.664  1.00  0.00     0.027 A 
ENDBRANCH   7  13
BRANCH  11  19
HETATM   19  N   UNL     1       5.719  32.704  58.101  1.00  0.00    -0.282 NA
HETATM   20  H   UNL     1       6.613  32.724  57.617  1.00  0.00     0.126 HD
HETATM   21  H   UNL     1       5.147  31.897  57.857  1.00  0.00     0.126 HD
ENDBRANCH  11  19
BRANCH   1  22
HETATM   22  C   UNL     1       6.299  33.488  64.795  1.00  0.00    -0.007 A 
HETATM   23  C   UNL     1       4.937  33.458  65.120  1.00  0.00     0.016 A 
HETATM   24  C   UNL     1       4.515  33.781  66.411  1.00  0.00     0.037 A 
HETATM   25  C   UNL     1       5.451  34.117  67.386  1.00  0.00     0.069 A 
HETATM   26  C   UNL     1       6.803  34.210  67.059  1.00  0.00     0.037 A 
HETATM   27  C   UNL     1       7.225  33.889  65.765  1.00  0.00     0.016 A 
BRANCH  25  28
HETATM   28  O   UNL     1       4.961  34.366  68.637  1.00  0.00    -0.347 OA
BRANCH  28  29
HETATM   29  C   UNL     1       5.902  35.016  69.499  1.00  0.00     0.214 C 
BRANCH  29  30
HETATM   30  C   UNL     1       6.543  33.994  70.410  1.00  0.00    -0.034 A 
HETATM   31  C   UNL     1       6.003  32.703  70.514  1.00  0.00     0.009 A 
HETATM   32  C   UNL     1       6.599  31.750  71.342  1.00  0.00     0.001 A 
HETATM   33  C   UNL     1       7.742  32.074  72.070  1.00  0.00     0.000 A 
HETATM   34  C   UNL     1       8.293  33.349  71.968  1.00  0.00     0.001 A 
HETATM   35  C   UNL     1       7.700  34.304  71.138  1.00  0.00     0.009 A 
ENDBRANCH  29  30
ENDBRANCH  28  29
ENDBRANCH  25  28
ENDBRANCH   1  22
TORSDOF 6
ENDMDL
MODEL 7
REMARK VINA RESULT:      -8.6      2.718      5.028
REMARK  6 active torsions:
REMARK  status: ('A' for Active; 'I' for Inactive)
REMARK    1  A    between atoms: C_4  and  C_5 
REMARK    2  A    between atoms: C_5  and  O_6 
REMARK    3  A    between atoms: O_6  and  C_7 
REMARK    4  A    between atoms: C_10  and  C_11 
REMARK    5  A    between atoms: C_17  and  C_18 
REMARK    6  A    between atoms: C_27  and  N_28 
ROOT
HETATM    1  C   UNL     1       4.915  28.254  53.410  1.00  0.00     0.072 A 
HETATM    2  N   UNL     1       4.286  28.568  54.596  1.00  0.00    -0.274 N 
HETATM    3  H   UNL     1       4.156  27.968  55.404  1.00  0.00     0.189 HD
HETATM    4  N   UNL     1       3.801  29.826  54.647  1.00  0.00    -0.148 NA
HETATM    5  C   UNL     1       4.146  30.311  53.461  1.00  0.00     0.199 A 
HETATM    6  C   UNL     1       4.823  29.404  52.644  1.00  0.00     0.040 A 
HETATM    7  C   UNL     1       5.250  29.791  51.272  1.00  0.00     0.106 A 
HETATM    8  C   UNL     1       4.884  31.240  50.975  1.00  0.00     0.081 A 
HETATM    9  C   UNL     1       5.322  31.763  49.722  1.00  0.00     0.100 C 
HETATM   10  N   UNL     1       5.681  32.177  48.699  1.00  0.00    -0.191 NA
HETATM   11  C   UNL     1       4.222  32.032  51.859  1.00  0.00     0.140 A 
HETATM   12  O   UNL     1       3.819  31.570  53.120  1.00  0.00    -0.277 OA
ENDROOT
BRANCH   7  13
HETATM   13  C   UNL     1       4.596  28.800  50.319  1.00  0.00    -0.041 A 
HETATM   14  C   UNL     1       5.312  27.781  49.676  1.00  0.00     0.027 A 
HETATM   15  C   UNL     1       4.634  26.919  48.826  1.00  0.00     0.116 A 
HETATM   16  N   UNL     1       3.309  26.989  48.583  1.00  0.00    -0.273 NA
HETATM   17  C   UNL     1       2.629  27.966  49.218  1.00  0.00     0.116 A 
HETATM   18  C   UNL     1       3.215  28.876  50.083  1.00  0.00     0.027 A 
ENDBRANCH   7  13
BRANCH  11  19
HETATM   19  N   UNL     1       3.876  33.348  51.642  1.00  0.00    -0.282 NA
HETATM   20  H   UNL     1       2.936  33.614  51.923  1.00  0.00     0.126 HD
HETATM   21  H   UNL     1       4.592  33.991  51.975  1.00  0.00     0.126 HD
ENDBRANCH  11  19
BRANCH   1  22
HETATM   22  C   UNL     1       5.460  26.939  53.115  1.00  0.00    -0.007 A 
HETATM   23  C   UNL     1       6.845  26.733  53.113  1.00  0.00     0.016 A 
HETATM   24  C   UNL     1       7.366  25.451  52.933  1.00  0.00     0.037 A 
HETATM   25  C   UNL     1       6.507  24.366  52.775  1.00  0.00     0.069 A 
HETATM   26  C   UNL     1       5.129  24.566  52.714  1.00  0.00     0.037 A 
HETATM   27  C   UNL     1       4.607  25.851  52.890  1.00  0.00     0.016 A 
BRANCH  25  28
HETATM   28  O   UNL     1       7.096  23.138  52.660  1.00  0.00    -0.347 OA
BRANCH  28  29
HETATM   29  C   UNL     1       8.416  23.085  53.214  1.00  0.00     0.214 C 
BRANCH  29  30
HETATM   30  C   UNL     1       8.385  22.332  54.523  1.00  0.00    -0.034 A 
HETATM   31  C   UNL     1       8.521  23.020  55.738  1.00  0.00     0.009 A 
HETATM   32  C   UNL     1       8.478  22.332  56.952  1.00  0.00     0.001 A 
HETATM   33  C   UNL     1       8.295  20.951  56.966  1.00  0.00     0.000 A 
HETATM   34  C   UNL     1       8.151  20.257  55.767  1.00  0.00     0.001 A 
HETATM   35  C   UNL     1       8.191  20.944  54.551  1.00  0.00     0.009 A 
ENDBRANCH  29  30
ENDBRANCH  28  29
ENDBRANCH  25  28
ENDBRANCH   1  22
TORSDOF 6
ENDMDL
MODEL 8
REMARK VINA RESULT:      -8.5      5.320     10.249
REMARK  6 active torsions:
REMARK  status: ('A' for Active; 'I' for Inactive)
REMARK    1  A    between atoms: C_4  and  C_5 
REMARK    2  A    between atoms: C_5  and  O_6 
REMARK    3  A    between atoms: O_6  and  C_7 
REMARK    4  A    between atoms: C_10  and  C_11 
REMARK    5  A    between atoms: C_17  and  C_18 
REMARK    6  A    between atoms: C_27  and  N_28 
ROOT
HETATM    1  C   UNL     1       9.191  30.651  58.644  1.00  0.00     0.072 A 
HETATM    2  N   UNL     1      10.418  30.757  58.024  1.00  0.00    -0.274 N 
HETATM    3  H   UNL     1      11.270  31.156  58.404  1.00  0.00     0.189 HD
HETATM    4  N   UNL     1      10.445  30.264  56.769  1.00  0.00    -0.148 NA
HETATM    5  C   UNL     1       9.202  29.831  56.607  1.00  0.00     0.199 A 
HETATM    6  C   UNL     1       8.371  30.042  57.709  1.00  0.00     0.040 A 
HETATM    7  C   UNL     1       6.940  29.639  57.669  1.00  0.00     0.106 A 
HETATM    8  C   UNL     1       6.597  28.972  56.342  1.00  0.00     0.081 A 
HETATM    9  C   UNL     1       5.274  28.455  56.213  1.00  0.00     0.100 C 
HETATM   10  N   UNL     1       4.195  28.039  56.118  1.00  0.00    -0.191 NA
HETATM   11  C   UNL     1       7.499  28.819  55.337  1.00  0.00     0.140 A 
HETATM   12  O   UNL     1       8.823  29.269  55.445  1.00  0.00    -0.277 OA
ENDROOT
BRANCH   7  13
HETATM   13  C   UNL     1       6.127  30.898  57.935  1.00  0.00    -0.041 A 
HETATM   14  C   UNL     1       5.959  31.908  56.977  1.00  0.00     0.027 A 
HETATM   15  C   UNL     1       5.198  33.022  57.304  1.00  0.00     0.116 A 
HETATM   16  N   UNL     1       4.589  33.194  58.494  1.00  0.00    -0.273 NA
HETATM   17  C   UNL     1       4.747  32.209  59.402  1.00  0.00     0.116 A 
HETATM   18  C   UNL     1       5.489  31.061  59.173  1.00  0.00     0.027 A 
ENDBRANCH   7  13
BRANCH  11  19
HETATM   19  N   UNL     1       7.242  28.217  54.124  1.00  0.00    -0.282 NA
HETATM   20  H   UNL     1       7.420  28.784  53.299  1.00  0.00     0.126 HD
HETATM   21  H   UNL     1       7.647  27.285  54.067  1.00  0.00     0.126 HD
ENDBRANCH  11  19
BRANCH   1  22
HETATM   22  C   UNL     1       8.918  31.170  59.975  1.00  0.00    -0.007 A 
HETATM   23  C   UNL     1       8.410  32.464  60.137  1.00  0.00     0.016 A 
HETATM   24  C   UNL     1       8.049  32.925  61.404  1.00  0.00     0.037 A 
HETATM   25  C   UNL     1       8.175  32.090  62.511  1.00  0.00     0.069 A 
HETATM   26  C   UNL     1       8.736  30.822  62.372  1.00  0.00     0.037 A 
HETATM   27  C   UNL     1       9.101  30.361  61.104  1.00  0.00     0.016 A 
BRANCH  25  28
HETATM   28  O   UNL     1       7.747  32.598  63.705  1.00  0.00    -0.347 OA
BRANCH  28  29
HETATM   29  C   UNL     1       6.428  33.155  63.649  1.00  0.00     0.214 C 
BRANCH  29  30
HETATM   30  C   UNL     1       6.006  33.595  65.032  1.00  0.00    -0.034 A 
HETATM   31  C   UNL     1       6.972  33.874  66.011  1.00  0.00     0.009 A 
HETATM   32  C   UNL     1       6.590  34.294  67.285  1.00  0.00     0.001 A 
HETATM   33  C   UNL     1       5.239  34.447  67.594  1.00  0.00     0.000 A 
HETATM   34  C   UNL     1       4.271  34.182  66.629  1.00  0.00     0.001 A 
HETATM   35  C   UNL     1       4.652  33.763  65.352  1.00  0.00     0.009 A 
ENDBRANCH  29  30
ENDBRANCH  28  29
ENDBRANCH  25  28
ENDBRANCH   1  22
TORSDOF 6
ENDMDL
MODEL 9
REMARK VINA RESULT:      -8.2      2.191      4.754
REMARK  6 active torsions:
REMARK  status: ('A' for Active; 'I' for Inactive)
REMARK    1  A    between atoms: C_4  and  C_5 
REMARK    2  A    between atoms: C_5  and  O_6 
REMARK    3  A    between atoms: O_6  and  C_7 
REMARK    4  A    between atoms: C_10  and  C_11 
REMARK    5  A    between atoms: C_17  and  C_18 
REMARK    6  A    between atoms: C_27  and  N_28 
ROOT
HETATM    1  C   UNL     1       4.146  30.777  58.102  1.00  0.00     0.072 A 
HETATM    2  N   UNL     1       3.486  30.474  59.274  1.00  0.00    -0.274 N 
HETATM    3  H   UNL     1       3.291  29.553  59.653  1.00  0.00     0.189 HD
HETATM    4  N   UNL     1       3.068  31.554  59.965  1.00  0.00    -0.148 NA
HETATM    5  C   UNL     1       3.486  32.557  59.205  1.00  0.00     0.199 A 
HETATM    6  C   UNL     1       4.147  32.160  58.041  1.00  0.00     0.040 A 
HETATM    7  C   UNL     1       4.650  33.170  57.072  1.00  0.00     0.106 A 
HETATM    8  C   UNL     1       4.374  34.586  57.565  1.00  0.00     0.081 A 
HETATM    9  C   UNL     1       4.891  35.650  56.768  1.00  0.00     0.100 C 
HETATM   10  N   UNL     1       5.313  36.507  56.110  1.00  0.00    -0.191 NA
HETATM   11  C   UNL     1       3.720  34.849  58.727  1.00  0.00     0.140 A 
HETATM   12  O   UNL     1       3.241  33.830  59.563  1.00  0.00    -0.277 OA
ENDROOT
BRANCH   7  13
HETATM   13  C   UNL     1       3.983  32.860  55.738  1.00  0.00    -0.041 A 
HETATM   14  C   UNL     1       4.702  32.445  54.609  1.00  0.00     0.027 A 
HETATM   15  C   UNL     1       4.012  32.180  53.435  1.00  0.00     0.116 A 
HETATM   16  N   UNL     1       2.674  32.284  53.309  1.00  0.00    -0.273 NA
HETATM   17  C   UNL     1       1.992  32.672  54.406  1.00  0.00     0.116 A 
HETATM   18  C   UNL     1       2.589  32.962  55.623  1.00  0.00     0.027 A 
ENDBRANCH   7  13
BRANCH  11  19
HETATM   19  N   UNL     1       3.454  36.108  59.220  1.00  0.00    -0.282 NA
HETATM   20  H   UNL     1       2.474  36.381  59.241  1.00  0.00     0.126 HD
HETATM   21  H   UNL     1       3.938  36.284  60.098  1.00  0.00     0.126 HD
ENDBRANCH  11  19
BRANCH   1  22
HETATM   22  C   UNL     1       4.631  29.770  57.171  1.00  0.00    -0.007 A 
HETATM   23  C   UNL     1       5.903  29.209  57.340  1.00  0.00     0.016 A 
HETATM   24  C   UNL     1       6.329  28.169  56.511  1.00  0.00     0.037 A 
HETATM   25  C   UNL     1       5.480  27.672  55.526  1.00  0.00     0.069 A 
HETATM   26  C   UNL     1       4.236  28.262  55.308  1.00  0.00     0.037 A 
HETATM   27  C   UNL     1       3.811  29.305  56.135  1.00  0.00     0.016 A 
BRANCH  25  28
HETATM   28  O   UNL     1       5.951  26.618  54.795  1.00  0.00    -0.347 OA
BRANCH  28  29
HETATM   29  C   UNL     1       6.080  25.410  55.555  1.00  0.00     0.214 C 
BRANCH  29  30
HETATM   30  C   UNL     1       6.861  24.392  54.757  1.00  0.00    -0.034 A 
HETATM   31  C   UNL     1       7.252  24.674  53.440  1.00  0.00     0.009 A 
HETATM   32  C   UNL     1       7.986  23.744  52.702  1.00  0.00     0.001 A 
HETATM   33  C   UNL     1       8.344  22.525  53.274  1.00  0.00     0.000 A 
HETATM   34  C   UNL     1       7.971  22.236  54.584  1.00  0.00     0.001 A 
HETATM   35  C   UNL     1       7.237  23.166  55.325  1.00  0.00     0.009 A 
ENDBRANCH  29  30
ENDBRANCH  28  29
ENDBRANCH  25  28
ENDBRANCH   1  22
TORSDOF 6
ENDMDL
MODEL 10
REMARK VINA RESULT:      -8.0      3.540      6.647
REMARK  6 active torsions:
REMARK  status: ('A' for Active; 'I' for Inactive)
REMARK    1  A    between atoms: C_4  and  C_5 
REMARK    2  A    between atoms: C_5  and  O_6 
REMARK    3  A    between atoms: O_6  and  C_7 
REMARK    4  A    between atoms: C_10  and  C_11 
REMARK    5  A    between atoms: C_17  and  C_18 
REMARK    6  A    between atoms: C_27  and  N_28 
ROOT
HETATM    1  C   UNL     1       5.248  26.895  53.814  1.00  0.00     0.072 A 
HETATM    2  N   UNL     1       4.906  25.563  53.723  1.00  0.00    -0.274 N 
HETATM    3  H   UNL     1       4.382  25.108  52.982  1.00  0.00     0.189 HD
HETATM    4  N   UNL     1       5.335  24.812  54.759  1.00  0.00    -0.148 NA
HETATM    5  C   UNL     1       5.969  25.702  55.511  1.00  0.00     0.199 A 
HETATM    6  C   UNL     1       5.950  27.002  55.003  1.00  0.00     0.040 A 
HETATM    7  C   UNL     1       6.593  28.117  55.749  1.00  0.00     0.106 A 
HETATM    8  C   UNL     1       7.252  27.612  57.027  1.00  0.00     0.081 A 
HETATM    9  C   UNL     1       7.985  28.571  57.787  1.00  0.00     0.100 C 
HETATM   10  N   UNL     1       8.576  29.360  58.399  1.00  0.00    -0.191 NA
HETATM   11  C   UNL     1       7.206  26.311  57.417  1.00  0.00     0.140 A 
HETATM   12  O   UNL     1       6.539  25.329  56.671  1.00  0.00    -0.277 OA
ENDROOT
BRANCH   7  13
HETATM   13  C   UNL     1       5.504  29.151  56.005  1.00  0.00    -0.041 A 
HETATM   14  C   UNL     1       4.335  28.859  56.720  1.00  0.00     0.027 A 
HETATM   15  C   UNL     1       3.396  29.863  56.910  1.00  0.00     0.116 A 
HETATM   16  N   UNL     1       3.543  31.125  56.457  1.00  0.00    -0.273 NA
HETATM   17  C   UNL     1       4.678  31.396  55.782  1.00  0.00     0.116 A 
HETATM   18  C   UNL     1       5.673  30.463  55.538  1.00  0.00     0.027 A 
ENDBRANCH   7  13
BRANCH  11  19
HETATM   19  N   UNL     1       7.792  25.803  58.556  1.00  0.00    -0.282 NA
HETATM   20  H   UNL     1       8.473  26.405  59.013  1.00  0.00     0.126 HD
HETATM   21  H   UNL     1       7.105  25.414  59.199  1.00  0.00     0.126 HD
ENDBRANCH  11  19
BRANCH   1  22
HETATM   22  C   UNL     1       4.840  27.896  52.841  1.00  0.00    -0.007 A 
HETATM   23  C   UNL     1       5.791  28.497  52.007  1.00  0.00     0.016 A 
HETATM   24  C   UNL     1       5.388  29.380  51.003  1.00  0.00     0.037 A 
HETATM   25  C   UNL     1       4.036  29.650  50.815  1.00  0.00     0.069 A 
HETATM   26  C   UNL     1       3.085  29.106  51.676  1.00  0.00     0.037 A 
HETATM   27  C   UNL     1       3.488  28.225  52.684  1.00  0.00     0.016 A 
BRANCH  25  28
HETATM   28  O   UNL     1       3.722  30.480  49.776  1.00  0.00    -0.347 OA
BRANCH  28  29
HETATM   29  C   UNL     1       4.238  30.036  48.515  1.00  0.00     0.214 C 
BRANCH  29  30
HETATM   30  C   UNL     1       3.551  28.751  48.113  1.00  0.00    -0.034 A 
HETATM   31  C   UNL     1       2.167  28.732  47.881  1.00  0.00     0.009 A 
HETATM   32  C   UNL     1       1.529  27.553  47.495  1.00  0.00     0.001 A 
HETATM   33  C   UNL     1       2.265  26.381  47.330  1.00  0.00     0.000 A 
HETATM   34  C   UNL     1       3.641  26.389  47.549  1.00  0.00     0.001 A 
HETATM   35  C   UNL     1       4.282  27.569  47.933  1.00  0.00     0.009 A 
ENDBRANCH  29  30
ENDBRANCH  28  29
ENDBRANCH  25  28
ENDBRANCH   1  22
TORSDOF 6
ENDMDL
