MODEL 1
REMARK VINA RESULT:      -8.6      0.000      0.000
REMARK  9 active torsions:
REMARK  status: ('A' for Active; 'I' for Inactive)
REMARK    1  A    between atoms: C_5  and  C_6 
REMARK    2  A    between atoms: C_8  and  C_9 
REMARK    3  A    between atoms: C_9  and  C_10 
REMARK       I    between atoms: C_10  and  N_11 
REMARK    4  A    between atoms: N_11  and  C_12 
REMARK    5  A    between atoms: C_12  and  C_13 
REMARK    6  A    between atoms: C_13  and  N_14 
REMARK    7  A    between atoms: C_28  and  C_29 
REMARK    8  A    between atoms: C_29  and  O_30 
REMARK    9  A    between atoms: O_30  and  C_31 
ROOT
HETATM    1  C   UNL     1       4.325  35.164  61.667  1.00  0.00     0.166 C 
HETATM    2  N   UNL     1       4.249  34.878  60.142  1.00  0.00    -0.319 N 
HETATM    3  C   UNL     1       4.355  33.837  59.311  1.00  0.00     0.011 C 
HETATM    4  C   UNL     1       2.988  35.541  59.709  1.00  0.00     0.170 C 
HETATM    5  S   UNL     1       2.812  35.638  58.003  1.00  0.00    -0.086 SA
HETATM    6  C   UNL     1       3.369  33.909  58.090  1.00  0.00     0.135 C 
HETATM    7  N   UNL     1       1.991  35.420  60.505  1.00  0.00    -0.229 NA
HETATM    8  C   UNL     1       2.151  34.649  61.724  1.00  0.00     0.048 C 
HETATM    9  C   UNL     1       0.696  34.671  62.202  1.00  0.00     0.071 C 
HETATM   10  C   UNL     1       3.316  34.052  62.273  1.00  0.00     0.069 C 
ENDROOT
BRANCH   3  11
HETATM   11  C   UNL     1       4.945  32.448  59.554  1.00  0.00     0.156 C 
BRANCH  11  12
HETATM   12  C   UNL     1       5.479  31.668  58.360  1.00  0.00     0.223 C 
HETATM   13  N   UNL     1       4.999  30.379  58.236  1.00  0.00    -0.359 N 
HETATM   14  H   UNL     1       4.375  30.040  58.967  1.00  0.00     0.162 HD
HETATM   15  O   UNL     1       6.275  32.163  57.568  1.00  0.00    -0.273 OA
BRANCH  13  16
HETATM   16  C   UNL     1       5.503  29.301  57.363  1.00  0.00     0.150 C 
BRANCH  16  17
HETATM   17  C   UNL     1       6.886  28.630  57.600  1.00  0.00     0.254 C 
BRANCH  17  18
HETATM   18  N   UNL     1       8.093  29.521  57.326  1.00  0.00    -0.070 N 
HETATM   19  H   UNL     1       7.700  30.356  56.844  1.00  0.00     0.279 HD
HETATM   20  C   UNL     1       8.747  29.991  58.588  1.00  0.00     0.235 C 
HETATM   21  C   UNL     1       9.947  30.877  58.310  1.00  0.00     0.028 C 
HETATM   22  C   UNL     1      10.951  30.212  57.390  1.00  0.00     0.003 C 
HETATM   23  C   UNL     1      10.258  29.793  56.103  1.00  0.00     0.028 C 
HETATM   24  C   UNL     1       9.082  28.860  56.385  1.00  0.00     0.235 C 
ENDBRANCH  17  18
ENDBRANCH  16  17
ENDBRANCH  13  16
ENDBRANCH  11  12
ENDBRANCH   3  11
BRANCH   1  25
HETATM   25  C   UNL     1       3.959  36.554  62.634  1.00  0.00    -0.030 C 
HETATM   26  C   UNL     1       4.320  36.712  63.999  1.00  0.00     0.010 C 
HETATM   27  C   UNL     1       5.246  37.723  64.428  1.00  0.00     0.007 C 
HETATM   28  C   UNL     1       5.826  38.611  63.521  1.00  0.00    -0.062 C 
HETATM   29  C   UNL     1       6.967  39.537  63.874  1.00  0.00     0.048 C 
HETATM   30  C   UNL     1       5.237  38.653  62.263  1.00  0.00     0.007 C 
HETATM   31  C   UNL     1       4.213  37.742  61.900  1.00  0.00     0.010 C 
ENDBRANCH   1  25
BRANCH  10  32
HETATM   32  C   UNL     1       4.681  33.373  62.879  1.00  0.00     0.294 C 
HETATM   33  O   UNL     1       4.584  32.275  63.486  1.00  0.00    -0.259 OA
BRANCH  32  34
HETATM   34  O   UNL     1       5.901  33.913  62.708  1.00  0.00    -0.313 OA
BRANCH  34  35
HETATM   35  C   UNL     1       7.085  33.688  63.641  1.00  0.00     0.124 C 
HETATM   36  C   UNL     1       6.911  33.813  65.172  1.00  0.00     0.040 C 
HETATM   37  C   UNL     1       7.909  32.405  63.394  1.00  0.00     0.040 C 
ENDBRANCH  34  35
ENDBRANCH  32  34
ENDBRANCH  10  32
TORSDOF 9
ENDMDL
MODEL 2
REMARK VINA RESULT:      -8.3     10.441     13.532
REMARK  9 active torsions:
REMARK  status: ('A' for Active; 'I' for Inactive)
REMARK    1  A    between atoms: C_5  and  C_6 
REMARK    2  A    between atoms: C_8  and  C_9 
REMARK    3  A    between atoms: C_9  and  C_10 
REMARK       I    between atoms: C_10  and  N_11 
REMARK    4  A    between atoms: N_11  and  C_12 
REMARK    5  A    between atoms: C_12  and  C_13 
REMARK    6  A    between atoms: C_13  and  N_14 
REMARK    7  A    between atoms: C_28  and  C_29 
REMARK    8  A    between atoms: C_29  and  O_30 
REMARK    9  A    between atoms: O_30  and  C_31 
ROOT
HETATM    1  C   UNL     1       3.619  29.271  49.315  1.00  0.00     0.166 C 
HETATM    2  N   UNL     1       3.798  28.918  50.816  1.00  0.00    -0.319 N 
HETATM    3  C   UNL     1       4.480  28.048  51.567  1.00  0.00     0.011 C 
HETATM    4  C   UNL     1       4.072  30.228  51.469  1.00  0.00     0.170 C 
HETATM    5  S   UNL     1       4.012  30.169  53.184  1.00  0.00    -0.086 SA
HETATM    6  C   UNL     1       4.985  28.655  52.925  1.00  0.00     0.135 C 
HETATM    7  N   UNL     1       4.849  31.019  50.828  1.00  0.00    -0.229 NA
HETATM    8  C   UNL     1       5.408  30.587  49.561  1.00  0.00     0.048 C 
HETATM    9  C   UNL     1       6.350  31.769  49.310  1.00  0.00     0.071 C 
HETATM   10  C   UNL     1       5.152  29.408  48.811  1.00  0.00     0.069 C 
ENDROOT
BRANCH   3  11
HETATM   11  C   UNL     1       5.181  26.749  51.167  1.00  0.00     0.156 C 
BRANCH  11  12
HETATM   12  C   UNL     1       5.692  25.832  52.269  1.00  0.00     0.223 C 
HETATM   13  N   UNL     1       7.066  25.758  52.384  1.00  0.00    -0.359 N 
HETATM   14  H   UNL     1       7.621  26.276  51.704  1.00  0.00     0.162 HD
HETATM   15  O   UNL     1       4.926  25.210  53.001  1.00  0.00    -0.273 OA
BRANCH  13  16
HETATM   16  C   UNL     1       7.864  24.786  53.157  1.00  0.00     0.150 C 
BRANCH  16  17
HETATM   17  C   UNL     1       7.814  23.261  52.860  1.00  0.00     0.254 C 
BRANCH  17  18
HETATM   18  N   UNL     1       8.320  22.365  53.986  1.00  0.00    -0.070 N 
HETATM   19  H   UNL     1       9.349  22.522  54.005  1.00  0.00     0.279 HD
HETATM   20  C   UNL     1       7.774  22.770  55.320  1.00  0.00     0.235 C 
HETATM   21  C   UNL     1       8.280  21.877  56.437  1.00  0.00     0.028 C 
HETATM   22  C   UNL     1       8.017  20.410  56.163  1.00  0.00     0.003 C 
HETATM   23  C   UNL     1       8.627  20.028  54.824  1.00  0.00     0.028 C 
HETATM   24  C   UNL     1       8.076  20.897  53.695  1.00  0.00     0.235 C 
ENDBRANCH  17  18
ENDBRANCH  16  17
ENDBRANCH  13  16
ENDBRANCH  11  12
ENDBRANCH   3  11
BRANCH   1  25
HETATM   25  C   UNL     1       2.845  30.580  48.487  1.00  0.00    -0.030 C 
HETATM   26  C   UNL     1       2.879  30.788  47.082  1.00  0.00     0.010 C 
HETATM   27  C   UNL     1       1.695  30.707  46.272  1.00  0.00     0.007 C 
HETATM   28  C   UNL     1       0.447  30.434  46.834  1.00  0.00    -0.062 C 
HETATM   29  C   UNL     1      -0.783  30.115  46.016  1.00  0.00     0.048 C 
HETATM   30  C   UNL     1       0.374  30.545  48.217  1.00  0.00     0.007 C 
HETATM   31  C   UNL     1       1.535  30.777  48.998  1.00  0.00     0.010 C 
ENDBRANCH   1  25
BRANCH  10  32
HETATM   32  C   UNL     1       4.833  28.035  47.972  1.00  0.00     0.294 C 
HETATM   33  O   UNL     1       5.617  27.707  47.044  1.00  0.00    -0.259 OA
BRANCH  32  34
HETATM   34  O   UNL     1       3.804  27.223  48.269  1.00  0.00    -0.313 OA
BRANCH  34  35
HETATM   35  C   UNL     1       3.010  26.423  47.243  1.00  0.00     0.124 C 
HETATM   36  C   UNL     1       2.879  24.888  47.377  1.00  0.00     0.040 C 
HETATM   37  C   UNL     1       1.601  26.959  46.907  1.00  0.00     0.040 C 
ENDBRANCH  34  35
ENDBRANCH  32  34
ENDBRANCH  10  32
TORSDOF 9
ENDMDL
MODEL 3
REMARK VINA RESULT:      -8.1      1.444      2.181
REMARK  9 active torsions:
REMARK  status: ('A' for Active; 'I' for Inactive)
REMARK    1  A    between atoms: C_5  and  C_6 
REMARK    2  A    between atoms: C_8  and  C_9 
REMARK    3  A    between atoms: C_9  and  C_10 
REMARK       I    between atoms: C_10  and  N_11 
REMARK    4  A    between atoms: N_11  and  C_12 
REMARK    5  A    between atoms: C_12  and  C_13 
REMARK    6  A    between atoms: C_13  and  N_14 
REMARK    7  A    between atoms: C_28  and  C_29 
REMARK    8  A    between atoms: C_29  and  O_30 
REMARK    9  A    between atoms: O_30  and  C_31 
ROOT
HETATM    1  C   UNL     1       4.532  35.058  61.515  1.00  0.00     0.166 C 
HETATM    2  N   UNL     1       4.564  34.642  60.019  1.00  0.00    -0.319 N 
HETATM    3  C   UNL     1       4.726  33.534  59.290  1.00  0.00     0.011 C 
HETATM    4  C   UNL     1       3.339  35.261  59.443  1.00  0.00     0.170 C 
HETATM    5  S   UNL     1       3.285  35.210  57.727  1.00  0.00    -0.086 SA
HETATM    6  C   UNL     1       3.830  33.498  58.001  1.00  0.00     0.135 C 
HETATM    7  N   UNL     1       2.287  35.204  60.173  1.00  0.00    -0.229 NA
HETATM    8  C   UNL     1       2.358  34.541  61.462  1.00  0.00     0.048 C 
HETATM    9  C   UNL     1       0.873  34.599  61.831  1.00  0.00     0.071 C 
HETATM   10  C   UNL     1       3.480  33.998  62.142  1.00  0.00     0.069 C 
ENDROOT
BRANCH   3  11
HETATM   11  C   UNL     1       5.295  32.173  59.692  1.00  0.00     0.156 C 
BRANCH  11  12
HETATM   12  C   UNL     1       6.527  31.658  58.962  1.00  0.00     0.223 C 
HETATM   13  N   UNL     1       6.398  30.402  58.402  1.00  0.00    -0.359 N 
HETATM   14  H   UNL     1       5.521  29.907  58.562  1.00  0.00     0.162 HD
HETATM   15  O   UNL     1       7.555  32.323  58.877  1.00  0.00    -0.273 OA
BRANCH  13  16
HETATM   16  C   UNL     1       7.461  29.530  57.867  1.00  0.00     0.150 C 
BRANCH  16  17
HETATM   17  C   UNL     1       7.489  29.088  56.376  1.00  0.00     0.254 C 
BRANCH  17  18
HETATM   18  N   UNL     1       7.489  27.580  56.148  1.00  0.00    -0.070 N 
HETATM   19  H   UNL     1       8.221  27.424  55.424  1.00  0.00     0.279 HD
HETATM   20  C   UNL     1       7.893  26.822  57.374  1.00  0.00     0.235 C 
HETATM   21  C   UNL     1       7.892  25.323  57.142  1.00  0.00     0.028 C 
HETATM   22  C   UNL     1       6.565  24.826  56.606  1.00  0.00     0.003 C 
HETATM   23  C   UNL     1       6.214  25.586  55.338  1.00  0.00     0.028 C 
HETATM   24  C   UNL     1       6.166  27.092  55.589  1.00  0.00     0.235 C 
ENDBRANCH  17  18
ENDBRANCH  16  17
ENDBRANCH  13  16
ENDBRANCH  11  12
ENDBRANCH   3  11
BRANCH   1  25
HETATM   25  C   UNL     1       4.101  36.524  62.331  1.00  0.00    -0.030 C 
HETATM   26  C   UNL     1       4.295  36.770  63.718  1.00  0.00     0.010 C 
HETATM   27  C   UNL     1       5.198  37.783  64.191  1.00  0.00     0.007 C 
HETATM   28  C   UNL     1       5.919  38.585  63.306  1.00  0.00    -0.062 C 
HETATM   29  C   UNL     1       7.041  39.500  63.738  1.00  0.00     0.048 C 
HETATM   30  C   UNL     1       5.494  38.553  61.984  1.00  0.00     0.007 C 
HETATM   31  C   UNL     1       4.489  37.648  61.556  1.00  0.00     0.010 C 
ENDBRANCH   1  25
BRANCH  10  32
HETATM   32  C   UNL     1       4.797  33.379  62.899  1.00  0.00     0.294 C 
HETATM   33  O   UNL     1       4.651  32.346  63.603  1.00  0.00    -0.259 OA
BRANCH  32  34
HETATM   34  O   UNL     1       6.030  33.896  62.755  1.00  0.00    -0.313 OA
BRANCH  34  35
HETATM   35  C   UNL     1       7.240  33.493  63.590  1.00  0.00     0.124 C 
HETATM   36  C   UNL     1       7.171  33.522  65.134  1.00  0.00     0.040 C 
HETATM   37  C   UNL     1       7.917  32.160  63.203  1.00  0.00     0.040 C 
ENDBRANCH  34  35
ENDBRANCH  32  34
ENDBRANCH  10  32
TORSDOF 9
ENDMDL
MODEL 4
REMARK VINA RESULT:      -8.1      8.444     11.963
REMARK  9 active torsions:
REMARK  status: ('A' for Active; 'I' for Inactive)
REMARK    1  A    between atoms: C_5  and  C_6 
REMARK    2  A    between atoms: C_8  and  C_9 
REMARK    3  A    between atoms: C_9  and  C_10 
REMARK       I    between atoms: C_10  and  N_11 
REMARK    4  A    between atoms: N_11  and  C_12 
REMARK    5  A    between atoms: C_12  and  C_13 
REMARK    6  A    between atoms: C_13  and  N_14 
REMARK    7  A    between atoms: C_28  and  C_29 
REMARK    8  A    between atoms: C_29  and  O_30 
REMARK    9  A    between atoms: O_30  and  C_31 
ROOT
HETATM    1  C   UNL     1       4.130  29.220  50.704  1.00  0.00     0.166 C 
HETATM    2  N   UNL     1       3.261  30.214  51.522  1.00  0.00    -0.319 N 
HETATM    3  C   UNL     1       3.267  30.796  52.725  1.00  0.00     0.011 C 
HETATM    4  C   UNL     1       3.030  31.351  50.589  1.00  0.00     0.170 C 
HETATM    5  S   UNL     1       1.840  32.462  51.137  1.00  0.00    -0.086 SA
HETATM    6  C   UNL     1       2.737  32.274  52.708  1.00  0.00     0.135 C 
HETATM    7  N   UNL     1       4.036  31.705  49.880  1.00  0.00    -0.229 NA
HETATM    8  C   UNL     1       5.298  31.009  50.048  1.00  0.00     0.048 C 
HETATM    9  C   UNL     1       6.168  31.887  49.142  1.00  0.00     0.071 C 
HETATM   10  C   UNL     1       5.607  29.869  50.838  1.00  0.00     0.069 C 
ENDROOT
BRANCH   3  11
HETATM   11  C   UNL     1       4.056  30.432  53.983  1.00  0.00     0.156 C 
BRANCH  11  12
HETATM   12  C   UNL     1       4.015  28.991  54.473  1.00  0.00     0.223 C 
HETATM   13  N   UNL     1       4.842  28.709  55.543  1.00  0.00    -0.359 N 
HETATM   14  H   UNL     1       5.440  29.461  55.883  1.00  0.00     0.162 HD
HETATM   15  O   UNL     1       3.290  28.150  53.949  1.00  0.00    -0.273 OA
BRANCH  13  16
HETATM   16  C   UNL     1       5.222  27.386  56.074  1.00  0.00     0.150 C 
BRANCH  16  17
HETATM   17  C   UNL     1       6.552  27.162  56.849  1.00  0.00     0.254 C 
BRANCH  17  18
HETATM   18  N   UNL     1       7.363  25.950  56.407  1.00  0.00    -0.070 N 
HETATM   19  H   UNL     1       8.001  26.314  55.670  1.00  0.00     0.279 HD
HETATM   20  C   UNL     1       8.211  25.403  57.512  1.00  0.00     0.235 C 
HETATM   21  C   UNL     1       9.017  24.196  57.067  1.00  0.00     0.028 C 
HETATM   22  C   UNL     1       8.145  23.115  56.463  1.00  0.00     0.003 C 
HETATM   23  C   UNL     1       7.336  23.698  55.316  1.00  0.00     0.028 C 
HETATM   24  C   UNL     1       6.488  24.880  55.781  1.00  0.00     0.235 C 
ENDBRANCH  17  18
ENDBRANCH  16  17
ENDBRANCH  13  16
ENDBRANCH  11  12
ENDBRANCH   3  11
BRANCH   1  25
HETATM   25  C   UNL     1       4.106  28.706  49.051  1.00  0.00    -0.030 C 
HETATM   26  C   UNL     1       5.046  27.817  48.462  1.00  0.00     0.010 C 
HETATM   27  C   UNL     1       4.665  26.520  47.976  1.00  0.00     0.007 C 
HETATM   28  C   UNL     1       3.344  26.075  48.047  1.00  0.00    -0.062 C 
HETATM   29  C   UNL     1       2.929  24.650  47.765  1.00  0.00     0.048 C 
HETATM   30  C   UNL     1       2.396  27.052  48.326  1.00  0.00     0.007 C 
HETATM   31  C   UNL     1       2.782  28.376  48.660  1.00  0.00     0.010 C 
ENDBRANCH   1  25
BRANCH  10  32
HETATM   32  C   UNL     1       5.930  28.553  51.762  1.00  0.00     0.294 C 
HETATM   33  O   UNL     1       6.682  28.694  52.760  1.00  0.00    -0.259 OA
BRANCH  32  34
HETATM   34  O   UNL     1       5.383  27.347  51.526  1.00  0.00    -0.313 OA
BRANCH  34  35
HETATM   35  C   UNL     1       5.735  26.075  52.288  1.00  0.00     0.124 C 
HETATM   36  C   UNL     1       4.670  24.978  52.518  1.00  0.00     0.040 C 
HETATM   37  C   UNL     1       7.024  25.351  51.841  1.00  0.00     0.040 C 
ENDBRANCH  34  35
ENDBRANCH  32  34
ENDBRANCH  10  32
TORSDOF 9
ENDMDL
MODEL 5
REMARK VINA RESULT:      -7.8      6.793     10.437
REMARK  9 active torsions:
REMARK  status: ('A' for Active; 'I' for Inactive)
REMARK    1  A    between atoms: C_5  and  C_6 
REMARK    2  A    between atoms: C_8  and  C_9 
REMARK    3  A    between atoms: C_9  and  C_10 
REMARK       I    between atoms: C_10  and  N_11 
REMARK    4  A    between atoms: N_11  and  C_12 
REMARK    5  A    between atoms: C_12  and  C_13 
REMARK    6  A    between atoms: C_13  and  N_14 
REMARK    7  A    between atoms: C_28  and  C_29 
REMARK    8  A    between atoms: C_29  and  O_30 
REMARK    9  A    between atoms: O_30  and  C_31 
ROOT
HETATM    1  C   UNL     1       6.868  28.581  55.346  1.00  0.00     0.166 C 
HETATM    2  N   UNL     1       5.632  29.369  54.836  1.00  0.00    -0.319 N 
HETATM    3  C   UNL     1       4.849  29.416  53.753  1.00  0.00     0.011 C 
HETATM    4  C   UNL     1       4.660  29.293  55.962  1.00  0.00     0.170 C 
HETATM    5  S   UNL     1       3.313  30.343  55.781  1.00  0.00    -0.086 SA
HETATM    6  C   UNL     1       3.339  29.690  54.084  1.00  0.00     0.135 C 
HETATM    7  N   UNL     1       4.584  28.162  56.559  1.00  0.00    -0.229 NA
HETATM    8  C   UNL     1       5.409  27.062  56.095  1.00  0.00     0.048 C 
HETATM    9  C   UNL     1       4.840  25.955  56.988  1.00  0.00     0.071 C 
HETATM   10  C   UNL     1       6.420  27.045  55.098  1.00  0.00     0.069 C 
ENDROOT
BRANCH   3  11
HETATM   11  C   UNL     1       5.088  28.860  52.349  1.00  0.00     0.156 C 
BRANCH  11  12
HETATM   12  C   UNL     1       5.111  29.832  51.178  1.00  0.00     0.223 C 
HETATM   13  N   UNL     1       3.870  30.205  50.698  1.00  0.00    -0.359 N 
HETATM   14  H   UNL     1       3.054  29.770  51.125  1.00  0.00     0.162 HD
HETATM   15  O   UNL     1       6.163  30.253  50.706  1.00  0.00    -0.273 OA
BRANCH  13  16
HETATM   16  C   UNL     1       3.556  30.909  49.440  1.00  0.00     0.150 C 
BRANCH  16  17
HETATM   17  C   UNL     1       3.174  30.142  48.142  1.00  0.00     0.254 C 
BRANCH  17  18
HETATM   18  N   UNL     1       3.151  28.623  48.271  1.00  0.00    -0.070 N 
HETATM   19  H   UNL     1       2.993  28.447  49.284  1.00  0.00     0.279 HD
HETATM   20  C   UNL     1       2.010  28.009  47.520  1.00  0.00     0.235 C 
HETATM   21  C   UNL     1       1.991  26.497  47.651  1.00  0.00     0.028 C 
HETATM   22  C   UNL     1       3.310  25.870  47.249  1.00  0.00     0.003 C 
HETATM   23  C   UNL     1       4.434  26.485  48.065  1.00  0.00     0.028 C 
HETATM   24  C   UNL     1       4.481  28.002  47.889  1.00  0.00     0.235 C 
ENDBRANCH  17  18
ENDBRANCH  16  17
ENDBRANCH  13  16
ENDBRANCH  11  12
ENDBRANCH   3  11
BRANCH   1  25
HETATM   25  C   UNL     1       7.663  28.484  56.882  1.00  0.00    -0.030 C 
HETATM   26  C   UNL     1       9.063  28.317  57.064  1.00  0.00     0.010 C 
HETATM   27  C   UNL     1       9.878  29.333  57.670  1.00  0.00     0.007 C 
HETATM   28  C   UNL     1       9.327  30.532  58.124  1.00  0.00    -0.062 C 
HETATM   29  C   UNL     1      10.156  31.719  58.557  1.00  0.00     0.048 C 
HETATM   30  C   UNL     1       7.941  30.554  58.230  1.00  0.00     0.007 C 
HETATM   31  C   UNL     1       7.151  29.473  57.762  1.00  0.00     0.010 C 
ENDBRANCH   1  25
BRANCH  10  32
HETATM   32  C   UNL     1       7.581  27.059  53.939  1.00  0.00     0.294 C 
HETATM   33  O   UNL     1       8.314  28.077  53.840  1.00  0.00    -0.259 OA
BRANCH  32  34
HETATM   34  O   UNL     1       7.815  26.011  53.130  1.00  0.00    -0.313 OA
BRANCH  34  35
HETATM   35  C   UNL     1       7.050  24.693  53.180  1.00  0.00     0.124 C 
HETATM   36  C   UNL     1       5.663  24.566  52.508  1.00  0.00     0.040 C 
HETATM   37  C   UNL     1       7.848  23.431  52.787  1.00  0.00     0.040 C 
ENDBRANCH  34  35
ENDBRANCH  32  34
ENDBRANCH  10  32
TORSDOF 9
ENDMDL
MODEL 6
REMARK VINA RESULT:      -7.8      6.290     11.593
REMARK  9 active torsions:
REMARK  status: ('A' for Active; 'I' for Inactive)
REMARK    1  A    between atoms: C_5  and  C_6 
REMARK    2  A    between atoms: C_8  and  C_9 
REMARK    3  A    between atoms: C_9  and  C_10 
REMARK       I    between atoms: C_10  and  N_11 
REMARK    4  A    between atoms: N_11  and  C_12 
REMARK    5  A    between atoms: C_12  and  C_13 
REMARK    6  A    between atoms: C_13  and  N_14 
REMARK    7  A    between atoms: C_28  and  C_29 
REMARK    8  A    between atoms: C_29  and  O_30 
REMARK    9  A    between atoms: O_30  and  C_31 
ROOT
HETATM    1  C   UNL     1       3.789  29.140  50.979  1.00  0.00     0.166 C 
HETATM    2  N   UNL     1       3.261  30.061  52.112  1.00  0.00    -0.319 N 
HETATM    3  C   UNL     1       3.529  30.329  53.393  1.00  0.00     0.011 C 
HETATM    4  C   UNL     1       3.192  31.409  51.483  1.00  0.00     0.170 C 
HETATM    5  S   UNL     1       2.350  32.568  52.430  1.00  0.00    -0.086 SA
HETATM    6  C   UNL     1       3.347  31.843  53.767  1.00  0.00     0.135 C 
HETATM    7  N   UNL     1       4.170  31.718  50.715  1.00  0.00    -0.229 NA
HETATM    8  C   UNL     1       5.253  30.770  50.535  1.00  0.00     0.048 C 
HETATM    9  C   UNL     1       6.194  31.650  49.707  1.00  0.00     0.071 C 
HETATM   10  C   UNL     1       5.381  29.437  51.011  1.00  0.00     0.069 C 
ENDROOT
BRANCH   3  11
HETATM   11  C   UNL     1       4.347  29.531  54.409  1.00  0.00     0.156 C 
BRANCH  11  12
HETATM   12  C   UNL     1       4.362  30.000  55.857  1.00  0.00     0.223 C 
HETATM   13  N   UNL     1       5.595  30.394  56.336  1.00  0.00    -0.359 N 
HETATM   14  H   UNL     1       6.393  30.296  55.710  1.00  0.00     0.162 HD
HETATM   15  O   UNL     1       3.341  30.026  56.539  1.00  0.00    -0.273 OA
BRANCH  13  16
HETATM   16  C   UNL     1       5.990  30.647  57.736  1.00  0.00     0.150 C 
BRANCH  16  17
HETATM   17  C   UNL     1       7.423  30.339  58.255  1.00  0.00     0.254 C 
BRANCH  17  18
HETATM   18  N   UNL     1       7.637  30.577  59.745  1.00  0.00    -0.070 N 
HETATM   19  H   UNL     1       7.138  29.790  60.211  1.00  0.00     0.279 HD
HETATM   20  C   UNL     1       9.081  30.491  60.131  1.00  0.00     0.235 C 
HETATM   21  C   UNL     1       9.288  30.728  61.615  1.00  0.00     0.028 C 
HETATM   22  C   UNL     1       8.676  32.034  62.079  1.00  0.00     0.003 C 
HETATM   23  C   UNL     1       7.202  32.061  61.711  1.00  0.00     0.028 C 
HETATM   24  C   UNL     1       7.001  31.874  60.209  1.00  0.00     0.235 C 
ENDBRANCH  17  18
ENDBRANCH  16  17
ENDBRANCH  13  16
ENDBRANCH  11  12
ENDBRANCH   3  11
BRANCH   1  25
HETATM   25  C   UNL     1       3.471  29.046  49.279  1.00  0.00    -0.030 C 
HETATM   26  C   UNL     1       4.402  28.603  48.300  1.00  0.00     0.010 C 
HETATM   27  C   UNL     1       4.189  27.406  47.535  1.00  0.00     0.007 C 
HETATM   28  C   UNL     1       3.045  26.626  47.708  1.00  0.00    -0.062 C 
HETATM   29  C   UNL     1       2.874  25.252  47.104  1.00  0.00     0.048 C 
HETATM   30  C   UNL     1       2.013  27.223  48.423  1.00  0.00     0.007 C 
HETATM   31  C   UNL     1       2.188  28.483  49.052  1.00  0.00     0.010 C 
ENDBRANCH   1  25
BRANCH  10  32
HETATM   32  C   UNL     1       5.497  27.903  51.579  1.00  0.00     0.294 C 
HETATM   33  O   UNL     1       4.687  27.042  51.145  1.00  0.00    -0.259 OA
BRANCH  32  34
HETATM   34  O   UNL     1       6.451  27.517  52.443  1.00  0.00    -0.313 OA
BRANCH  34  35
HETATM   35  C   UNL     1       6.683  26.078  52.890  1.00  0.00     0.124 C 
HETATM   36  C   UNL     1       7.637  25.155  52.098  1.00  0.00     0.040 C 
HETATM   37  C   UNL     1       7.014  25.878  54.385  1.00  0.00     0.040 C 
ENDBRANCH  34  35
ENDBRANCH  32  34
ENDBRANCH  10  32
TORSDOF 9
ENDMDL
MODEL 7
REMARK VINA RESULT:      -7.5      2.487      3.806
REMARK  9 active torsions:
REMARK  status: ('A' for Active; 'I' for Inactive)
REMARK    1  A    between atoms: C_5  and  C_6 
REMARK    2  A    between atoms: C_8  and  C_9 
REMARK    3  A    between atoms: C_9  and  C_10 
REMARK       I    between atoms: C_10  and  N_11 
REMARK    4  A    between atoms: N_11  and  C_12 
REMARK    5  A    between atoms: C_12  and  C_13 
REMARK    6  A    between atoms: C_13  and  N_14 
REMARK    7  A    between atoms: C_28  and  C_29 
REMARK    8  A    between atoms: C_29  and  O_30 
REMARK    9  A    between atoms: O_30  and  C_31 
ROOT
HETATM    1  C   UNL     1       3.788  36.323  59.973  1.00  0.00     0.166 C 
HETATM    2  N   UNL     1       4.333  36.337  58.519  1.00  0.00    -0.319 N 
HETATM    3  C   UNL     1       3.995  35.861  57.317  1.00  0.00     0.011 C 
HETATM    4  C   UNL     1       4.625  37.773  58.253  1.00  0.00     0.170 C 
HETATM    5  S   UNL     1       5.526  38.037  56.814  1.00  0.00    -0.086 SA
HETATM    6  C   UNL     1       4.336  36.840  56.137  1.00  0.00     0.135 C 
HETATM    7  N   UNL     1       3.763  38.610  58.696  1.00  0.00    -0.229 NA
HETATM    8  C   UNL     1       2.587  38.114  59.386  1.00  0.00     0.048 C 
HETATM    9  C   UNL     1       1.838  39.440  59.548  1.00  0.00     0.071 C 
HETATM   10  C   UNL     1       2.251  36.787  59.766  1.00  0.00     0.069 C 
ENDROOT
BRANCH   3  11
HETATM   11  C   UNL     1       2.999  34.762  56.945  1.00  0.00     0.156 C 
BRANCH  11  12
HETATM   12  C   UNL     1       3.317  33.329  57.349  1.00  0.00     0.223 C 
HETATM   13  N   UNL     1       4.295  33.192  58.315  1.00  0.00    -0.359 N 
HETATM   14  H   UNL     1       4.752  34.042  58.641  1.00  0.00     0.162 HD
HETATM   15  O   UNL     1       2.736  32.370  56.848  1.00  0.00    -0.273 OA
BRANCH  13  16
HETATM   16  C   UNL     1       5.002  31.964  58.727  1.00  0.00     0.150 C 
BRANCH  16  17
HETATM   17  C   UNL     1       6.508  31.738  58.412  1.00  0.00     0.254 C 
BRANCH  17  18
HETATM   18  N   UNL     1       7.472  32.182  59.506  1.00  0.00    -0.070 N 
HETATM   19  H   UNL     1       7.579  33.208  59.362  1.00  0.00     0.279 HD
HETATM   20  C   UNL     1       6.908  31.973  60.877  1.00  0.00     0.235 C 
HETATM   21  C   UNL     1       7.871  32.417  61.962  1.00  0.00     0.028 C 
HETATM   22  C   UNL     1       9.231  31.763  61.826  1.00  0.00     0.003 C 
HETATM   23  C   UNL     1       9.789  32.038  60.439  1.00  0.00     0.028 C 
HETATM   24  C   UNL     1       8.839  31.543  59.350  1.00  0.00     0.235 C 
ENDBRANCH  17  18
ENDBRANCH  16  17
ENDBRANCH  13  16
ENDBRANCH  11  12
ENDBRANCH   3  11
BRANCH   1  25
HETATM   25  C   UNL     1       4.234  37.171  61.416  1.00  0.00    -0.030 C 
HETATM   26  C   UNL     1       3.420  37.287  62.575  1.00  0.00     0.010 C 
HETATM   27  C   UNL     1       3.796  36.699  63.831  1.00  0.00     0.007 C 
HETATM   28  C   UNL     1       4.992  35.995  63.975  1.00  0.00    -0.062 C 
HETATM   29  C   UNL     1       5.331  35.169  65.194  1.00  0.00     0.048 C 
HETATM   30  C   UNL     1       5.910  36.154  62.944  1.00  0.00     0.007 C 
HETATM   31  C   UNL     1       5.576  36.870  61.766  1.00  0.00     0.010 C 
ENDBRANCH   1  25
BRANCH  10  32
HETATM   32  C   UNL     1       1.893  35.243  60.190  1.00  0.00     0.294 C 
HETATM   33  O   UNL     1       0.711  34.840  60.036  1.00  0.00    -0.259 OA
BRANCH  32  34
HETATM   34  O   UNL     1       2.819  34.380  60.642  1.00  0.00    -0.313 OA
BRANCH  34  35
HETATM   35  C   UNL     1       2.643  33.486  61.863  1.00  0.00     0.124 C 
HETATM   36  C   UNL     1       3.861  32.767  62.491  1.00  0.00     0.040 C 
HETATM   37  C   UNL     1       1.835  34.087  63.034  1.00  0.00     0.040 C 
ENDBRANCH  34  35
ENDBRANCH  32  34
ENDBRANCH  10  32
TORSDOF 9
ENDMDL
MODEL 8
REMARK VINA RESULT:      -7.4     11.316     13.313
REMARK  9 active torsions:
REMARK  status: ('A' for Active; 'I' for Inactive)
REMARK    1  A    between atoms: C_5  and  C_6 
REMARK    2  A    between atoms: C_8  and  C_9 
REMARK    3  A    between atoms: C_9  and  C_10 
REMARK       I    between atoms: C_10  and  N_11 
REMARK    4  A    between atoms: N_11  and  C_12 
REMARK    5  A    between atoms: C_12  and  C_13 
REMARK    6  A    between atoms: C_13  and  N_14 
REMARK    7  A    between atoms: C_28  and  C_29 
REMARK    8  A    between atoms: C_29  and  O_30 
REMARK    9  A    between atoms: O_30  and  C_31 
ROOT
HETATM    1  C   UNL     1       3.938  30.296  47.803  1.00  0.00     0.166 C 
HETATM    2  N   UNL     1       3.839  28.749  47.716  1.00  0.00    -0.319 N 
HETATM    3  C   UNL     1       4.275  27.677  48.385  1.00  0.00     0.011 C 
HETATM    4  C   UNL     1       2.383  28.486  47.551  1.00  0.00     0.170 C 
HETATM    5  S   UNL     1       2.021  26.861  47.126  1.00  0.00    -0.086 SA
HETATM    6  C   UNL     1       3.232  26.504  48.434  1.00  0.00     0.135 C 
HETATM    7  N   UNL     1       1.600  29.208  48.263  1.00  0.00    -0.229 NA
HETATM    8  C   UNL     1       2.172  30.187  49.169  1.00  0.00     0.048 C 
HETATM    9  C   UNL     1       0.884  30.634  49.867  1.00  0.00     0.071 C 
HETATM   10  C   UNL     1       3.526  30.579  49.343  1.00  0.00     0.069 C 
ENDROOT
BRANCH   3  11
HETATM   11  C   UNL     1       5.395  27.559  49.418  1.00  0.00     0.156 C 
BRANCH  11  12
HETATM   12  C   UNL     1       5.037  27.101  50.826  1.00  0.00     0.223 C 
HETATM   13  N   UNL     1       5.502  25.849  51.175  1.00  0.00    -0.359 N 
HETATM   14  H   UNL     1       5.997  25.318  50.459  1.00  0.00     0.162 HD
HETATM   15  O   UNL     1       4.386  27.808  51.590  1.00  0.00    -0.273 OA
BRANCH  13  16
HETATM   16  C   UNL     1       5.117  25.026  52.338  1.00  0.00     0.150 C 
BRANCH  16  17
HETATM   17  C   UNL     1       5.913  25.068  53.674  1.00  0.00     0.254 C 
BRANCH  17  18
HETATM   18  N   UNL     1       6.642  23.779  54.034  1.00  0.00    -0.070 N 
HETATM   19  H   UNL     1       5.889  23.066  54.120  1.00  0.00     0.279 HD
HETATM   20  C   UNL     1       7.570  23.331  52.947  1.00  0.00     0.235 C 
HETATM   21  C   UNL     1       8.292  22.047  53.310  1.00  0.00     0.028 C 
HETATM   22  C   UNL     1       9.017  22.151  54.637  1.00  0.00     0.003 C 
HETATM   23  C   UNL     1       8.033  22.562  55.720  1.00  0.00     0.028 C 
HETATM   24  C   UNL     1       7.345  23.881  55.374  1.00  0.00     0.235 C 
ENDBRANCH  17  18
ENDBRANCH  16  17
ENDBRANCH  13  16
ENDBRANCH  11  12
ENDBRANCH   3  11
BRANCH   1  25
HETATM   25  C   UNL     1       3.138  31.585  46.969  1.00  0.00    -0.030 C 
HETATM   26  C   UNL     1       3.146  32.947  47.377  1.00  0.00     0.010 C 
HETATM   27  C   UNL     1       3.770  33.973  46.589  1.00  0.00     0.007 C 
HETATM   28  C   UNL     1       4.387  33.682  45.372  1.00  0.00    -0.062 C 
HETATM   29  C   UNL     1       5.249  34.667  44.618  1.00  0.00     0.048 C 
HETATM   30  C   UNL     1       4.103  32.430  44.840  1.00  0.00     0.007 C 
HETATM   31  C   UNL     1       3.353  31.473  45.571  1.00  0.00     0.010 C 
ENDBRANCH   1  25
BRANCH  10  32
HETATM   32  C   UNL     1       5.100  31.006  49.521  1.00  0.00     0.294 C 
HETATM   33  O   UNL     1       5.700  30.654  50.569  1.00  0.00    -0.259 OA
BRANCH  32  34
HETATM   34  O   UNL     1       5.786  31.668  48.572  1.00  0.00    -0.313 OA
BRANCH  34  35
HETATM   35  C   UNL     1       6.603  32.930  48.818  1.00  0.00     0.124 C 
HETATM   36  C   UNL     1       7.319  33.642  47.647  1.00  0.00     0.040 C 
HETATM   37  C   UNL     1       5.913  34.034  49.649  1.00  0.00     0.040 C 
ENDBRANCH  34  35
ENDBRANCH  32  34
ENDBRANCH  10  32
TORSDOF 9
ENDMDL
MODEL 9
REMARK VINA RESULT:      -7.3      8.646     12.307
REMARK  9 active torsions:
REMARK  status: ('A' for Active; 'I' for Inactive)
REMARK    1  A    between atoms: C_5  and  C_6 
REMARK    2  A    between atoms: C_8  and  C_9 
REMARK    3  A    between atoms: C_9  and  C_10 
REMARK       I    between atoms: C_10  and  N_11 
REMARK    4  A    between atoms: N_11  and  C_12 
REMARK    5  A    between atoms: C_12  and  C_13 
REMARK    6  A    between atoms: C_13  and  N_14 
REMARK    7  A    between atoms: C_28  and  C_29 
REMARK    8  A    between atoms: C_29  and  O_30 
REMARK    9  A    between atoms: O_30  and  C_31 
ROOT
HETATM    1  C   UNL     1       3.193  30.573  50.375  1.00  0.00     0.166 C 
HETATM    2  N   UNL     1       2.831  31.107  51.788  1.00  0.00    -0.319 N 
HETATM    3  C   UNL     1       3.310  31.051  53.034  1.00  0.00     0.011 C 
HETATM    4  C   UNL     1       2.584  32.560  51.576  1.00  0.00     0.170 C 
HETATM    5  S   UNL     1       1.868  33.341  52.929  1.00  0.00    -0.086 SA
HETATM    6  C   UNL     1       3.123  32.388  53.836  1.00  0.00     0.135 C 
HETATM    7  N   UNL     1       3.391  33.154  50.779  1.00  0.00    -0.229 NA
HETATM    8  C   UNL     1       4.471  32.396  50.173  1.00  0.00     0.048 C 
HETATM    9  C   UNL     1       5.203  33.550  49.483  1.00  0.00     0.071 C 
HETATM   10  C   UNL     1       4.747  31.004  50.236  1.00  0.00     0.069 C 
ENDROOT
BRANCH   3  11
HETATM   11  C   UNL     1       4.336  30.096  53.645  1.00  0.00     0.156 C 
BRANCH  11  12
HETATM   12  C   UNL     1       4.084  28.599  53.540  1.00  0.00     0.223 C 
HETATM   13  N   UNL     1       5.164  27.796  53.852  1.00  0.00    -0.359 N 
HETATM   14  H   UNL     1       6.043  28.262  54.078  1.00  0.00     0.162 HD
HETATM   15  O   UNL     1       2.993  28.147  53.204  1.00  0.00    -0.273 OA
BRANCH  13  16
HETATM   16  C   UNL     1       5.326  26.351  53.605  1.00  0.00     0.150 C 
BRANCH  16  17
HETATM   17  C   UNL     1       5.696  25.358  54.743  1.00  0.00     0.254 C 
BRANCH  17  18
HETATM   18  N   UNL     1       6.917  24.486  54.470  1.00  0.00    -0.070 N 
HETATM   19  H   UNL     1       7.718  25.152  54.456  1.00  0.00     0.279 HD
HETATM   20  C   UNL     1       7.165  23.500  55.569  1.00  0.00     0.235 C 
HETATM   21  C   UNL     1       8.381  22.636  55.294  1.00  0.00     0.028 C 
HETATM   22  C   UNL     1       8.301  21.944  53.948  1.00  0.00     0.003 C 
HETATM   23  C   UNL     1       8.096  22.981  52.856  1.00  0.00     0.028 C 
HETATM   24  C   UNL     1       6.842  23.815  53.112  1.00  0.00     0.235 C 
ENDBRANCH  17  18
ENDBRANCH  16  17
ENDBRANCH  13  16
ENDBRANCH  11  12
ENDBRANCH   3  11
BRANCH   1  25
HETATM   25  C   UNL     1       2.580  30.901  48.789  1.00  0.00    -0.030 C 
HETATM   26  C   UNL     1       3.164  30.436  47.579  1.00  0.00     0.010 C 
HETATM   27  C   UNL     1       2.487  29.509  46.716  1.00  0.00     0.007 C 
HETATM   28  C   UNL     1       1.211  29.031  47.019  1.00  0.00    -0.062 C 
HETATM   29  C   UNL     1       0.550  27.893  46.276  1.00  0.00     0.048 C 
HETATM   30  C   UNL     1       0.534  29.720  48.017  1.00  0.00     0.007 C 
HETATM   31  C   UNL     1       1.170  30.743  48.766  1.00  0.00     0.010 C 
ENDBRANCH   1  25
BRANCH  10  32
HETATM   32  C   UNL     1       5.040  29.393  50.330  1.00  0.00     0.294 C 
HETATM   33  O   UNL     1       6.101  29.009  50.887  1.00  0.00    -0.259 OA
BRANCH  32  34
HETATM   34  O   UNL     1       4.170  28.469  49.887  1.00  0.00    -0.313 OA
BRANCH  34  35
HETATM   35  C   UNL     1       4.539  27.295  48.987  1.00  0.00     0.124 C 
HETATM   36  C   UNL     1       3.466  26.267  48.559  1.00  0.00     0.040 C 
HETATM   37  C   UNL     1       5.348  27.642  47.718  1.00  0.00     0.040 C 
ENDBRANCH  34  35
ENDBRANCH  32  34
ENDBRANCH  10  32
TORSDOF 9
ENDMDL
MODEL 10
REMARK VINA RESULT:      -7.3      7.491     12.238
REMARK  9 active torsions:
REMARK  status: ('A' for Active; 'I' for Inactive)
REMARK    1  A    between atoms: C_5  and  C_6 
REMARK    2  A    between atoms: C_8  and  C_9 
REMARK    3  A    between atoms: C_9  and  C_10 
REMARK       I    between atoms: C_10  and  N_11 
REMARK    4  A    between atoms: N_11  and  C_12 
REMARK    5  A    between atoms: C_12  and  C_13 
REMARK    6  A    between atoms: C_13  and  N_14 
REMARK    7  A    between atoms: C_28  and  C_29 
REMARK    8  A    between atoms: C_29  and  O_30 
REMARK    9  A    between atoms: O_30  and  C_31 
ROOT
HETATM    1  C   UNL     1       3.050  30.095  49.740  1.00  0.00     0.166 C 
HETATM    2  N   UNL     1       2.248  30.978  50.735  1.00  0.00    -0.319 N 
HETATM    3  C   UNL     1       2.478  31.749  51.802  1.00  0.00     0.011 C 
HETATM    4  C   UNL     1       1.407  31.841  49.859  1.00  0.00     0.170 C 
HETATM    5  S   UNL     1       0.194  32.710  50.710  1.00  0.00    -0.086 SA
HETATM    6  C   UNL     1       1.568  33.027  51.858  1.00  0.00     0.135 C 
HETATM    7  N   UNL     1       1.979  32.297  48.808  1.00  0.00    -0.229 NA
HETATM    8  C   UNL     1       3.371  31.968  48.563  1.00  0.00     0.048 C 
HETATM    9  C   UNL     1       3.604  32.854  47.335  1.00  0.00     0.071 C 
HETATM   10  C   UNL     1       4.236  31.095  49.276  1.00  0.00     0.069 C 
ENDROOT
BRANCH   3  11
HETATM   11  C   UNL     1       3.704  31.816  52.713  1.00  0.00     0.156 C 
BRANCH  11  12
HETATM   12  C   UNL     1       3.845  30.775  53.816  1.00  0.00     0.223 C 
HETATM   13  N   UNL     1       4.622  31.158  54.891  1.00  0.00    -0.359 N 
HETATM   14  H   UNL     1       5.073  32.071  54.841  1.00  0.00     0.162 HD
HETATM   15  O   UNL     1       3.297  29.679  53.745  1.00  0.00    -0.273 OA
BRANCH  13  16
HETATM   16  C   UNL     1       5.158  30.311  55.974  1.00  0.00     0.150 C 
BRANCH  16  17
HETATM   17  C   UNL     1       6.474  29.499  55.809  1.00  0.00     0.254 C 
BRANCH  17  18
HETATM   18  N   UNL     1       6.455  28.103  56.423  1.00  0.00    -0.070 N 
HETATM   19  H   UNL     1       6.638  28.259  57.436  1.00  0.00     0.279 HD
HETATM   20  C   UNL     1       5.114  27.449  56.299  1.00  0.00     0.235 C 
HETATM   21  C   UNL     1       5.100  26.061  56.911  1.00  0.00     0.028 C 
HETATM   22  C   UNL     1       6.193  25.175  56.350  1.00  0.00     0.003 C 
HETATM   23  C   UNL     1       7.541  25.853  56.537  1.00  0.00     0.028 C 
HETATM   24  C   UNL     1       7.566  27.228  55.875  1.00  0.00     0.235 C 
ENDBRANCH  17  18
ENDBRANCH  16  17
ENDBRANCH  13  16
ENDBRANCH  11  12
ENDBRANCH   3  11
BRANCH   1  25
HETATM   25  C   UNL     1       2.637  29.305  48.256  1.00  0.00    -0.030 C 
HETATM   26  C   UNL     1       3.572  28.715  47.361  1.00  0.00     0.010 C 
HETATM   27  C   UNL     1       3.596  27.301  47.110  1.00  0.00     0.007 C 
HETATM   28  C   UNL     1       2.688  26.437  47.725  1.00  0.00    -0.062 C 
HETATM   29  C   UNL     1       2.808  24.932  47.679  1.00  0.00     0.048 C 
HETATM   30  C   UNL     1       1.600  27.047  48.338  1.00  0.00     0.007 C 
HETATM   31  C   UNL     1       1.514  28.459  48.446  1.00  0.00     0.010 C 
ENDBRANCH   1  25
BRANCH  10  32
HETATM   32  C   UNL     1       5.208  30.081  50.123  1.00  0.00     0.294 C 
HETATM   33  O   UNL     1       6.439  30.336  50.172  1.00  0.00    -0.259 OA
BRANCH  32  34
HETATM   34  O   UNL     1       4.737  29.024  50.808  1.00  0.00    -0.313 OA
BRANCH  34  35
HETATM   35  C   UNL     1       5.552  27.783  51.150  1.00  0.00     0.124 C 
HETATM   36  C   UNL     1       5.882  27.442  52.622  1.00  0.00     0.040 C 
HETATM   37  C   UNL     1       5.095  26.466  50.484  1.00  0.00     0.040 C 
ENDBRANCH  34  35
ENDBRANCH  32  34
ENDBRANCH  10  32
TORSDOF 9
ENDMDL
