MODEL 1
REMARK VINA RESULT:      -9.7      0.000      0.000
REMARK  9 active torsions:
REMARK  status: ('A' for Active; 'I' for Inactive)
REMARK    1  A    between atoms: O_2  and  C_3 
REMARK    2  A    between atoms: C_5  and  C_15 
REMARK    3  A    between atoms: C_8  and  C_9 
REMARK       I    between atoms: C_15  and  N_17 
REMARK    4  A    between atoms: N_17  and  C_18 
REMARK    5  A    between atoms: C_18  and  C_19 
REMARK    6  A    between atoms: C_23  and  C_25 
REMARK       I    between atoms: C_25  and  N_27 
REMARK    7  A    between atoms: N_27  and  C_28 
REMARK    8  A    between atoms: C_28  and  C_29 
REMARK    9  A    between atoms: C_29  and  O_32 
ROOT
HETATM    1  C   UNL     1       8.386  31.368  59.631  1.00  0.00     0.252 C 
HETATM    2  O   UNL     1       9.210  32.006  58.987  1.00  0.00    -0.268 OA
HETATM    3  N   UNL     1       7.947  30.115  59.264  1.00  0.00    -0.353 N 
HETATM    4  H   UNL     1       7.482  29.536  59.949  1.00  0.00     0.163 HD
ENDROOT
BRANCH   3   5
HETATM    5  C   UNL     1       8.512  29.446  58.114  1.00  0.00     0.161 C 
BRANCH   5   6
HETATM    6  C   UNL     1       7.597  28.348  57.637  1.00  0.00    -0.040 A 
HETATM    7  C   UNL     1       6.241  28.598  57.390  1.00  0.00     0.009 A 
HETATM    8  C   UNL     1       5.404  27.576  56.936  1.00  0.00     0.002 A 
HETATM    9  C   UNL     1       5.915  26.295  56.731  1.00  0.00     0.017 A 
HETATM   10  C   UNL     1       7.264  26.023  56.990  1.00  0.00     0.032 A 
HETATM   11  C   UNL     1       8.103  27.053  57.432  1.00  0.00     0.026 A 
BRANCH  10  12
HETATM   12  C   UNL     1       7.759  24.639  56.761  1.00  0.00     0.251 C 
HETATM   13  O   UNL     1       8.800  24.263  57.290  1.00  0.00    -0.268 OA
HETATM   14  N   UNL     1       7.014  23.847  55.914  1.00  0.00    -0.354 N 
HETATM   15  H   UNL     1       6.224  24.230  55.414  1.00  0.00     0.162 HD
BRANCH  14  16
HETATM   16  C   UNL     1       7.417  22.488  55.577  1.00  0.00     0.159 C 
BRANCH  16  17
HETATM   17  C   UNL     1       8.295  22.412  54.307  1.00  0.00     0.066 C 
HETATM   18  C   UNL     1       8.126  21.096  53.544  1.00  0.00     0.047 C 
HETATM   19  C   UNL     1       7.968  23.589  53.386  1.00  0.00     0.047 C 
BRANCH  17  20
HETATM   20  O   UNL     1       9.673  22.544  54.688  1.00  0.00    -0.389 OA
HETATM   21  H   UNL     1      10.114  23.035  53.972  1.00  0.00     0.210 HD
ENDBRANCH  17  20
ENDBRANCH  16  17
ENDBRANCH  14  16
ENDBRANCH  10  12
ENDBRANCH   5   6
ENDBRANCH   3   5
BRANCH   1  22
HETATM   22  C   UNL     1       7.828  31.924  60.894  1.00  0.00     0.034 A 
HETATM   23  C   UNL     1       6.603  32.604  60.930  1.00  0.00     0.054 A 
HETATM   24  C   UNL     1       6.108  33.115  62.139  1.00  0.00     0.080 A 
HETATM   25  C   UNL     1       6.840  32.930  63.334  1.00  0.00     0.010 A 
HETATM   26  C   UNL     1       8.081  32.270  63.273  1.00  0.00     0.016 A 
HETATM   27  C   UNL     1       8.574  31.777  62.065  1.00  0.00     0.018 A 
BRANCH  24  28
HETATM   28  O   UNL     1       4.898  33.759  62.236  1.00  0.00    -0.355 OA
HETATM   29  C   UNL     1       3.749  33.072  61.757  1.00  0.00     0.210 C 
ENDBRANCH  24  28
BRANCH  25  30
HETATM   30  C   UNL     1       6.366  33.427  64.622  1.00  0.00     0.013 A 
HETATM   31  C   UNL     1       5.073  33.460  65.194  1.00  0.00     0.152 A 
HETATM   32  N   UNL     1       5.055  34.012  66.412  1.00  0.00    -0.187 NA
HETATM   33  N   UNL     1       6.342  34.321  66.632  1.00  0.00    -0.289 N 
HETATM   34  H   UNL     1       6.586  34.753  67.516  1.00  0.00     0.188 HD
HETATM   35  C   UNL     1       7.165  33.996  65.594  1.00  0.00     0.123 A 
ENDBRANCH  25  30
ENDBRANCH   1  22
TORSDOF 9
ENDMDL
MODEL 2
REMARK VINA RESULT:      -9.4      2.474     11.321
REMARK  9 active torsions:
REMARK  status: ('A' for Active; 'I' for Inactive)
REMARK    1  A    between atoms: O_2  and  C_3 
REMARK    2  A    between atoms: C_5  and  C_15 
REMARK    3  A    between atoms: C_8  and  C_9 
REMARK       I    between atoms: C_15  and  N_17 
REMARK    4  A    between atoms: N_17  and  C_18 
REMARK    5  A    between atoms: C_18  and  C_19 
REMARK    6  A    between atoms: C_23  and  C_25 
REMARK       I    between atoms: C_25  and  N_27 
REMARK    7  A    between atoms: N_27  and  C_28 
REMARK    8  A    between atoms: C_28  and  C_29 
REMARK    9  A    between atoms: C_29  and  O_32 
ROOT
HETATM    1  C   UNL     1       6.220  26.866  56.353  1.00  0.00     0.252 C 
HETATM    2  O   UNL     1       5.183  26.957  57.000  1.00  0.00    -0.268 OA
HETATM    3  N   UNL     1       7.015  27.949  56.046  1.00  0.00    -0.353 N 
HETATM    4  H   UNL     1       7.968  27.790  55.749  1.00  0.00     0.163 HD
ENDROOT
BRANCH   3   5
HETATM    5  C   UNL     1       6.693  29.263  56.552  1.00  0.00     0.161 C 
BRANCH   5   6
HETATM    6  C   UNL     1       7.844  29.819  57.351  1.00  0.00    -0.040 A 
HETATM    7  C   UNL     1       9.142  29.842  56.824  1.00  0.00     0.009 A 
HETATM    8  C   UNL     1      10.198  30.370  57.568  1.00  0.00     0.002 A 
HETATM    9  C   UNL     1       9.967  30.875  58.848  1.00  0.00     0.017 A 
HETATM   10  C   UNL     1       8.680  30.843  59.397  1.00  0.00     0.032 A 
HETATM   11  C   UNL     1       7.621  30.325  58.643  1.00  0.00     0.026 A 
BRANCH  10  12
HETATM   12  C   UNL     1       8.487  31.388  60.768  1.00  0.00     0.251 C 
HETATM   13  O   UNL     1       9.410  31.962  61.337  1.00  0.00    -0.268 OA
HETATM   14  N   UNL     1       7.255  31.179  61.350  1.00  0.00    -0.354 N 
HETATM   15  H   UNL     1       6.560  30.607  60.891  1.00  0.00     0.162 HD
BRANCH  14  16
HETATM   16  C   UNL     1       6.956  31.628  62.703  1.00  0.00     0.159 C 
BRANCH  16  17
HETATM   17  C   UNL     1       5.452  31.902  62.933  1.00  0.00     0.066 C 
HETATM   18  C   UNL     1       5.195  32.910  64.056  1.00  0.00     0.047 C 
HETATM   19  C   UNL     1       4.817  32.402  61.634  1.00  0.00     0.047 C 
BRANCH  17  20
HETATM   20  O   UNL     1       4.803  30.667  63.272  1.00  0.00    -0.389 OA
HETATM   21  H   UNL     1       3.964  30.903  63.706  1.00  0.00     0.210 HD
ENDBRANCH  17  20
ENDBRANCH  16  17
ENDBRANCH  14  16
ENDBRANCH  10  12
ENDBRANCH   5   6
ENDBRANCH   3   5
BRANCH   1  22
HETATM   22  C   UNL     1       6.696  25.537  55.884  1.00  0.00     0.034 A 
HETATM   23  C   UNL     1       6.665  25.171  54.531  1.00  0.00     0.054 A 
HETATM   24  C   UNL     1       7.122  23.908  54.124  1.00  0.00     0.080 A 
HETATM   25  C   UNL     1       7.634  23.003  55.082  1.00  0.00     0.010 A 
HETATM   26  C   UNL     1       7.630  23.377  56.437  1.00  0.00     0.016 A 
HETATM   27  C   UNL     1       7.161  24.629  56.836  1.00  0.00     0.018 A 
BRANCH  24  28
HETATM   28  O   UNL     1       7.145  23.512  52.809  1.00  0.00    -0.355 OA
HETATM   29  C   UNL     1       7.671  24.429  51.856  1.00  0.00     0.210 C 
ENDBRANCH  24  28
BRANCH  25  30
HETATM   30  C   UNL     1       8.137  21.683  54.713  1.00  0.00     0.013 A 
HETATM   31  C   UNL     1       8.284  21.055  53.455  1.00  0.00     0.152 A 
HETATM   32  N   UNL     1       8.784  19.818  53.544  1.00  0.00    -0.187 NA
HETATM   33  N   UNL     1       8.976  19.655  54.862  1.00  0.00    -0.289 N 
HETATM   34  H   UNL     1       9.367  18.776  55.184  1.00  0.00     0.188 HD
HETATM   35  C   UNL     1       8.602  20.736  55.604  1.00  0.00     0.123 A 
ENDBRANCH  25  30
ENDBRANCH   1  22
TORSDOF 9
ENDMDL
MODEL 3
REMARK VINA RESULT:      -9.4      1.859      2.439
REMARK  9 active torsions:
REMARK  status: ('A' for Active; 'I' for Inactive)
REMARK    1  A    between atoms: O_2  and  C_3 
REMARK    2  A    between atoms: C_5  and  C_15 
REMARK    3  A    between atoms: C_8  and  C_9 
REMARK       I    between atoms: C_15  and  N_17 
REMARK    4  A    between atoms: N_17  and  C_18 
REMARK    5  A    between atoms: C_18  and  C_19 
REMARK    6  A    between atoms: C_23  and  C_25 
REMARK       I    between atoms: C_25  and  N_27 
REMARK    7  A    between atoms: N_27  and  C_28 
REMARK    8  A    between atoms: C_28  and  C_29 
REMARK    9  A    between atoms: C_29  and  O_32 
ROOT
HETATM    1  C   UNL     1       8.155  31.092  61.773  1.00  0.00     0.252 C 
HETATM    2  O   UNL     1       9.109  30.449  62.195  1.00  0.00    -0.268 OA
HETATM    3  N   UNL     1       7.757  31.078  60.454  1.00  0.00    -0.353 N 
HETATM    4  H   UNL     1       6.831  31.405  60.216  1.00  0.00     0.163 HD
ENDROOT
BRANCH   3   5
HETATM    5  C   UNL     1       8.418  30.221  59.498  1.00  0.00     0.161 C 
BRANCH   5   6
HETATM    6  C   UNL     1       7.465  29.816  58.402  1.00  0.00    -0.040 A 
HETATM    7  C   UNL     1       6.612  30.755  57.807  1.00  0.00     0.009 A 
HETATM    8  C   UNL     1       5.742  30.372  56.785  1.00  0.00     0.002 A 
HETATM    9  C   UNL     1       5.713  29.046  56.352  1.00  0.00     0.017 A 
HETATM   10  C   UNL     1       6.545  28.092  56.948  1.00  0.00     0.032 A 
HETATM   11  C   UNL     1       7.426  28.482  57.964  1.00  0.00     0.026 A 
BRANCH  10  12
HETATM   12  C   UNL     1       6.472  26.690  56.455  1.00  0.00     0.251 C 
HETATM   13  O   UNL     1       5.453  26.030  56.628  1.00  0.00    -0.268 OA
HETATM   14  N   UNL     1       7.602  26.188  55.847  1.00  0.00    -0.354 N 
HETATM   15  H   UNL     1       8.456  26.727  55.823  1.00  0.00     0.162 HD
BRANCH  14  16
HETATM   16  C   UNL     1       7.671  24.817  55.360  1.00  0.00     0.159 C 
BRANCH  16  17
HETATM   17  C   UNL     1       7.223  24.672  53.887  1.00  0.00     0.066 C 
HETATM   18  C   UNL     1       7.680  25.838  53.008  1.00  0.00     0.047 C 
HETATM   19  C   UNL     1       7.753  23.355  53.317  1.00  0.00     0.047 C 
BRANCH  17  20
HETATM   20  O   UNL     1       5.789  24.605  53.844  1.00  0.00    -0.389 OA
HETATM   21  H   UNL     1       5.562  23.723  53.500  1.00  0.00     0.210 HD
ENDBRANCH  17  20
ENDBRANCH  16  17
ENDBRANCH  14  16
ENDBRANCH  10  12
ENDBRANCH   5   6
ENDBRANCH   3   5
BRANCH   1  22
HETATM   22  C   UNL     1       7.339  31.918  62.705  1.00  0.00     0.034 A 
HETATM   23  C   UNL     1       5.943  31.994  62.603  1.00  0.00     0.054 A 
HETATM   24  C   UNL     1       5.206  32.784  63.499  1.00  0.00     0.080 A 
HETATM   25  C   UNL     1       5.872  33.495  64.523  1.00  0.00     0.010 A 
HETATM   26  C   UNL     1       7.275  33.430  64.590  1.00  0.00     0.016 A 
HETATM   27  C   UNL     1       8.003  32.654  63.688  1.00  0.00     0.018 A 
BRANCH  24  28
HETATM   28  O   UNL     1       3.835  32.866  63.465  1.00  0.00    -0.355 OA
HETATM   29  C   UNL     1       3.242  33.476  62.325  1.00  0.00     0.210 C 
ENDBRANCH  24  28
BRANCH  25  30
HETATM   30  C   UNL     1       5.155  34.319  65.491  1.00  0.00     0.013 A 
HETATM   31  C   UNL     1       4.569  35.602  65.377  1.00  0.00     0.152 A 
HETATM   32  N   UNL     1       4.003  36.019  66.514  1.00  0.00    -0.187 NA
HETATM   33  N   UNL     1       4.210  34.997  67.358  1.00  0.00    -0.289 N 
HETATM   34  H   UNL     1       3.853  35.077  68.304  1.00  0.00     0.188 HD
HETATM   35  C   UNL     1       4.896  33.959  66.799  1.00  0.00     0.123 A 
ENDBRANCH  25  30
ENDBRANCH   1  22
TORSDOF 9
ENDMDL
MODEL 4
REMARK VINA RESULT:      -9.3      1.468      1.859
REMARK  9 active torsions:
REMARK  status: ('A' for Active; 'I' for Inactive)
REMARK    1  A    between atoms: O_2  and  C_3 
REMARK    2  A    between atoms: C_5  and  C_15 
REMARK    3  A    between atoms: C_8  and  C_9 
REMARK       I    between atoms: C_15  and  N_17 
REMARK    4  A    between atoms: N_17  and  C_18 
REMARK    5  A    between atoms: C_18  and  C_19 
REMARK    6  A    between atoms: C_23  and  C_25 
REMARK       I    between atoms: C_25  and  N_27 
REMARK    7  A    between atoms: N_27  and  C_28 
REMARK    8  A    between atoms: C_28  and  C_29 
REMARK    9  A    between atoms: C_29  and  O_32 
ROOT
HETATM    1  C   UNL     1       8.757  30.344  58.690  1.00  0.00     0.252 C 
HETATM    2  O   UNL     1       9.717  30.862  58.131  1.00  0.00    -0.268 OA
HETATM    3  N   UNL     1       8.174  29.173  58.258  1.00  0.00    -0.353 N 
HETATM    4  H   UNL     1       7.574  28.660  58.890  1.00  0.00     0.163 HD
ENDROOT
BRANCH   3   5
HETATM    5  C   UNL     1       8.730  28.443  57.142  1.00  0.00     0.161 C 
BRANCH   5   6
HETATM    6  C   UNL     1       7.938  27.187  56.883  1.00  0.00    -0.040 A 
HETATM    7  C   UNL     1       6.678  26.998  57.466  1.00  0.00     0.009 A 
HETATM    8  C   UNL     1       5.947  25.836  57.210  1.00  0.00     0.002 A 
HETATM    9  C   UNL     1       6.473  24.851  56.373  1.00  0.00     0.017 A 
HETATM   10  C   UNL     1       7.738  25.015  55.798  1.00  0.00     0.032 A 
HETATM   11  C   UNL     1       8.462  26.187  56.046  1.00  0.00     0.026 A 
BRANCH  10  12
HETATM   12  C   UNL     1       8.256  23.933  54.918  1.00  0.00     0.251 C 
HETATM   13  O   UNL     1       8.053  23.974  53.709  1.00  0.00    -0.268 OA
HETATM   14  N   UNL     1       8.924  22.898  55.536  1.00  0.00    -0.354 N 
HETATM   15  H   UNL     1       8.974  22.848  56.544  1.00  0.00     0.162 HD
BRANCH  14  16
HETATM   16  C   UNL     1       9.442  21.760  54.789  1.00  0.00     0.159 C 
BRANCH  16  17
HETATM   17  C   UNL     1       8.461  20.567  54.742  1.00  0.00     0.066 C 
HETATM   18  C   UNL     1       7.445  20.584  55.887  1.00  0.00     0.047 C 
HETATM   19  C   UNL     1       7.726  20.559  53.400  1.00  0.00     0.047 C 
BRANCH  17  20
HETATM   20  O   UNL     1       9.212  19.346  54.819  1.00  0.00    -0.389 OA
HETATM   21  H   UNL     1       8.587  18.650  55.089  1.00  0.00     0.210 HD
ENDBRANCH  17  20
ENDBRANCH  16  17
ENDBRANCH  14  16
ENDBRANCH  10  12
ENDBRANCH   5   6
ENDBRANCH   3   5
BRANCH   1  22
HETATM   22  C   UNL     1       8.183  30.960  59.916  1.00  0.00     0.034 A 
HETATM   23  C   UNL     1       7.058  31.796  59.872  1.00  0.00     0.054 A 
HETATM   24  C   UNL     1       6.543  32.360  61.049  1.00  0.00     0.080 A 
HETATM   25  C   UNL     1       7.152  32.072  62.292  1.00  0.00     0.010 A 
HETATM   26  C   UNL     1       8.296  31.254  62.313  1.00  0.00     0.016 A 
HETATM   27  C   UNL     1       8.811  30.708  61.137  1.00  0.00     0.018 A 
BRANCH  24  28
HETATM   28  O   UNL     1       5.425  33.157  61.066  1.00  0.00    -0.355 OA
HETATM   29  C   UNL     1       4.267  32.678  60.393  1.00  0.00     0.210 C 
ENDBRANCH  24  28
BRANCH  25  30
HETATM   30  C   UNL     1       6.650  32.618  63.549  1.00  0.00     0.013 A 
HETATM   31  C   UNL     1       5.334  32.757  64.051  1.00  0.00     0.152 A 
HETATM   32  N   UNL     1       5.295  33.323  65.261  1.00  0.00    -0.187 NA
HETATM   33  N   UNL     1       6.588  33.534  65.548  1.00  0.00    -0.289 N 
HETATM   34  H   UNL     1       6.818  33.957  66.441  1.00  0.00     0.188 HD
HETATM   35  C   UNL     1       7.438  33.136  64.558  1.00  0.00     0.123 A 
ENDBRANCH  25  30
ENDBRANCH   1  22
TORSDOF 9
ENDMDL
MODEL 5
REMARK VINA RESULT:      -9.1      2.097     11.258
REMARK  9 active torsions:
REMARK  status: ('A' for Active; 'I' for Inactive)
REMARK    1  A    between atoms: O_2  and  C_3 
REMARK    2  A    between atoms: C_5  and  C_15 
REMARK    3  A    between atoms: C_8  and  C_9 
REMARK       I    between atoms: C_15  and  N_17 
REMARK    4  A    between atoms: N_17  and  C_18 
REMARK    5  A    between atoms: C_18  and  C_19 
REMARK    6  A    between atoms: C_23  and  C_25 
REMARK       I    between atoms: C_25  and  N_27 
REMARK    7  A    between atoms: N_27  and  C_28 
REMARK    8  A    between atoms: C_28  and  C_29 
REMARK    9  A    between atoms: C_29  and  O_32 
ROOT
HETATM    1  C   UNL     1       6.746  29.959  57.049  1.00  0.00     0.252 C 
HETATM    2  O   UNL     1       6.001  30.638  56.351  1.00  0.00    -0.268 OA
HETATM    3  N   UNL     1       7.337  30.428  58.202  1.00  0.00    -0.353 N 
HETATM    4  H   UNL     1       7.717  29.766  58.864  1.00  0.00     0.163 HD
ENDROOT
BRANCH   3   5
HETATM    5  C   UNL     1       7.036  31.752  58.695  1.00  0.00     0.161 C 
BRANCH   5   6
HETATM    6  C   UNL     1       7.423  31.878  60.146  1.00  0.00    -0.040 A 
HETATM    7  C   UNL     1       8.767  31.828  60.539  1.00  0.00     0.009 A 
HETATM    8  C   UNL     1       9.116  31.957  61.885  1.00  0.00     0.002 A 
HETATM    9  C   UNL     1       8.124  32.133  62.850  1.00  0.00     0.017 A 
HETATM   10  C   UNL     1       6.775  32.166  62.476  1.00  0.00     0.032 A 
HETATM   11  C   UNL     1       6.429  32.050  61.125  1.00  0.00     0.026 A 
BRANCH  10  12
HETATM   12  C   UNL     1       5.754  32.349  63.544  1.00  0.00     0.251 C 
HETATM   13  O   UNL     1       4.752  31.643  63.563  1.00  0.00    -0.268 OA
HETATM   14  N   UNL     1       5.985  33.357  64.455  1.00  0.00    -0.354 N 
HETATM   15  H   UNL     1       6.767  33.986  64.339  1.00  0.00     0.162 HD
BRANCH  14  16
HETATM   16  C   UNL     1       5.041  33.662  65.521  1.00  0.00     0.159 C 
BRANCH  16  17
HETATM   17  C   UNL     1       3.984  34.714  65.113  1.00  0.00     0.066 C 
HETATM   18  C   UNL     1       3.395  35.463  66.311  1.00  0.00     0.047 C 
HETATM   19  C   UNL     1       4.604  35.712  64.133  1.00  0.00     0.047 C 
BRANCH  17  20
HETATM   20  O   UNL     1       2.915  34.051  64.421  1.00  0.00    -0.389 OA
HETATM   21  H   UNL     1       2.555  34.693  63.784  1.00  0.00     0.210 HD
ENDBRANCH  17  20
ENDBRANCH  16  17
ENDBRANCH  14  16
ENDBRANCH  10  12
ENDBRANCH   5   6
ENDBRANCH   3   5
BRANCH   1  22
HETATM   22  C   UNL     1       7.028  28.544  56.685  1.00  0.00     0.034 A 
HETATM   23  C   UNL     1       7.131  28.125  55.351  1.00  0.00     0.054 A 
HETATM   24  C   UNL     1       7.398  26.781  55.046  1.00  0.00     0.080 A 
HETATM   25  C   UNL     1       7.581  25.845  56.089  1.00  0.00     0.010 A 
HETATM   26  C   UNL     1       7.446  26.279  57.420  1.00  0.00     0.016 A 
HETATM   27  C   UNL     1       7.166  27.613  57.716  1.00  0.00     0.018 A 
BRANCH  24  28
HETATM   28  O   UNL     1       7.542  26.325  53.758  1.00  0.00    -0.355 OA
HETATM   29  C   UNL     1       6.405  26.392  52.907  1.00  0.00     0.210 C 
ENDBRANCH  24  28
BRANCH  25  30
HETATM   30  C   UNL     1       7.876  24.440  55.830  1.00  0.00     0.013 A 
HETATM   31  C   UNL     1       9.085  23.709  55.896  1.00  0.00     0.152 A 
HETATM   32  N   UNL     1       8.935  22.421  55.571  1.00  0.00    -0.187 NA
HETATM   33  N   UNL     1       7.623  22.317  55.310  1.00  0.00    -0.289 N 
HETATM   34  H   UNL     1       7.258  21.409  55.043  1.00  0.00     0.188 HD
HETATM   35  C   UNL     1       6.946  23.494  55.445  1.00  0.00     0.123 A 
ENDBRANCH  25  30
ENDBRANCH   1  22
TORSDOF 9
ENDMDL
MODEL 6
REMARK VINA RESULT:      -9.0      2.294     11.190
REMARK  9 active torsions:
REMARK  status: ('A' for Active; 'I' for Inactive)
REMARK    1  A    between atoms: O_2  and  C_3 
REMARK    2  A    between atoms: C_5  and  C_15 
REMARK    3  A    between atoms: C_8  and  C_9 
REMARK       I    between atoms: C_15  and  N_17 
REMARK    4  A    between atoms: N_17  and  C_18 
REMARK    5  A    between atoms: C_18  and  C_19 
REMARK    6  A    between atoms: C_23  and  C_25 
REMARK       I    between atoms: C_25  and  N_27 
REMARK    7  A    between atoms: N_27  and  C_28 
REMARK    8  A    between atoms: C_28  and  C_29 
REMARK    9  A    between atoms: C_29  and  O_32 
ROOT
HETATM    1  C   UNL     1       6.748  28.376  56.429  1.00  0.00     0.252 C 
HETATM    2  O   UNL     1       6.081  28.909  55.550  1.00  0.00    -0.268 OA
HETATM    3  N   UNL     1       7.141  29.027  57.578  1.00  0.00    -0.353 N 
HETATM    4  H   UNL     1       7.452  28.481  58.370  1.00  0.00     0.163 HD
ENDROOT
BRANCH   3   5
HETATM    5  C   UNL     1       6.707  30.379  57.841  1.00  0.00     0.161 C 
BRANCH   5   6
HETATM    6  C   UNL     1       7.615  31.040  58.846  1.00  0.00    -0.040 A 
HETATM    7  C   UNL     1       9.002  31.075  58.651  1.00  0.00     0.009 A 
HETATM    8  C   UNL     1       9.833  31.700  59.582  1.00  0.00     0.002 A 
HETATM    9  C   UNL     1       9.285  32.293  60.720  1.00  0.00     0.017 A 
HETATM   10  C   UNL     1       7.903  32.251  60.941  1.00  0.00     0.032 A 
HETATM   11  C   UNL     1       7.071  31.635  59.998  1.00  0.00     0.026 A 
BRANCH  10  12
HETATM   12  C   UNL     1       7.368  32.892  62.172  1.00  0.00     0.251 C 
HETATM   13  O   UNL     1       7.792  32.556  63.273  1.00  0.00    -0.268 OA
HETATM   14  N   UNL     1       6.372  33.829  62.001  1.00  0.00    -0.354 N 
HETATM   15  H   UNL     1       5.976  33.996  61.087  1.00  0.00     0.162 HD
BRANCH  14  16
HETATM   16  C   UNL     1       5.739  34.496  63.130  1.00  0.00     0.159 C 
BRANCH  16  17
HETATM   17  C   UNL     1       4.471  33.767  63.633  1.00  0.00     0.066 C 
HETATM   18  C   UNL     1       3.550  34.672  64.455  1.00  0.00     0.047 C 
HETATM   19  C   UNL     1       3.702  33.193  62.440  1.00  0.00     0.047 C 
BRANCH  17  20
HETATM   20  O   UNL     1       4.869  32.657  64.452  1.00  0.00    -0.389 OA
HETATM   21  H   UNL     1       4.409  31.874  64.102  1.00  0.00     0.210 HD
ENDBRANCH  17  20
ENDBRANCH  16  17
ENDBRANCH  14  16
ENDBRANCH  10  12
ENDBRANCH   5   6
ENDBRANCH   3   5
BRANCH   1  22
HETATM   22  C   UNL     1       7.148  26.948  56.303  1.00  0.00     0.034 A 
HETATM   23  C   UNL     1       6.590  26.102  55.335  1.00  0.00     0.054 A 
HETATM   24  C   UNL     1       6.991  24.760  55.245  1.00  0.00     0.080 A 
HETATM   25  C   UNL     1       7.978  24.261  56.125  1.00  0.00     0.010 A 
HETATM   26  C   UNL     1       8.505  25.117  57.109  1.00  0.00     0.016 A 
HETATM   27  C   UNL     1       8.091  26.446  57.201  1.00  0.00     0.018 A 
BRANCH  24  28
HETATM   28  O   UNL     1       6.501  23.898  54.294  1.00  0.00    -0.355 OA
HETATM   29  C   UNL     1       6.744  24.219  52.930  1.00  0.00     0.210 C 
ENDBRANCH  24  28
BRANCH  25  30
HETATM   30  C   UNL     1       8.444  22.879  56.067  1.00  0.00     0.013 A 
HETATM   31  C   UNL     1       9.203  22.187  55.095  1.00  0.00     0.152 A 
HETATM   32  N   UNL     1       9.418  20.907  55.415  1.00  0.00    -0.187 NA
HETATM   33  N   UNL     1       8.810  20.777  56.603  1.00  0.00    -0.289 N 
HETATM   34  H   UNL     1       8.845  19.873  57.063  1.00  0.00     0.188 HD
HETATM   35  C   UNL     1       8.210  21.923  57.036  1.00  0.00     0.123 A 
ENDBRANCH  25  30
ENDBRANCH   1  22
TORSDOF 9
ENDMDL
MODEL 7
REMARK VINA RESULT:      -8.9      3.196      3.762
REMARK  9 active torsions:
REMARK  status: ('A' for Active; 'I' for Inactive)
REMARK    1  A    between atoms: O_2  and  C_3 
REMARK    2  A    between atoms: C_5  and  C_15 
REMARK    3  A    between atoms: C_8  and  C_9 
REMARK       I    between atoms: C_15  and  N_17 
REMARK    4  A    between atoms: N_17  and  C_18 
REMARK    5  A    between atoms: C_18  and  C_19 
REMARK    6  A    between atoms: C_23  and  C_25 
REMARK       I    between atoms: C_25  and  N_27 
REMARK    7  A    between atoms: N_27  and  C_28 
REMARK    8  A    between atoms: C_28  and  C_29 
REMARK    9  A    between atoms: C_29  and  O_32 
ROOT
HETATM    1  C   UNL     1       9.099  31.531  59.250  1.00  0.00     0.252 C 
HETATM    2  O   UNL     1      10.003  32.205  58.770  1.00  0.00    -0.268 OA
HETATM    3  N   UNL     1       8.688  30.329  58.718  1.00  0.00    -0.353 N 
HETATM    4  H   UNL     1       8.137  29.701  59.287  1.00  0.00     0.163 HD
ENDROOT
BRANCH   3   5
HETATM    5  C   UNL     1       9.376  29.755  57.584  1.00  0.00     0.161 C 
BRANCH   5   6
HETATM    6  C   UNL     1       8.486  28.771  56.868  1.00  0.00    -0.040 A 
HETATM    7  C   UNL     1       8.554  27.400  57.151  1.00  0.00     0.009 A 
HETATM    8  C   UNL     1       7.717  26.500  56.490  1.00  0.00     0.002 A 
HETATM    9  C   UNL     1       6.808  26.960  55.537  1.00  0.00     0.017 A 
HETATM   10  C   UNL     1       6.740  28.324  55.229  1.00  0.00     0.032 A 
HETATM   11  C   UNL     1       7.571  29.226  55.903  1.00  0.00     0.026 A 
BRANCH  10  12
HETATM   12  C   UNL     1       5.758  28.764  54.201  1.00  0.00     0.251 C 
HETATM   13  O   UNL     1       4.637  29.129  54.539  1.00  0.00    -0.268 OA
HETATM   14  N   UNL     1       6.167  28.700  52.887  1.00  0.00    -0.354 N 
HETATM   15  H   UNL     1       7.058  28.290  52.645  1.00  0.00     0.162 HD
BRANCH  14  16
HETATM   16  C   UNL     1       5.284  29.063  51.787  1.00  0.00     0.159 C 
BRANCH  16  17
HETATM   17  C   UNL     1       5.012  27.893  50.814  1.00  0.00     0.066 C 
HETATM   18  C   UNL     1       5.431  28.205  49.375  1.00  0.00     0.047 C 
HETATM   19  C   UNL     1       5.739  26.639  51.304  1.00  0.00     0.047 C 
BRANCH  17  20
HETATM   20  O   UNL     1       3.607  27.599  50.825  1.00  0.00    -0.389 OA
HETATM   21  H   UNL     1       3.519  26.652  50.613  1.00  0.00     0.210 HD
ENDBRANCH  17  20
ENDBRANCH  16  17
ENDBRANCH  14  16
ENDBRANCH  10  12
ENDBRANCH   5   6
ENDBRANCH   3   5
BRANCH   1  22
HETATM   22  C   UNL     1       8.404  31.983  60.486  1.00  0.00     0.034 A 
HETATM   23  C   UNL     1       7.132  32.571  60.452  1.00  0.00     0.054 A 
HETATM   24  C   UNL     1       6.506  32.985  61.638  1.00  0.00     0.080 A 
HETATM   25  C   UNL     1       7.155  32.794  62.879  1.00  0.00     0.010 A 
HETATM   26  C   UNL     1       8.442  32.228  62.891  1.00  0.00     0.016 A 
HETATM   27  C   UNL     1       9.064  31.832  61.707  1.00  0.00     0.018 A 
BRANCH  24  28
HETATM   28  O   UNL     1       5.248  33.536  61.663  1.00  0.00    -0.355 OA
HETATM   29  C   UNL     1       4.235  32.894  60.897  1.00  0.00     0.210 C 
ENDBRANCH  24  28
BRANCH  25  30
HETATM   30  C   UNL     1       6.545  33.191  64.144  1.00  0.00     0.013 A 
HETATM   31  C   UNL     1       5.194  33.227  64.563  1.00  0.00     0.152 A 
HETATM   32  N   UNL     1       5.048  33.666  65.816  1.00  0.00    -0.187 NA
HETATM   33  N   UNL     1       6.308  33.900  66.214  1.00  0.00    -0.289 N 
HETATM   34  H   UNL     1       6.458  34.240  67.157  1.00  0.00     0.188 HD
HETATM   35  C   UNL     1       7.239  33.636  65.252  1.00  0.00     0.123 A 
ENDBRANCH  25  30
ENDBRANCH   1  22
TORSDOF 9
ENDMDL
MODEL 8
REMARK VINA RESULT:      -8.9      4.334     10.513
REMARK  9 active torsions:
REMARK  status: ('A' for Active; 'I' for Inactive)
REMARK    1  A    between atoms: O_2  and  C_3 
REMARK    2  A    between atoms: C_5  and  C_15 
REMARK    3  A    between atoms: C_8  and  C_9 
REMARK       I    between atoms: C_15  and  N_17 
REMARK    4  A    between atoms: N_17  and  C_18 
REMARK    5  A    between atoms: C_18  and  C_19 
REMARK    6  A    between atoms: C_23  and  C_25 
REMARK       I    between atoms: C_25  and  N_27 
REMARK    7  A    between atoms: N_27  and  C_28 
REMARK    8  A    between atoms: C_28  and  C_29 
REMARK    9  A    between atoms: C_29  and  O_32 
ROOT
HETATM    1  C   UNL     1       5.470  26.660  52.997  1.00  0.00     0.252 C 
HETATM    2  O   UNL     1       5.963  27.212  52.020  1.00  0.00    -0.268 OA
HETATM    3  N   UNL     1       4.285  27.061  53.574  1.00  0.00    -0.353 N 
HETATM    4  H   UNL     1       3.800  26.427  54.194  1.00  0.00     0.163 HD
ENDROOT
BRANCH   3   5
HETATM    5  C   UNL     1       3.510  28.131  52.990  1.00  0.00     0.161 C 
BRANCH   5   6
HETATM    6  C   UNL     1       3.783  29.432  53.700  1.00  0.00    -0.040 A 
HETATM    7  C   UNL     1       3.561  30.660  53.063  1.00  0.00     0.009 A 
HETATM    8  C   UNL     1       3.805  31.860  53.735  1.00  0.00     0.002 A 
HETATM    9  C   UNL     1       4.279  31.842  55.047  1.00  0.00     0.017 A 
HETATM   10  C   UNL     1       4.524  30.624  55.691  1.00  0.00     0.032 A 
HETATM   11  C   UNL     1       4.265  29.423  55.020  1.00  0.00     0.026 A 
BRANCH  10  12
HETATM   12  C   UNL     1       5.035  30.658  57.089  1.00  0.00     0.251 C 
HETATM   13  O   UNL     1       4.262  30.506  58.029  1.00  0.00    -0.268 OA
HETATM   14  N   UNL     1       6.382  30.902  57.250  1.00  0.00    -0.354 N 
HETATM   15  H   UNL     1       6.962  31.130  56.455  1.00  0.00     0.162 HD
BRANCH  14  16
HETATM   16  C   UNL     1       6.994  31.001  58.568  1.00  0.00     0.159 C 
BRANCH  16  17
HETATM   17  C   UNL     1       8.164  30.011  58.769  1.00  0.00     0.066 C 
HETATM   18  C   UNL     1       7.938  28.669  58.069  1.00  0.00     0.047 C 
HETATM   19  C   UNL     1       9.464  30.644  58.267  1.00  0.00     0.047 C 
BRANCH  17  20
HETATM   20  O   UNL     1       8.329  29.769  60.175  1.00  0.00    -0.389 OA
HETATM   21  H   UNL     1       8.310  30.639  60.612  1.00  0.00     0.210 HD
ENDBRANCH  17  20
ENDBRANCH  16  17
ENDBRANCH  14  16
ENDBRANCH  10  12
ENDBRANCH   5   6
ENDBRANCH   3   5
BRANCH   1  22
HETATM   22  C   UNL     1       6.137  25.476  53.603  1.00  0.00     0.034 A 
HETATM   23  C   UNL     1       6.458  25.419  54.967  1.00  0.00     0.054 A 
HETATM   24  C   UNL     1       7.087  24.286  55.504  1.00  0.00     0.080 A 
HETATM   25  C   UNL     1       7.385  23.184  54.669  1.00  0.00     0.010 A 
HETATM   26  C   UNL     1       7.081  23.271  53.299  1.00  0.00     0.016 A 
HETATM   27  C   UNL     1       6.468  24.407  52.769  1.00  0.00     0.018 A 
BRANCH  24  28
HETATM   28  O   UNL     1       7.393  24.165  56.838  1.00  0.00    -0.355 OA
HETATM   29  C   UNL     1       8.585  24.792  57.297  1.00  0.00     0.210 C 
ENDBRANCH  24  28
BRANCH  25  30
HETATM   30  C   UNL     1       8.024  21.974  55.177  1.00  0.00     0.013 A 
HETATM   31  C   UNL     1       7.491  20.835  55.825  1.00  0.00     0.152 A 
HETATM   32  N   UNL     1       8.424  19.932  56.144  1.00  0.00    -0.187 NA
HETATM   33  N   UNL     1       9.558  20.482  55.685  1.00  0.00    -0.289 N 
HETATM   34  H   UNL     1      10.423  19.966  55.805  1.00  0.00     0.188 HD
HETATM   35  C   UNL     1       9.375  21.702  55.104  1.00  0.00     0.123 A 
ENDBRANCH  25  30
ENDBRANCH   1  22
TORSDOF 9
ENDMDL
MODEL 9
REMARK VINA RESULT:      -8.8      3.326     10.995
REMARK  9 active torsions:
REMARK  status: ('A' for Active; 'I' for Inactive)
REMARK    1  A    between atoms: O_2  and  C_3 
REMARK    2  A    between atoms: C_5  and  C_15 
REMARK    3  A    between atoms: C_8  and  C_9 
REMARK       I    between atoms: C_15  and  N_17 
REMARK    4  A    between atoms: N_17  and  C_18 
REMARK    5  A    between atoms: C_18  and  C_19 
REMARK    6  A    between atoms: C_23  and  C_25 
REMARK       I    between atoms: C_25  and  N_27 
REMARK    7  A    between atoms: N_27  and  C_28 
REMARK    8  A    between atoms: C_28  and  C_29 
REMARK    9  A    between atoms: C_29  and  O_32 
ROOT
HETATM    1  C   UNL     1       5.593  26.767  53.896  1.00  0.00     0.252 C 
HETATM    2  O   UNL     1       5.660  27.358  52.824  1.00  0.00    -0.268 OA
HETATM    3  N   UNL     1       4.905  27.254  54.985  1.00  0.00    -0.353 N 
HETATM    4  H   UNL     1       4.663  26.623  55.737  1.00  0.00     0.163 HD
ENDROOT
BRANCH   3   5
HETATM    5  C   UNL     1       4.146  28.480  54.886  1.00  0.00     0.161 C 
BRANCH   5   6
HETATM    6  C   UNL     1       4.670  29.506  55.858  1.00  0.00    -0.040 A 
HETATM    7  C   UNL     1       4.009  30.729  56.039  1.00  0.00     0.009 A 
HETATM    8  C   UNL     1       4.495  31.667  56.951  1.00  0.00     0.002 A 
HETATM    9  C   UNL     1       5.649  31.394  57.686  1.00  0.00     0.017 A 
HETATM   10  C   UNL     1       6.332  30.186  57.504  1.00  0.00     0.032 A 
HETATM   11  C   UNL     1       5.834  29.241  56.599  1.00  0.00     0.026 A 
BRANCH  10  12
HETATM   12  C   UNL     1       7.561  29.945  58.307  1.00  0.00     0.251 C 
HETATM   13  O   UNL     1       7.964  28.800  58.486  1.00  0.00    -0.268 OA
HETATM   14  N   UNL     1       8.174  31.054  58.849  1.00  0.00    -0.354 N 
HETATM   15  H   UNL     1       7.749  31.967  58.770  1.00  0.00     0.162 HD
BRANCH  14  16
HETATM   16  C   UNL     1       9.360  30.946  59.689  1.00  0.00     0.159 C 
BRANCH  16  17
HETATM   17  C   UNL     1       9.121  31.417  61.141  1.00  0.00     0.066 C 
HETATM   18  C   UNL     1       7.828  32.220  61.302  1.00  0.00     0.047 C 
HETATM   19  C   UNL     1       9.097  30.206  62.077  1.00  0.00     0.047 C 
BRANCH  17  20
HETATM   20  O   UNL     1      10.223  32.243  61.547  1.00  0.00    -0.389 OA
HETATM   21  H   UNL     1       9.846  33.102  61.809  1.00  0.00     0.210 HD
ENDBRANCH  17  20
ENDBRANCH  16  17
ENDBRANCH  14  16
ENDBRANCH  10  12
ENDBRANCH   5   6
ENDBRANCH   3   5
BRANCH   1  22
HETATM   22  C   UNL     1       6.247  25.440  54.062  1.00  0.00     0.034 A 
HETATM   23  C   UNL     1       6.896  25.074  55.249  1.00  0.00     0.054 A 
HETATM   24  C   UNL     1       7.502  23.814  55.370  1.00  0.00     0.080 A 
HETATM   25  C   UNL     1       7.445  22.900  54.294  1.00  0.00     0.010 A 
HETATM   26  C   UNL     1       6.815  23.296  53.101  1.00  0.00     0.016 A 
HETATM   27  C   UNL     1       6.226  24.555  52.982  1.00  0.00     0.018 A 
BRANCH  24  28
HETATM   28  O   UNL     1       8.120  23.393  56.522  1.00  0.00    -0.355 OA
HETATM   29  C   UNL     1       8.744  24.382  57.332  1.00  0.00     0.210 C 
ENDBRANCH  24  28
BRANCH  25  30
HETATM   30  C   UNL     1       8.044  21.571  54.370  1.00  0.00     0.013 A 
HETATM   31  C   UNL     1       8.705  20.785  53.397  1.00  0.00     0.152 A 
HETATM   32  N   UNL     1       9.109  19.601  53.869  1.00  0.00    -0.187 NA
HETATM   33  N   UNL     1       8.722  19.630  55.153  1.00  0.00    -0.289 N 
HETATM   34  H   UNL     1       8.931  18.826  55.735  1.00  0.00     0.188 HD
HETATM   35  C   UNL     1       8.078  20.781  55.502  1.00  0.00     0.123 A 
ENDBRANCH  25  30
ENDBRANCH   1  22
TORSDOF 9
ENDMDL
MODEL 10
REMARK VINA RESULT:      -8.8      2.980     10.188
REMARK  9 active torsions:
REMARK  status: ('A' for Active; 'I' for Inactive)
REMARK    1  A    between atoms: O_2  and  C_3 
REMARK    2  A    between atoms: C_5  and  C_15 
REMARK    3  A    between atoms: C_8  and  C_9 
REMARK       I    between atoms: C_15  and  N_17 
REMARK    4  A    between atoms: N_17  and  C_18 
REMARK    5  A    between atoms: C_18  and  C_19 
REMARK    6  A    between atoms: C_23  and  C_25 
REMARK       I    between atoms: C_25  and  N_27 
REMARK    7  A    between atoms: N_27  and  C_28 
REMARK    8  A    between atoms: C_28  and  C_29 
REMARK    9  A    between atoms: C_29  and  O_32 
ROOT
HETATM    1  C   UNL     1       9.332  31.309  59.254  1.00  0.00     0.252 C 
HETATM    2  O   UNL     1       9.988  32.286  58.913  1.00  0.00    -0.268 OA
HETATM    3  N   UNL     1       8.988  31.050  60.563  1.00  0.00    -0.353 N 
HETATM    4  H   UNL     1       8.241  30.395  60.755  1.00  0.00     0.163 HD
ENDROOT
BRANCH   3   5
HETATM    5  C   UNL     1       9.328  31.984  61.611  1.00  0.00     0.161 C 
BRANCH   5   6
HETATM    6  C   UNL     1       8.099  32.379  62.388  1.00  0.00    -0.040 A 
HETATM    7  C   UNL     1       8.190  32.763  63.733  1.00  0.00     0.009 A 
HETATM    8  C   UNL     1       7.046  33.139  64.440  1.00  0.00     0.002 A 
HETATM    9  C   UNL     1       5.801  33.130  63.810  1.00  0.00     0.017 A 
HETATM   10  C   UNL     1       5.690  32.733  62.473  1.00  0.00     0.032 A 
HETATM   11  C   UNL     1       6.840  32.369  61.763  1.00  0.00     0.026 A 
BRANCH  10  12
HETATM   12  C   UNL     1       4.339  32.735  61.849  1.00  0.00     0.251 C 
HETATM   13  O   UNL     1       3.491  31.928  62.216  1.00  0.00    -0.268 OA
HETATM   14  N   UNL     1       4.125  33.648  60.839  1.00  0.00    -0.354 N 
HETATM   15  H   UNL     1       4.883  34.219  60.493  1.00  0.00     0.162 HD
BRANCH  14  16
HETATM   16  C   UNL     1       2.859  33.721  60.122  1.00  0.00     0.159 C 
BRANCH  16  17
HETATM   17  C   UNL     1       1.938  34.853  60.630  1.00  0.00     0.066 C 
HETATM   18  C   UNL     1       2.690  35.924  61.423  1.00  0.00     0.047 C 
HETATM   19  C   UNL     1       1.216  35.498  59.445  1.00  0.00     0.047 C 
BRANCH  17  20
HETATM   20  O   UNL     1       0.929  34.283  61.479  1.00  0.00    -0.389 OA
HETATM   21  H   UNL     1       1.393  33.897  62.243  1.00  0.00     0.210 HD
ENDBRANCH  17  20
ENDBRANCH  16  17
ENDBRANCH  14  16
ENDBRANCH  10  12
ENDBRANCH   5   6
ENDBRANCH   3   5
BRANCH   1  22
HETATM   22  C   UNL     1       8.837  30.347  58.233  1.00  0.00     0.034 A 
HETATM   23  C   UNL     1       7.531  29.837  58.263  1.00  0.00     0.054 A 
HETATM   24  C   UNL     1       7.098  28.930  57.284  1.00  0.00     0.080 A 
HETATM   25  C   UNL     1       7.977  28.541  56.247  1.00  0.00     0.010 A 
HETATM   26  C   UNL     1       9.291  29.041  56.250  1.00  0.00     0.016 A 
HETATM   27  C   UNL     1       9.720  29.931  57.235  1.00  0.00     0.018 A 
BRANCH  24  28
HETATM   28  O   UNL     1       5.820  28.427  57.248  1.00  0.00    -0.355 OA
HETATM   29  C   UNL     1       4.764  29.335  56.962  1.00  0.00     0.210 C 
ENDBRANCH  24  28
BRANCH  25  30
HETATM   30  C   UNL     1       7.575  27.614  55.194  1.00  0.00     0.013 A 
HETATM   31  C   UNL     1       7.338  26.219  55.214  1.00  0.00     0.152 A 
HETATM   32  N   UNL     1       6.988  25.733  54.019  1.00  0.00    -0.187 NA
HETATM   33  N   UNL     1       6.983  26.817  53.230  1.00  0.00    -0.289 N 
HETATM   34  H   UNL     1       6.733  26.699  52.255  1.00  0.00     0.188 HD
HETATM   35  C   UNL     1       7.331  27.965  53.881  1.00  0.00     0.123 A 
ENDBRANCH  25  30
ENDBRANCH   1  22
TORSDOF 9
ENDMDL
