MODEL 1
REMARK VINA RESULT:     -10.7      0.000      0.000
REMARK  5 active torsions:
REMARK  status: ('A' for Active; 'I' for Inactive)
REMARK    1  A    between atoms: C_4  and  C_5 
REMARK    2  A    between atoms: C_5  and  C_6 
REMARK    3  A    between atoms: C_12  and  S_13 
REMARK    4  A    between atoms: S_13  and  C_14 
REMARK    5  A    between atoms: C_14  and  C_15 
ROOT
HETATM    1  C   UNL     1       6.509  24.058  52.933  1.00  0.00     0.283 C 
HETATM    2  O   UNL     1       5.808  24.307  54.140  1.00  0.00    -0.303 OA
HETATM    3  C   UNL     1       6.621  24.948  55.037  1.00  0.00     0.201 A 
HETATM    4  C   UNL     1       7.595  24.243  55.721  1.00  0.00     0.144 A 
HETATM    5  N   UNL     1       8.310  24.896  56.658  1.00  0.00    -0.142 NA
HETATM    6  N   UNL     1       8.050  26.220  56.883  1.00  0.00    -0.122 NA
HETATM    7  C   UNL     1       7.085  26.850  56.174  1.00  0.00     0.212 A 
HETATM    8  N   UNL     1       6.329  26.246  55.243  1.00  0.00    -0.195 NA
HETATM    9  C   UNL     1       7.881  22.831  55.477  1.00  0.00     0.020 A 
HETATM   10  C   UNL     1       7.790  22.275  54.181  1.00  0.00     0.023 A 
HETATM   11  N   UNL     1       7.561  23.018  53.016  1.00  0.00    -0.259 NA
HETATM   12  C   UNL     1       8.263  21.995  56.548  1.00  0.00     0.016 A 
HETATM   13  C   UNL     1       8.565  20.648  56.349  1.00  0.00     0.001 A 
HETATM   14  C   UNL     1       8.514  20.116  55.068  1.00  0.00     0.002 A 
HETATM   15  C   UNL     1       8.149  20.929  53.996  1.00  0.00     0.024 A 
HETATM   16  H   UNL     1       8.448  23.431  52.702  1.00  0.00     0.130 HD
ENDROOT
BRANCH   7  17
HETATM   17  S   UNL     1       6.761  28.564  56.482  1.00  0.00    -0.084 SA
BRANCH  17  18
HETATM   18  C   UNL     1       8.462  29.205  56.410  1.00  0.00     0.121 C 
BRANCH  18  19
HETATM   19  C   UNL     1       8.826  29.937  57.680  1.00  0.00    -0.048 A 
HETATM   20  C   UNL     1       8.056  29.771  58.841  1.00  0.00     0.009 A 
HETATM   21  C   UNL     1       8.386  30.456  60.014  1.00  0.00     0.024 A 
HETATM   22  C   UNL     1       9.482  31.315  60.029  1.00  0.00     0.034 A 
HETATM   23 CL   UNL     1       9.886  32.159  61.473  1.00  0.00    -0.084 Cl
HETATM   24  C   UNL     1      10.252  31.496  58.883  1.00  0.00     0.024 A 
HETATM   25  C   UNL     1       9.924  30.811  57.711  1.00  0.00     0.009 A 
ENDBRANCH  18  19
ENDBRANCH  17  18
ENDBRANCH   7  17
BRANCH   1  26
HETATM   26  C   UNL     1       7.070  25.310  52.203  1.00  0.00     0.203 C 
HETATM   27  O   UNL     1       8.287  25.473  52.065  1.00  0.00    -0.288 OA
BRANCH  26  28
HETATM   28  C   UNL     1       6.117  26.308  51.625  1.00  0.00     0.014 A 
HETATM   29  C   UNL     1       5.233  26.000  50.583  1.00  0.00     0.015 A 
HETATM   30  C   UNL     1       4.382  26.983  50.068  1.00  0.00     0.001 A 
HETATM   31  C   UNL     1       4.407  28.276  50.587  1.00  0.00     0.000 A 
HETATM   32  C   UNL     1       5.279  28.590  51.627  1.00  0.00     0.001 A 
HETATM   33  C   UNL     1       6.130  27.611  52.145  1.00  0.00     0.015 A 
ENDBRANCH  26  28
ENDBRANCH   1  26
TORSDOF 5
ENDMDL
MODEL 2
REMARK VINA RESULT:     -10.5      3.812      7.568
REMARK  5 active torsions:
REMARK  status: ('A' for Active; 'I' for Inactive)
REMARK    1  A    between atoms: C_4  and  C_5 
REMARK    2  A    between atoms: C_5  and  C_6 
REMARK    3  A    between atoms: C_12  and  S_13 
REMARK    4  A    between atoms: S_13  and  C_14 
REMARK    5  A    between atoms: C_14  and  C_15 
ROOT
HETATM    1  C   UNL     1       7.511  25.111  56.263  1.00  0.00     0.283 C 
HETATM    2  O   UNL     1       7.992  25.572  55.013  1.00  0.00    -0.303 OA
HETATM    3  C   UNL     1       7.023  25.445  54.053  1.00  0.00     0.201 A 
HETATM    4  C   UNL     1       6.737  24.205  53.512  1.00  0.00     0.144 A 
HETATM    5  N   UNL     1       5.840  24.141  52.509  1.00  0.00    -0.142 NA
HETATM    6  N   UNL     1       5.247  25.297  52.080  1.00  0.00    -0.122 NA
HETATM    7  C   UNL     1       5.569  26.477  52.659  1.00  0.00     0.212 A 
HETATM    8  N   UNL     1       6.469  26.603  53.647  1.00  0.00    -0.195 NA
HETATM    9  C   UNL     1       7.362  22.966  53.974  1.00  0.00     0.020 A 
HETATM   10  C   UNL     1       7.685  22.769  55.336  1.00  0.00     0.023 A 
HETATM   11  N   UNL     1       7.328  23.645  56.369  1.00  0.00    -0.259 NA
HETATM   12  C   UNL     1       7.651  21.938  53.053  1.00  0.00     0.016 A 
HETATM   13  C   UNL     1       8.226  20.734  53.460  1.00  0.00     0.001 A 
HETATM   14  C   UNL     1       8.504  20.528  54.804  1.00  0.00     0.002 A 
HETATM   15  C   UNL     1       8.217  21.530  55.731  1.00  0.00     0.024 A 
HETATM   16  H   UNL     1       6.355  23.460  56.643  1.00  0.00     0.130 HD
ENDROOT
BRANCH   7  17
HETATM   17  S   UNL     1       4.792  27.963  52.087  1.00  0.00    -0.084 SA
BRANCH  17  18
HETATM   18  C   UNL     1       5.355  27.946  50.357  1.00  0.00     0.121 C 
BRANCH  18  19
HETATM   19  C   UNL     1       4.202  27.722  49.408  1.00  0.00    -0.048 A 
HETATM   20  C   UNL     1       4.335  26.841  48.323  1.00  0.00     0.009 A 
HETATM   21  C   UNL     1       3.273  26.642  47.438  1.00  0.00     0.024 A 
HETATM   22  C   UNL     1       2.075  27.326  47.629  1.00  0.00     0.034 A 
HETATM   23 CL   UNL     1       0.767  27.081  46.537  1.00  0.00    -0.084 Cl
HETATM   24  C   UNL     1       1.929  28.210  48.696  1.00  0.00     0.024 A 
HETATM   25  C   UNL     1       2.990  28.409  49.582  1.00  0.00     0.009 A 
ENDBRANCH  18  19
ENDBRANCH  17  18
ENDBRANCH   7  17
BRANCH   1  26
HETATM   26  C   UNL     1       6.250  25.834  56.814  1.00  0.00     0.203 C 
HETATM   27  O   UNL     1       5.193  25.221  56.993  1.00  0.00    -0.288 OA
BRANCH  26  28
HETATM   28  C   UNL     1       6.335  27.286  57.166  1.00  0.00     0.014 A 
HETATM   29  C   UNL     1       5.273  28.178  56.970  1.00  0.00     0.015 A 
HETATM   30  C   UNL     1       5.420  29.529  57.297  1.00  0.00     0.001 A 
HETATM   31  C   UNL     1       6.623  29.999  57.820  1.00  0.00     0.000 A 
HETATM   32  C   UNL     1       7.682  29.118  58.024  1.00  0.00     0.001 A 
HETATM   33  C   UNL     1       7.539  27.767  57.700  1.00  0.00     0.015 A 
ENDBRANCH  26  28
ENDBRANCH   1  26
TORSDOF 5
ENDMDL
MODEL 3
REMARK VINA RESULT:     -10.5      1.592      2.065
REMARK  5 active torsions:
REMARK  status: ('A' for Active; 'I' for Inactive)
REMARK    1  A    between atoms: C_4  and  C_5 
REMARK    2  A    between atoms: C_5  and  C_6 
REMARK    3  A    between atoms: C_12  and  S_13 
REMARK    4  A    between atoms: S_13  and  C_14 
REMARK    5  A    between atoms: C_14  and  C_15 
ROOT
HETATM    1  C   UNL     1       5.840  25.374  54.068  1.00  0.00     0.283 C 
HETATM    2  O   UNL     1       5.397  25.531  55.405  1.00  0.00    -0.303 OA
HETATM    3  C   UNL     1       6.377  26.112  56.165  1.00  0.00     0.201 A 
HETATM    4  C   UNL     1       7.463  25.369  56.588  1.00  0.00     0.144 A 
HETATM    5  N   UNL     1       8.356  25.958  57.407  1.00  0.00    -0.142 NA
HETATM    6  N   UNL     1       8.155  27.261  57.774  1.00  0.00    -0.122 NA
HETATM    7  C   UNL     1       7.072  27.932  57.318  1.00  0.00     0.212 A 
HETATM    8  N   UNL     1       6.141  27.391  56.517  1.00  0.00    -0.195 NA
HETATM    9  C   UNL     1       7.686  23.979  56.191  1.00  0.00     0.020 A 
HETATM   10  C   UNL     1       7.333  23.517  54.903  1.00  0.00     0.023 A 
HETATM   11  N   UNL     1       6.880  24.339  53.863  1.00  0.00    -0.259 NA
HETATM   12  C   UNL     1       8.268  23.072  57.101  1.00  0.00     0.016 A 
HETATM   13  C   UNL     1       8.516  21.745  56.750  1.00  0.00     0.001 A 
HETATM   14  C   UNL     1       8.206  21.305  55.470  1.00  0.00     0.002 A 
HETATM   15  C   UNL     1       7.638  22.190  54.554  1.00  0.00     0.024 A 
HETATM   16  H   UNL     1       7.688  24.781  53.409  1.00  0.00     0.130 HD
ENDROOT
BRANCH   7  17
HETATM   17  S   UNL     1       6.828  29.617  57.807  1.00  0.00    -0.084 SA
BRANCH  17  18
HETATM   18  C   UNL     1       8.450  29.945  58.563  1.00  0.00     0.121 C 
BRANCH  18  19
HETATM   19  C   UNL     1       8.307  30.717  59.853  1.00  0.00    -0.048 A 
HETATM   20  C   UNL     1       9.204  30.504  60.911  1.00  0.00     0.009 A 
HETATM   21  C   UNL     1       9.067  31.210  62.109  1.00  0.00     0.024 A 
HETATM   22  C   UNL     1       8.029  32.128  62.257  1.00  0.00     0.034 A 
HETATM   23 CL   UNL     1       7.861  32.995  63.734  1.00  0.00    -0.084 Cl
HETATM   24  C   UNL     1       7.126  32.345  61.219  1.00  0.00     0.024 A 
HETATM   25  C   UNL     1       7.264  31.640  60.021  1.00  0.00     0.009 A 
ENDBRANCH  18  19
ENDBRANCH  17  18
ENDBRANCH   7  17
BRANCH   1  26
HETATM   26  C   UNL     1       6.251  26.679  53.331  1.00  0.00     0.203 C 
HETATM   27  O   UNL     1       7.427  27.057  53.317  1.00  0.00    -0.288 OA
BRANCH  26  28
HETATM   28  C   UNL     1       5.210  27.465  52.598  1.00  0.00     0.014 A 
HETATM   29  C   UNL     1       5.213  27.615  51.205  1.00  0.00     0.015 A 
HETATM   30  C   UNL     1       4.227  28.382  50.578  1.00  0.00     0.001 A 
HETATM   31  C   UNL     1       3.234  29.003  51.333  1.00  0.00     0.000 A 
HETATM   32  C   UNL     1       3.219  28.855  52.718  1.00  0.00     0.001 A 
HETATM   33  C   UNL     1       4.203  28.089  53.348  1.00  0.00     0.015 A 
ENDBRANCH  26  28
ENDBRANCH   1  26
TORSDOF 5
ENDMDL
MODEL 4
REMARK VINA RESULT:     -10.3      2.214      6.015
REMARK  5 active torsions:
REMARK  status: ('A' for Active; 'I' for Inactive)
REMARK    1  A    between atoms: C_4  and  C_5 
REMARK    2  A    between atoms: C_5  and  C_6 
REMARK    3  A    between atoms: C_12  and  S_13 
REMARK    4  A    between atoms: S_13  and  C_14 
REMARK    5  A    between atoms: C_14  and  C_15 
ROOT
HETATM    1  C   UNL     1       6.141  25.891  51.633  1.00  0.00     0.283 C 
HETATM    2  O   UNL     1       6.429  27.212  52.056  1.00  0.00    -0.303 OA
HETATM    3  C   UNL     1       5.307  27.797  52.582  1.00  0.00     0.201 A 
HETATM    4  C   UNL     1       4.305  28.258  51.747  1.00  0.00     0.144 A 
HETATM    5  N   UNL     1       3.264  28.906  52.304  1.00  0.00    -0.142 NA
HETATM    6  N   UNL     1       3.238  29.070  53.662  1.00  0.00    -0.122 NA
HETATM    7  C   UNL     1       4.250  28.589  54.420  1.00  0.00     0.212 A 
HETATM    8  N   UNL     1       5.321  27.953  53.919  1.00  0.00    -0.195 NA
HETATM    9  C   UNL     1       4.325  28.076  50.296  1.00  0.00     0.020 A 
HETATM   10  C   UNL     1       4.861  26.908  49.709  1.00  0.00     0.023 A 
HETATM   11  N   UNL     1       5.286  25.783  50.428  1.00  0.00    -0.259 NA
HETATM   12  C   UNL     1       3.798  29.078  49.455  1.00  0.00     0.016 A 
HETATM   13  C   UNL     1       3.779  28.930  48.068  1.00  0.00     0.001 A 
HETATM   14  C   UNL     1       4.269  27.763  47.497  1.00  0.00     0.002 A 
HETATM   15  C   UNL     1       4.785  26.758  48.314  1.00  0.00     0.024 A 
HETATM   16  H   UNL     1       4.468  25.208  50.663  1.00  0.00     0.130 HD
ENDROOT
BRANCH   7  17
HETATM   17  S   UNL     1       4.200  28.815  56.176  1.00  0.00    -0.084 SA
BRANCH  17  18
HETATM   18  C   UNL     1       5.473  27.612  56.666  1.00  0.00     0.121 C 
BRANCH  18  19
HETATM   19  C   UNL     1       6.779  28.298  56.992  1.00  0.00    -0.048 A 
HETATM   20  C   UNL     1       6.786  29.524  57.675  1.00  0.00     0.009 A 
HETATM   21  C   UNL     1       7.993  30.165  57.967  1.00  0.00     0.024 A 
HETATM   22  C   UNL     1       9.197  29.587  57.573  1.00  0.00     0.034 A 
HETATM   23 CL   UNL     1      10.683  30.378  57.932  1.00  0.00    -0.084 Cl
HETATM   24  C   UNL     1       9.207  28.375  56.887  1.00  0.00     0.024 A 
HETATM   25  C   UNL     1       8.001  27.733  56.595  1.00  0.00     0.009 A 
ENDBRANCH  18  19
ENDBRANCH  17  18
ENDBRANCH   7  17
BRANCH   1  26
HETATM   26  C   UNL     1       5.616  24.925  52.732  1.00  0.00     0.203 C 
HETATM   27  O   UNL     1       4.406  24.710  52.864  1.00  0.00    -0.288 OA
BRANCH  26  28
HETATM   28  C   UNL     1       6.595  24.220  53.615  1.00  0.00     0.014 A 
HETATM   29  C   UNL     1       6.650  24.420  55.001  1.00  0.00     0.015 A 
HETATM   30  C   UNL     1       7.605  23.750  55.771  1.00  0.00     0.001 A 
HETATM   31  C   UNL     1       8.509  22.878  55.168  1.00  0.00     0.000 A 
HETATM   32  C   UNL     1       8.459  22.668  53.792  1.00  0.00     0.001 A 
HETATM   33  C   UNL     1       7.506  23.335  53.019  1.00  0.00     0.015 A 
ENDBRANCH  26  28
ENDBRANCH   1  26
TORSDOF 5
ENDMDL
MODEL 5
REMARK VINA RESULT:     -10.2      1.562      5.413
REMARK  5 active torsions:
REMARK  status: ('A' for Active; 'I' for Inactive)
REMARK    1  A    between atoms: C_4  and  C_5 
REMARK    2  A    between atoms: C_5  and  C_6 
REMARK    3  A    between atoms: C_12  and  S_13 
REMARK    4  A    between atoms: S_13  and  C_14 
REMARK    5  A    between atoms: C_14  and  C_15 
ROOT
HETATM    1  C   UNL     1       7.110  25.297  52.965  1.00  0.00     0.283 C 
HETATM    2  O   UNL     1       7.880  26.461  53.211  1.00  0.00    -0.303 OA
HETATM    3  C   UNL     1       7.203  27.311  54.046  1.00  0.00     0.201 A 
HETATM    4  C   UNL     1       6.157  28.076  53.562  1.00  0.00     0.144 A 
HETATM    5  N   UNL     1       5.580  28.961  54.397  1.00  0.00    -0.142 NA
HETATM    6  N   UNL     1       6.043  29.058  55.681  1.00  0.00    -0.122 NA
HETATM    7  C   UNL     1       7.067  28.274  56.090  1.00  0.00     0.212 A 
HETATM    8  N   UNL     1       7.693  27.389  55.297  1.00  0.00    -0.195 NA
HETATM    9  C   UNL     1       5.653  27.969  52.194  1.00  0.00     0.020 A 
HETATM   10  C   UNL     1       5.617  26.729  51.518  1.00  0.00     0.023 A 
HETATM   11  N   UNL     1       5.917  25.496  52.110  1.00  0.00    -0.259 NA
HETATM   12  C   UNL     1       5.187  29.120  51.525  1.00  0.00     0.016 A 
HETATM   13  C   UNL     1       4.678  29.054  50.227  1.00  0.00     0.001 A 
HETATM   14  C   UNL     1       4.606  27.827  49.582  1.00  0.00     0.002 A 
HETATM   15  C   UNL     1       5.054  26.678  50.231  1.00  0.00     0.024 A 
HETATM   16  H   UNL     1       5.092  25.162  52.624  1.00  0.00     0.130 HD
ENDROOT
BRANCH   7  17
HETATM   17  S   UNL     1       7.656  28.415  57.755  1.00  0.00    -0.084 SA
BRANCH  17  18
HETATM   18  C   UNL     1       8.129  30.171  57.755  1.00  0.00     0.121 C 
BRANCH  18  19
HETATM   19  C   UNL     1       8.110  30.744  59.152  1.00  0.00    -0.048 A 
HETATM   20  C   UNL     1       7.085  31.615  59.550  1.00  0.00     0.009 A 
HETATM   21  C   UNL     1       7.073  32.154  60.839  1.00  0.00     0.024 A 
HETATM   22  C   UNL     1       8.089  31.830  61.734  1.00  0.00     0.034 A 
HETATM   23 CL   UNL     1       8.075  32.496  63.321  1.00  0.00    -0.084 Cl
HETATM   24  C   UNL     1       9.119  30.973  61.353  1.00  0.00     0.024 A 
HETATM   25  C   UNL     1       9.131  30.433  60.065  1.00  0.00     0.009 A 
ENDBRANCH  18  19
ENDBRANCH  17  18
ENDBRANCH   7  17
BRANCH   1  26
HETATM   26  C   UNL     1       6.720  24.464  54.218  1.00  0.00     0.203 C 
HETATM   27  O   UNL     1       5.928  24.908  55.055  1.00  0.00    -0.288 OA
BRANCH  26  28
HETATM   28  C   UNL     1       7.285  23.089  54.387  1.00  0.00     0.014 A 
HETATM   29  C   UNL     1       7.507  22.508  55.643  1.00  0.00     0.015 A 
HETATM   30  C   UNL     1       8.061  21.229  55.738  1.00  0.00     0.001 A 
HETATM   31  C   UNL     1       8.396  20.521  54.586  1.00  0.00     0.000 A 
HETATM   32  C   UNL     1       8.174  21.087  53.334  1.00  0.00     0.001 A 
HETATM   33  C   UNL     1       7.621  22.365  53.234  1.00  0.00     0.015 A 
ENDBRANCH  26  28
ENDBRANCH   1  26
TORSDOF 5
ENDMDL
MODEL 6
REMARK VINA RESULT:     -10.1      2.848      3.424
REMARK  5 active torsions:
REMARK  status: ('A' for Active; 'I' for Inactive)
REMARK    1  A    between atoms: C_4  and  C_5 
REMARK    2  A    between atoms: C_5  and  C_6 
REMARK    3  A    between atoms: C_12  and  S_13 
REMARK    4  A    between atoms: S_13  and  C_14 
REMARK    5  A    between atoms: C_14  and  C_15 
ROOT
HETATM    1  C   UNL     1       6.514  24.158  53.049  1.00  0.00     0.283 C 
HETATM    2  O   UNL     1       5.872  24.391  54.291  1.00  0.00    -0.303 OA
HETATM    3  C   UNL     1       6.746  24.964  55.177  1.00  0.00     0.201 A 
HETATM    4  C   UNL     1       7.716  24.195  55.795  1.00  0.00     0.144 A 
HETATM    5  N   UNL     1       8.494  24.782  56.725  1.00  0.00    -0.142 NA
HETATM    6  N   UNL     1       8.300  26.107  57.008  1.00  0.00    -0.122 NA
HETATM    7  C   UNL     1       7.336  26.801  56.361  1.00  0.00     0.212 A 
HETATM    8  N   UNL     1       6.519  26.265  55.440  1.00  0.00    -0.195 NA
HETATM    9  C   UNL     1       7.932  22.782  55.489  1.00  0.00     0.020 A 
HETATM   10  C   UNL     1       7.766  22.279  54.179  1.00  0.00     0.023 A 
HETATM   11  N   UNL     1       7.523  23.073  53.051  1.00  0.00    -0.259 NA
HETATM   12  C   UNL     1       8.319  21.892  56.513  1.00  0.00     0.016 A 
HETATM   13  C   UNL     1       8.556  20.542  56.255  1.00  0.00     0.001 A 
HETATM   14  C   UNL     1       8.432  20.060  54.959  1.00  0.00     0.002 A 
HETATM   15  C   UNL     1       8.060  20.927  53.932  1.00  0.00     0.024 A 
HETATM   16  H   UNL     1       8.413  23.461  52.716  1.00  0.00     0.130 HD
ENDROOT
BRANCH   7  17
HETATM   17  S   UNL     1       7.097  28.515  56.742  1.00  0.00    -0.084 SA
BRANCH  17  18
HETATM   18  C   UNL     1       5.355  28.464  57.262  1.00  0.00     0.121 C 
BRANCH  18  19
HETATM   19  C   UNL     1       4.535  29.501  56.533  1.00  0.00    -0.048 A 
HETATM   20  C   UNL     1       3.939  30.559  57.237  1.00  0.00     0.009 A 
HETATM   21  C   UNL     1       3.170  31.513  56.564  1.00  0.00     0.024 A 
HETATM   22  C   UNL     1       2.988  31.410  55.187  1.00  0.00     0.034 A 
HETATM   23 CL   UNL     1       2.041  32.585  54.360  1.00  0.00    -0.084 Cl
HETATM   24  C   UNL     1       3.567  30.362  54.475  1.00  0.00     0.024 A 
HETATM   25  C   UNL     1       4.336  29.408  55.147  1.00  0.00     0.009 A 
ENDBRANCH  18  19
ENDBRANCH  17  18
ENDBRANCH   7  17
BRANCH   1  26
HETATM   26  C   UNL     1       7.098  25.412  52.341  1.00  0.00     0.203 C 
HETATM   27  O   UNL     1       8.319  25.580  52.251  1.00  0.00    -0.288 OA
BRANCH  26  28
HETATM   28  C   UNL     1       6.165  26.408  51.728  1.00  0.00     0.014 A 
HETATM   29  C   UNL     1       5.315  26.095  50.659  1.00  0.00     0.015 A 
HETATM   30  C   UNL     1       4.483  27.075  50.112  1.00  0.00     0.001 A 
HETATM   31  C   UNL     1       4.491  28.371  50.626  1.00  0.00     0.000 A 
HETATM   32  C   UNL     1       5.328  28.690  51.692  1.00  0.00     0.001 A 
HETATM   33  C   UNL     1       6.161  27.713  52.242  1.00  0.00     0.015 A 
ENDBRANCH  26  28
ENDBRANCH   1  26
TORSDOF 5
ENDMDL
MODEL 7
REMARK VINA RESULT:     -10.1      4.340      8.910
REMARK  5 active torsions:
REMARK  status: ('A' for Active; 'I' for Inactive)
REMARK    1  A    between atoms: C_4  and  C_5 
REMARK    2  A    between atoms: C_5  and  C_6 
REMARK    3  A    between atoms: C_12  and  S_13 
REMARK    4  A    between atoms: S_13  and  C_14 
REMARK    5  A    between atoms: C_14  and  C_15 
ROOT
HETATM    1  C   UNL     1       6.636  25.200  55.237  1.00  0.00     0.283 C 
HETATM    2  O   UNL     1       5.352  25.609  54.799  1.00  0.00    -0.303 OA
HETATM    3  C   UNL     1       5.466  26.496  53.761  1.00  0.00     0.201 A 
HETATM    4  C   UNL     1       5.828  27.809  54.003  1.00  0.00     0.144 A 
HETATM    5  N   UNL     1       5.839  28.666  52.964  1.00  0.00    -0.142 NA
HETATM    6  N   UNL     1       5.504  28.201  51.721  1.00  0.00    -0.122 NA
HETATM    7  C   UNL     1       5.165  26.902  51.554  1.00  0.00     0.212 A 
HETATM    8  N   UNL     1       5.118  26.009  52.555  1.00  0.00    -0.195 NA
HETATM    9  C   UNL     1       6.194  28.307  55.328  1.00  0.00     0.020 A 
HETATM   10  C   UNL     1       6.897  27.498  56.249  1.00  0.00     0.023 A 
HETATM   11  N   UNL     1       7.420  26.233  55.953  1.00  0.00    -0.259 NA
HETATM   12  C   UNL     1       5.849  29.621  55.705  1.00  0.00     0.016 A 
HETATM   13  C   UNL     1       6.202  30.138  56.952  1.00  0.00     0.001 A 
HETATM   14  C   UNL     1       6.928  29.355  57.838  1.00  0.00     0.002 A 
HETATM   15  C   UNL     1       7.286  28.056  57.478  1.00  0.00     0.024 A 
HETATM   16  H   UNL     1       8.320  26.346  55.470  1.00  0.00     0.130 HD
ENDROOT
BRANCH   7  17
HETATM   17  S   UNL     1       4.732  26.320  49.938  1.00  0.00    -0.084 SA
BRANCH  17  18
HETATM   18  C   UNL     1       4.413  27.915  49.124  1.00  0.00     0.121 C 
BRANCH  18  19
HETATM   19  C   UNL     1       3.169  27.855  48.270  1.00  0.00    -0.048 A 
HETATM   20  C   UNL     1       2.634  26.618  47.878  1.00  0.00     0.009 A 
HETATM   21  C   UNL     1       1.490  26.562  47.079  1.00  0.00     0.024 A 
HETATM   22  C   UNL     1       0.877  27.742  46.663  1.00  0.00     0.034 A 
HETATM   23 CL   UNL     1      -0.532  27.671  45.678  1.00  0.00    -0.084 Cl
HETATM   24  C   UNL     1       1.399  28.978  47.037  1.00  0.00     0.024 A 
HETATM   25  C   UNL     1       2.543  29.034  47.836  1.00  0.00     0.009 A 
ENDBRANCH  18  19
ENDBRANCH  17  18
ENDBRANCH   7  17
BRANCH   1  26
HETATM   26  C   UNL     1       7.532  24.513  54.168  1.00  0.00     0.203 C 
HETATM   27  O   UNL     1       8.121  25.179  53.310  1.00  0.00    -0.288 OA
BRANCH  26  28
HETATM   28  C   UNL     1       7.710  23.028  54.207  1.00  0.00     0.014 A 
HETATM   29  C   UNL     1       7.652  22.287  55.394  1.00  0.00     0.015 A 
HETATM   30  C   UNL     1       7.851  20.903  55.370  1.00  0.00     0.001 A 
HETATM   31  C   UNL     1       8.108  20.251  54.166  1.00  0.00     0.000 A 
HETATM   32  C   UNL     1       8.163  20.979  52.980  1.00  0.00     0.001 A 
HETATM   33  C   UNL     1       7.964  22.361  52.999  1.00  0.00     0.015 A 
ENDBRANCH  26  28
ENDBRANCH   1  26
TORSDOF 5
ENDMDL
MODEL 8
REMARK VINA RESULT:     -10.0      3.783      8.077
REMARK  5 active torsions:
REMARK  status: ('A' for Active; 'I' for Inactive)
REMARK    1  A    between atoms: C_4  and  C_5 
REMARK    2  A    between atoms: C_5  and  C_6 
REMARK    3  A    between atoms: C_12  and  S_13 
REMARK    4  A    between atoms: S_13  and  C_14 
REMARK    5  A    between atoms: C_14  and  C_15 
ROOT
HETATM    1  C   UNL     1       5.381  28.007  57.096  1.00  0.00     0.283 C 
HETATM    2  O   UNL     1       4.438  27.553  56.140  1.00  0.00    -0.303 OA
HETATM    3  C   UNL     1       4.897  27.791  54.872  1.00  0.00     0.201 A 
HETATM    4  C   UNL     1       4.854  29.068  54.343  1.00  0.00     0.144 A 
HETATM    5  N   UNL     1       5.232  29.237  53.061  1.00  0.00    -0.142 NA
HETATM    6  N   UNL     1       5.649  28.147  52.346  1.00  0.00    -0.122 NA
HETATM    7  C   UNL     1       5.672  26.926  52.928  1.00  0.00     0.212 A 
HETATM    8  N   UNL     1       5.288  26.695  54.194  1.00  0.00    -0.195 NA
HETATM    9  C   UNL     1       4.417  30.236  55.106  1.00  0.00     0.020 A 
HETATM   10  C   UNL     1       4.696  30.359  56.486  1.00  0.00     0.023 A 
HETATM   11  N   UNL     1       5.509  29.479  57.211  1.00  0.00    -0.259 NA
HETATM   12  C   UNL     1       3.706  31.270  54.463  1.00  0.00     0.016 A 
HETATM   13  C   UNL     1       3.292  32.410  55.153  1.00  0.00     0.001 A 
HETATM   14  C   UNL     1       3.604  32.546  56.499  1.00  0.00     0.002 A 
HETATM   15  C   UNL     1       4.315  31.538  57.149  1.00  0.00     0.024 A 
HETATM   16  H   UNL     1       6.493  29.729  57.059  1.00  0.00     0.130 HD
ENDROOT
BRANCH   7  17
HETATM   17  S   UNL     1       6.212  25.526  51.986  1.00  0.00    -0.084 SA
BRANCH  17  18
HETATM   18  C   UNL     1       7.856  25.286  52.727  1.00  0.00     0.121 C 
BRANCH  18  19
HETATM   19  C   UNL     1       7.914  24.007  53.529  1.00  0.00    -0.048 A 
HETATM   20  C   UNL     1       8.100  24.048  54.920  1.00  0.00     0.009 A 
HETATM   21  C   UNL     1       8.165  22.865  55.660  1.00  0.00     0.024 A 
HETATM   22  C   UNL     1       8.050  21.636  55.015  1.00  0.00     0.034 A 
HETATM   23 CL   UNL     1       8.132  20.180  55.928  1.00  0.00    -0.084 Cl
HETATM   24  C   UNL     1       7.873  21.579  53.634  1.00  0.00     0.024 A 
HETATM   25  C   UNL     1       7.807  22.761  52.893  1.00  0.00     0.009 A 
ENDBRANCH  18  19
ENDBRANCH  17  18
ENDBRANCH   7  17
BRANCH   1  26
HETATM   26  C   UNL     1       6.795  27.366  57.013  1.00  0.00     0.203 C 
HETATM   27  O   UNL     1       6.959  26.160  57.225  1.00  0.00    -0.288 OA
BRANCH  26  28
HETATM   28  C   UNL     1       7.964  28.219  56.633  1.00  0.00     0.014 A 
HETATM   29  C   UNL     1       8.349  28.431  55.302  1.00  0.00     0.015 A 
HETATM   30  C   UNL     1       9.466  29.219  55.011  1.00  0.00     0.001 A 
HETATM   31  C   UNL     1      10.205  29.799  56.039  1.00  0.00     0.000 A 
HETATM   32  C   UNL     1       9.827  29.599  57.364  1.00  0.00     0.001 A 
HETATM   33  C   UNL     1       8.711  28.813  57.661  1.00  0.00     0.015 A 
ENDBRANCH  26  28
ENDBRANCH   1  26
TORSDOF 5
ENDMDL
MODEL 9
REMARK VINA RESULT:      -9.9      3.328      6.733
REMARK  5 active torsions:
REMARK  status: ('A' for Active; 'I' for Inactive)
REMARK    1  A    between atoms: C_4  and  C_5 
REMARK    2  A    between atoms: C_5  and  C_6 
REMARK    3  A    between atoms: C_12  and  S_13 
REMARK    4  A    between atoms: S_13  and  C_14 
REMARK    5  A    between atoms: C_14  and  C_15 
ROOT
HETATM    1  C   UNL     1       5.577  26.028  51.038  1.00  0.00     0.283 C 
HETATM    2  O   UNL     1       6.003  27.378  51.085  1.00  0.00    -0.303 OA
HETATM    3  C   UNL     1       5.058  28.153  51.704  1.00  0.00     0.201 A 
HETATM    4  C   UNL     1       3.905  28.516  51.033  1.00  0.00     0.144 A 
HETATM    5  N   UNL     1       3.048  29.351  51.650  1.00  0.00    -0.142 NA
HETATM    6  N   UNL     1       3.348  29.794  52.909  1.00  0.00    -0.122 NA
HETATM    7  C   UNL     1       4.492  29.395  53.510  1.00  0.00     0.212 A 
HETATM    8  N   UNL     1       5.392  28.580  52.937  1.00  0.00    -0.195 NA
HETATM    9  C   UNL     1       3.577  28.038  49.691  1.00  0.00     0.020 A 
HETATM   10  C   UNL     1       3.917  26.732  49.271  1.00  0.00     0.023 A 
HETATM   11  N   UNL     1       4.459  25.748  50.107  1.00  0.00    -0.259 NA
HETATM   12  C   UNL     1       2.902  28.886  48.788  1.00  0.00     0.016 A 
HETATM   13  C   UNL     1       2.552  28.457  47.507  1.00  0.00     0.001 A 
HETATM   14  C   UNL     1       2.852  27.161  47.113  1.00  0.00     0.002 A 
HETATM   15  C   UNL     1       3.510  26.305  47.996  1.00  0.00     0.024 A 
HETATM   16  H   UNL     1       3.700  25.305  50.640  1.00  0.00     0.130 HD
ENDROOT
BRANCH   7  17
HETATM   17  S   UNL     1       4.865  29.981  55.140  1.00  0.00    -0.084 SA
BRANCH  17  18
HETATM   18  C   UNL     1       4.238  28.576  56.111  1.00  0.00     0.121 C 
BRANCH  18  19
HETATM   19  C   UNL     1       5.360  27.659  56.535  1.00  0.00    -0.048 A 
HETATM   20  C   UNL     1       6.697  28.074  56.428  1.00  0.00     0.009 A 
HETATM   21  C   UNL     1       7.736  27.221  56.810  1.00  0.00     0.024 A 
HETATM   22  C   UNL     1       7.445  25.948  57.294  1.00  0.00     0.034 A 
HETATM   23 CL   UNL     1       8.726  24.898  57.762  1.00  0.00    -0.084 Cl
HETATM   24  C   UNL     1       6.124  25.518  57.399  1.00  0.00     0.024 A 
HETATM   25  C   UNL     1       5.085  26.370  57.018  1.00  0.00     0.009 A 
ENDBRANCH  18  19
ENDBRANCH  17  18
ENDBRANCH   7  17
BRANCH   1  26
HETATM   26  C   UNL     1       5.291  25.358  52.412  1.00  0.00     0.203 C 
HETATM   27  O   UNL     1       4.206  25.515  52.982  1.00  0.00    -0.288 OA
BRANCH  26  28
HETATM   28  C   UNL     1       6.334  24.481  53.030  1.00  0.00     0.014 A 
HETATM   29  C   UNL     1       6.255  24.023  54.352  1.00  0.00     0.015 A 
HETATM   30  C   UNL     1       7.274  23.226  54.881  1.00  0.00     0.001 A 
HETATM   31  C   UNL     1       8.374  22.879  54.099  1.00  0.00     0.000 A 
HETATM   32  C   UNL     1       8.457  23.324  52.782  1.00  0.00     0.001 A 
HETATM   33  C   UNL     1       7.442  24.121  52.249  1.00  0.00     0.015 A 
ENDBRANCH  26  28
ENDBRANCH   1  26
TORSDOF 5
ENDMDL
MODEL 10
REMARK VINA RESULT:      -9.7      4.417      8.539
REMARK  5 active torsions:
REMARK  status: ('A' for Active; 'I' for Inactive)
REMARK    1  A    between atoms: C_4  and  C_5 
REMARK    2  A    between atoms: C_5  and  C_6 
REMARK    3  A    between atoms: C_12  and  S_13 
REMARK    4  A    between atoms: S_13  and  C_14 
REMARK    5  A    between atoms: C_14  and  C_15 
ROOT
HETATM    1  C   UNL     1       5.578  31.988  58.167  1.00  0.00     0.283 C 
HETATM    2  O   UNL     1       6.786  31.808  57.449  1.00  0.00    -0.303 OA
HETATM    3  C   UNL     1       7.191  30.502  57.520  1.00  0.00     0.201 A 
HETATM    4  C   UNL     1       7.777  30.015  58.674  1.00  0.00     0.144 A 
HETATM    5  N   UNL     1       8.239  28.750  58.666  1.00  0.00    -0.142 NA
HETATM    6  N   UNL     1       8.101  28.003  57.528  1.00  0.00    -0.122 NA
HETATM    7  C   UNL     1       7.513  28.541  56.435  1.00  0.00     0.212 A 
HETATM    8  N   UNL     1       7.051  29.800  56.378  1.00  0.00    -0.195 NA
HETATM    9  C   UNL     1       7.918  30.807  59.895  1.00  0.00     0.020 A 
HETATM   10  C   UNL     1       6.932  31.742  60.283  1.00  0.00     0.023 A 
HETATM   11  N   UNL     1       5.698  31.904  59.641  1.00  0.00    -0.259 NA
HETATM   12  C   UNL     1       9.055  30.640  60.713  1.00  0.00     0.016 A 
HETATM   13  C   UNL     1       9.213  31.362  61.897  1.00  0.00     0.001 A 
HETATM   14  C   UNL     1       8.223  32.250  62.296  1.00  0.00     0.002 A 
HETATM   15  C   UNL     1       7.088  32.420  61.504  1.00  0.00     0.024 A 
HETATM   16  H   UNL     1       5.048  31.183  59.976  1.00  0.00     0.130 HD
ENDROOT
BRANCH   7  17
HETATM   17  S   UNL     1       7.345  27.559  54.970  1.00  0.00    -0.084 SA
BRANCH  17  18
HETATM   18  C   UNL     1       6.498  26.113  55.676  1.00  0.00     0.121 C 
BRANCH  18  19
HETATM   19  C   UNL     1       6.928  24.837  54.992  1.00  0.00    -0.048 A 
HETATM   20  C   UNL     1       7.033  24.780  53.594  1.00  0.00     0.009 A 
HETATM   21  C   UNL     1       7.421  23.597  52.961  1.00  0.00     0.024 A 
HETATM   22  C   UNL     1       7.699  22.463  53.720  1.00  0.00     0.034 A 
HETATM   23 CL   UNL     1       8.175  21.006  52.938  1.00  0.00    -0.084 Cl
HETATM   24  C   UNL     1       7.592  22.501  55.109  1.00  0.00     0.024 A 
HETATM   25  C   UNL     1       7.205  23.684  55.743  1.00  0.00     0.009 A 
ENDBRANCH  18  19
ENDBRANCH  17  18
ENDBRANCH   7  17
BRANCH   1  26
HETATM   26  C   UNL     1       4.372  31.129  57.693  1.00  0.00     0.203 C 
HETATM   27  O   UNL     1       3.887  30.258  58.422  1.00  0.00    -0.288 OA
BRANCH  26  28
HETATM   28  C   UNL     1       3.771  31.390  56.348  1.00  0.00     0.014 A 
HETATM   29  C   UNL     1       3.869  30.485  55.283  1.00  0.00     0.015 A 
HETATM   30  C   UNL     1       3.307  30.797  54.041  1.00  0.00     0.001 A 
HETATM   31  C   UNL     1       2.645  32.008  53.853  1.00  0.00     0.000 A 
HETATM   32  C   UNL     1       2.538  32.912  54.908  1.00  0.00     0.001 A 
HETATM   33  C   UNL     1       3.097  32.605  56.150  1.00  0.00     0.015 A 
ENDBRANCH  26  28
ENDBRANCH   1  26
TORSDOF 5
ENDMDL
