MODEL 1
REMARK VINA RESULT:     -10.9      0.000      0.000
REMARK  7 active torsions:
REMARK  status: ('A' for Active; 'I' for Inactive)
REMARK    1  A    between atoms: C_1  and  C_2 
REMARK    2  A    between atoms: C_1  and  O_9 
REMARK    3  A    between atoms: C_2  and  N_3 
REMARK    4  A    between atoms: O_9  and  C_10 
REMARK    5  A    between atoms: C_15  and  C_31 
REMARK    6  A    between atoms: C_17  and  N_18 
REMARK    7  A    between atoms: N_18  and  C_19 
ROOT
HETATM    1  C   UNL     1       6.220  28.023  57.012  1.00  0.00     0.069 A 
HETATM    2  C   UNL     1       7.176  27.353  57.765  1.00  0.00     0.039 A 
HETATM    3  C   UNL     1       7.624  26.090  57.360  1.00  0.00     0.035 A 
HETATM    4  C   UNL     1       7.142  25.467  56.217  1.00  0.00     0.073 A 
HETATM    5  N   UNL     1       7.626  24.266  55.899  1.00  0.00    -0.228 NA
HETATM    6  C   UNL     1       7.142  23.674  54.795  1.00  0.00     0.162 A 
HETATM    7  N   UNL     1       6.204  24.212  54.003  1.00  0.00    -0.210 NA
HETATM    8  C   UNL     1       5.725  25.426  54.323  1.00  0.00     0.143 A 
HETATM    9  C   UNL     1       6.174  26.128  55.455  1.00  0.00     0.041 A 
HETATM   10  C   UNL     1       5.716  27.406  55.867  1.00  0.00     0.054 A 
ENDROOT
BRANCH   8  11
HETATM   11  N   UNL     1       4.749  26.019  53.477  1.00  0.00    -0.340 N 
HETATM   12  H   UNL     1       4.117  26.576  54.041  1.00  0.00     0.167 HD
BRANCH  11  13
HETATM   13  C   UNL     1       4.969  26.587  52.199  1.00  0.00     0.034 A 
HETATM   14  C   UNL     1       5.376  27.928  52.101  1.00  0.00     0.032 A 
HETATM   15  C   UNL     1       5.565  28.563  50.865  1.00  0.00     0.034 A 
HETATM   16  C   UNL     1       5.299  27.810  49.719  1.00  0.00     0.062 A 
HETATM   17  N   UNL     1       5.373  28.114  48.385  1.00  0.00    -0.278 N 
HETATM   18  C   UNL     1       4.863  26.493  49.769  1.00  0.00     0.013 A 
HETATM   19  H   UNL     1       5.658  28.992  47.966  1.00  0.00     0.189 HD
HETATM   20  N   UNL     1       5.012  27.108  47.569  1.00  0.00    -0.186 NA
HETATM   21  C   UNL     1       4.700  26.122  48.417  1.00  0.00     0.152 A 
HETATM   22  C   UNL     1       4.684  25.876  51.020  1.00  0.00     0.044 A 
ENDBRANCH  11  13
ENDBRANCH   8  11
BRANCH   6  23
HETATM   23  C   UNL     1       7.691  22.358  54.413  1.00  0.00     0.012 A 
HETATM   24  C   UNL     1       8.072  21.408  55.382  1.00  0.00     0.015 A 
HETATM   25  C   UNL     1       8.600  20.165  55.019  1.00  0.00     0.001 A 
HETATM   26  C   UNL     1       8.763  19.841  53.676  1.00  0.00     0.000 A 
HETATM   27  C   UNL     1       8.397  20.758  52.696  1.00  0.00     0.001 A 
HETATM   28  C   UNL     1       7.867  21.999  53.061  1.00  0.00     0.015 A 
ENDBRANCH   6  23
BRANCH   1  29
HETATM   29  O   UNL     1       5.706  29.260  57.278  1.00  0.00    -0.349 OA
BRANCH  29  30
HETATM   30  C   UNL     1       6.547  30.384  56.990  1.00  0.00     0.206 C 
BRANCH  30  31
HETATM   31  C   UNL     1       6.812  31.139  58.305  1.00  0.00     0.299 C 
BRANCH  31  32
HETATM   32  N   UNL     1       7.768  30.464  59.202  1.00  0.00     0.094 N 
HETATM   33  C   UNL     1       9.126  30.324  58.631  1.00  0.00     0.298 C 
HETATM   34  C   UNL     1       9.918  31.642  58.564  1.00  0.00     0.198 C 
HETATM   35  O   UNL     1      10.011  32.258  59.854  1.00  0.00    -0.388 OA
HETATM   36  C   UNL     1       8.707  32.491  60.402  1.00  0.00     0.198 C 
HETATM   37  C   UNL     1       7.891  31.188  60.490  1.00  0.00     0.298 C 
ENDBRANCH  31  32
ENDBRANCH  30  31
ENDBRANCH  29  30
ENDBRANCH   1  29
TORSDOF 7
ENDMDL
MODEL 2
REMARK VINA RESULT:     -10.5      0.992      1.967
REMARK  7 active torsions:
REMARK  status: ('A' for Active; 'I' for Inactive)
REMARK    1  A    between atoms: C_1  and  C_2 
REMARK    2  A    between atoms: C_1  and  O_9 
REMARK    3  A    between atoms: C_2  and  N_3 
REMARK    4  A    between atoms: O_9  and  C_10 
REMARK    5  A    between atoms: C_15  and  C_31 
REMARK    6  A    between atoms: C_17  and  N_18 
REMARK    7  A    between atoms: N_18  and  C_19 
ROOT
HETATM    1  C   UNL     1       6.677  28.360  57.107  1.00  0.00     0.069 A 
HETATM    2  C   UNL     1       7.689  27.699  57.791  1.00  0.00     0.039 A 
HETATM    3  C   UNL     1       8.061  26.405  57.406  1.00  0.00     0.035 A 
HETATM    4  C   UNL     1       7.448  25.743  56.351  1.00  0.00     0.073 A 
HETATM    5  N   UNL     1       7.866  24.514  56.046  1.00  0.00    -0.228 NA
HETATM    6  C   UNL     1       7.256  23.885  55.029  1.00  0.00     0.162 A 
HETATM    7  N   UNL     1       6.255  24.412  54.311  1.00  0.00    -0.210 NA
HETATM    8  C   UNL     1       5.841  25.654  54.617  1.00  0.00     0.143 A 
HETATM    9  C   UNL     1       6.422  26.395  55.660  1.00  0.00     0.041 A 
HETATM   10  C   UNL     1       6.041  27.704  56.052  1.00  0.00     0.054 A 
ENDROOT
BRANCH   8  11
HETATM   11  N   UNL     1       4.798  26.235  53.846  1.00  0.00    -0.340 N 
HETATM   12  H   UNL     1       4.206  26.788  54.455  1.00  0.00     0.167 HD
BRANCH  11  13
HETATM   13  C   UNL     1       4.914  26.800  52.553  1.00  0.00     0.034 A 
HETATM   14  C   UNL     1       4.937  25.955  51.431  1.00  0.00     0.032 A 
HETATM   15  C   UNL     1       5.097  26.448  50.128  1.00  0.00     0.034 A 
HETATM   16  C   UNL     1       5.266  27.828  49.989  1.00  0.00     0.062 A 
HETATM   17  N   UNL     1       5.449  28.623  48.888  1.00  0.00    -0.278 N 
HETATM   18  C   UNL     1       5.283  28.696  51.072  1.00  0.00     0.013 A 
HETATM   19  H   UNL     1       5.490  28.334  47.918  1.00  0.00     0.189 HD
HETATM   20  N   UNL     1       5.593  29.930  49.170  1.00  0.00    -0.186 NA
HETATM   21  C   UNL     1       5.493  29.970  50.502  1.00  0.00     0.152 A 
HETATM   22  C   UNL     1       5.117  28.179  52.369  1.00  0.00     0.044 A 
ENDBRANCH  11  13
ENDBRANCH   8  11
BRANCH   6  23
HETATM   23  C   UNL     1       7.730  22.536  54.659  1.00  0.00     0.012 A 
HETATM   24  C   UNL     1       7.852  22.141  53.312  1.00  0.00     0.015 A 
HETATM   25  C   UNL     1       8.292  20.861  52.963  1.00  0.00     0.001 A 
HETATM   26  C   UNL     1       8.621  19.941  53.953  1.00  0.00     0.000 A 
HETATM   27  C   UNL     1       8.511  20.301  55.292  1.00  0.00     0.001 A 
HETATM   28  C   UNL     1       8.072  21.583  55.639  1.00  0.00     0.015 A 
ENDBRANCH   6  23
BRANCH   1  29
HETATM   29  O   UNL     1       6.224  29.623  57.361  1.00  0.00    -0.349 OA
BRANCH  29  30
HETATM   30  C   UNL     1       7.200  30.590  57.767  1.00  0.00     0.206 C 
BRANCH  30  31
HETATM   31  C   UNL     1       6.723  31.238  59.078  1.00  0.00     0.299 C 
BRANCH  31  32
HETATM   32  N   UNL     1       7.701  32.163  59.682  1.00  0.00     0.094 N 
HETATM   33  C   UNL     1       7.288  32.689  61.002  1.00  0.00     0.298 C 
HETATM   34  C   UNL     1       7.365  31.657  62.141  1.00  0.00     0.198 C 
HETATM   35  O   UNL     1       8.679  31.098  62.246  1.00  0.00    -0.388 OA
HETATM   36  C   UNL     1       9.079  30.498  61.007  1.00  0.00     0.198 C 
HETATM   37  C   UNL     1       9.021  31.508  59.847  1.00  0.00     0.298 C 
ENDBRANCH  31  32
ENDBRANCH  30  31
ENDBRANCH  29  30
ENDBRANCH   1  29
TORSDOF 7
ENDMDL
MODEL 3
REMARK VINA RESULT:     -10.2      2.641      8.001
REMARK  7 active torsions:
REMARK  status: ('A' for Active; 'I' for Inactive)
REMARK    1  A    between atoms: C_1  and  C_2 
REMARK    2  A    between atoms: C_1  and  O_9 
REMARK    3  A    between atoms: C_2  and  N_3 
REMARK    4  A    between atoms: O_9  and  C_10 
REMARK    5  A    between atoms: C_15  and  C_31 
REMARK    6  A    between atoms: C_17  and  N_18 
REMARK    7  A    between atoms: N_18  and  C_19 
ROOT
HETATM    1  C   UNL     1       4.788  27.589  51.899  1.00  0.00     0.069 A 
HETATM    2  C   UNL     1       5.341  26.686  51.001  1.00  0.00     0.039 A 
HETATM    3  C   UNL     1       5.987  25.538  51.474  1.00  0.00     0.035 A 
HETATM    4  C   UNL     1       6.102  25.261  52.830  1.00  0.00     0.073 A 
HETATM    5  N   UNL     1       6.728  24.142  53.197  1.00  0.00    -0.228 NA
HETATM    6  C   UNL     1       6.838  23.895  54.512  1.00  0.00     0.162 A 
HETATM    7  N   UNL     1       6.364  24.702  55.471  1.00  0.00    -0.210 NA
HETATM    8  C   UNL     1       5.728  25.825  55.097  1.00  0.00     0.143 A 
HETATM    9  C   UNL     1       5.556  26.167  53.745  1.00  0.00     0.041 A 
HETATM   10  C   UNL     1       4.905  27.333  53.266  1.00  0.00     0.054 A 
ENDROOT
BRANCH   8  11
HETATM   11  N   UNL     1       5.197  26.676  56.104  1.00  0.00    -0.340 N 
HETATM   12  H   UNL     1       4.701  26.112  56.785  1.00  0.00     0.167 HD
BRANCH  11  13
HETATM   13  C   UNL     1       5.837  27.792  56.695  1.00  0.00     0.034 A 
HETATM   14  C   UNL     1       7.159  27.664  57.153  1.00  0.00     0.032 A 
HETATM   15  C   UNL     1       7.833  28.716  57.791  1.00  0.00     0.034 A 
HETATM   16  C   UNL     1       7.120  29.902  57.981  1.00  0.00     0.062 A 
HETATM   17  N   UNL     1       7.465  31.096  58.558  1.00  0.00    -0.278 N 
HETATM   18  C   UNL     1       5.803  30.060  57.574  1.00  0.00     0.013 A 
HETATM   19  H   UNL     1       8.355  31.349  58.969  1.00  0.00     0.189 HD
HETATM   20  N   UNL     1       6.477  32.009  58.567  1.00  0.00    -0.186 NA
HETATM   21  C   UNL     1       5.466  31.374  57.968  1.00  0.00     0.152 A 
HETATM   22  C   UNL     1       5.148  28.993  56.934  1.00  0.00     0.044 A 
ENDBRANCH  11  13
ENDBRANCH   8  11
BRANCH   6  23
HETATM   23  C   UNL     1       7.501  22.644  54.932  1.00  0.00     0.012 A 
HETATM   24  C   UNL     1       7.883  22.426  56.271  1.00  0.00     0.015 A 
HETATM   25  C   UNL     1       8.519  21.245  56.667  1.00  0.00     0.001 A 
HETATM   26  C   UNL     1       8.791  20.252  55.732  1.00  0.00     0.000 A 
HETATM   27  C   UNL     1       8.425  20.437  54.403  1.00  0.00     0.001 A 
HETATM   28  C   UNL     1       7.788  21.617  54.010  1.00  0.00     0.015 A 
ENDBRANCH   6  23
BRANCH   1  29
HETATM   29  O   UNL     1       4.119  28.737  51.581  1.00  0.00    -0.349 OA
BRANCH  29  30
HETATM   30  C   UNL     1       4.366  29.289  50.282  1.00  0.00     0.206 C 
BRANCH  30  31
HETATM   31  C   UNL     1       3.196  28.903  49.361  1.00  0.00     0.299 C 
BRANCH  31  32
HETATM   32  N   UNL     1       3.533  28.911  47.925  1.00  0.00     0.094 N 
HETATM   33  C   UNL     1       4.609  27.963  47.560  1.00  0.00     0.298 C 
HETATM   34  C   UNL     1       4.180  26.485  47.585  1.00  0.00     0.198 C 
HETATM   35  O   UNL     1       3.046  26.260  46.739  1.00  0.00    -0.388 OA
HETATM   36  C   UNL     1       1.950  27.101  47.121  1.00  0.00     0.198 C 
HETATM   37  C   UNL     1       2.346  28.589  47.098  1.00  0.00     0.298 C 
ENDBRANCH  31  32
ENDBRANCH  30  31
ENDBRANCH  29  30
ENDBRANCH   1  29
TORSDOF 7
ENDMDL
MODEL 4
REMARK VINA RESULT:     -10.2      2.517      5.687
REMARK  7 active torsions:
REMARK  status: ('A' for Active; 'I' for Inactive)
REMARK    1  A    between atoms: C_1  and  C_2 
REMARK    2  A    between atoms: C_1  and  O_9 
REMARK    3  A    between atoms: C_2  and  N_3 
REMARK    4  A    between atoms: O_9  and  C_10 
REMARK    5  A    between atoms: C_15  and  C_31 
REMARK    6  A    between atoms: C_17  and  N_18 
REMARK    7  A    between atoms: N_18  and  C_19 
ROOT
HETATM    1  C   UNL     1       4.518  28.264  53.543  1.00  0.00     0.069 A 
HETATM    2  C   UNL     1       4.489  27.485  52.394  1.00  0.00     0.039 A 
HETATM    3  C   UNL     1       5.097  26.224  52.391  1.00  0.00     0.035 A 
HETATM    4  C   UNL     1       5.742  25.712  53.508  1.00  0.00     0.073 A 
HETATM    5  N   UNL     1       6.291  24.499  53.422  1.00  0.00    -0.228 NA
HETATM    6  C   UNL     1       6.919  24.024  54.510  1.00  0.00     0.162 A 
HETATM    7  N   UNL     1       7.031  24.692  55.666  1.00  0.00    -0.210 NA
HETATM    8  C   UNL     1       6.470  25.910  55.750  1.00  0.00     0.143 A 
HETATM    9  C   UNL     1       5.785  26.490  54.669  1.00  0.00     0.041 A 
HETATM   10  C   UNL     1       5.173  27.770  54.672  1.00  0.00     0.054 A 
ENDROOT
BRANCH   8  11
HETATM   11  N   UNL     1       6.558  26.618  56.980  1.00  0.00    -0.340 N 
HETATM   12  H   UNL     1       6.510  25.956  57.746  1.00  0.00     0.167 HD
BRANCH  11  13
HETATM   13  C   UNL     1       7.408  27.712  57.269  1.00  0.00     0.034 A 
HETATM   14  C   UNL     1       6.889  28.830  57.943  1.00  0.00     0.032 A 
HETATM   15  C   UNL     1       7.666  29.965  58.216  1.00  0.00     0.034 A 
HETATM   16  C   UNL     1       8.986  29.953  57.760  1.00  0.00     0.062 A 
HETATM   17  N   UNL     1       9.995  30.877  57.850  1.00  0.00    -0.278 N 
HETATM   18  C   UNL     1       9.531  28.885  57.062  1.00  0.00     0.013 A 
HETATM   19  H   UNL     1       9.963  31.786  58.296  1.00  0.00     0.189 HD
HETATM   20  N   UNL     1      11.142  30.498  57.259  1.00  0.00    -0.186 NA
HETATM   21  C   UNL     1      10.855  29.285  56.779  1.00  0.00     0.152 A 
HETATM   22  C   UNL     1       8.734  27.756  56.802  1.00  0.00     0.044 A 
ENDBRANCH  11  13
ENDBRANCH   8  11
BRANCH   6  23
HETATM   23  C   UNL     1       7.504  22.670  54.440  1.00  0.00     0.012 A 
HETATM   24  C   UNL     1       7.869  22.087  53.210  1.00  0.00     0.015 A 
HETATM   25  C   UNL     1       8.415  20.801  53.144  1.00  0.00     0.001 A 
HETATM   26  C   UNL     1       8.608  20.064  54.308  1.00  0.00     0.000 A 
HETATM   27  C   UNL     1       8.258  20.612  55.537  1.00  0.00     0.001 A 
HETATM   28  C   UNL     1       7.714  21.899  55.601  1.00  0.00     0.015 A 
ENDBRANCH   6  23
BRANCH   1  29
HETATM   29  O   UNL     1       3.955  29.500  53.695  1.00  0.00    -0.349 OA
BRANCH  29  30
HETATM   30  C   UNL     1       3.961  30.054  55.016  1.00  0.00     0.206 C 
BRANCH  30  31
HETATM   31  C   UNL     1       4.082  31.583  54.899  1.00  0.00     0.299 C 
BRANCH  31  32
HETATM   32  N   UNL     1       3.347  32.325  55.941  1.00  0.00     0.094 N 
HETATM   33  C   UNL     1       3.816  32.044  57.316  1.00  0.00     0.298 C 
HETATM   34  C   UNL     1       5.183  32.666  57.653  1.00  0.00     0.198 C 
HETATM   35  O   UNL     1       5.177  34.081  57.438  1.00  0.00    -0.388 OA
HETATM   36  C   UNL     1       4.813  34.389  56.086  1.00  0.00     0.198 C 
HETATM   37  C   UNL     1       3.443  33.788  55.720  1.00  0.00     0.298 C 
ENDBRANCH  31  32
ENDBRANCH  30  31
ENDBRANCH  29  30
ENDBRANCH   1  29
TORSDOF 7
ENDMDL
MODEL 5
REMARK VINA RESULT:     -10.2      1.751      2.775
REMARK  7 active torsions:
REMARK  status: ('A' for Active; 'I' for Inactive)
REMARK    1  A    between atoms: C_1  and  C_2 
REMARK    2  A    between atoms: C_1  and  O_9 
REMARK    3  A    between atoms: C_2  and  N_3 
REMARK    4  A    between atoms: O_9  and  C_10 
REMARK    5  A    between atoms: C_15  and  C_31 
REMARK    6  A    between atoms: C_17  and  N_18 
REMARK    7  A    between atoms: N_18  and  C_19 
ROOT
HETATM    1  C   UNL     1       6.589  28.427  57.038  1.00  0.00     0.069 A 
HETATM    2  C   UNL     1       7.601  27.815  57.767  1.00  0.00     0.039 A 
HETATM    3  C   UNL     1       7.996  26.509  57.451  1.00  0.00     0.035 A 
HETATM    4  C   UNL     1       7.406  25.788  56.422  1.00  0.00     0.073 A 
HETATM    5  N   UNL     1       7.846  24.551  56.183  1.00  0.00    -0.228 NA
HETATM    6  C   UNL     1       7.258  23.864  55.191  1.00  0.00     0.162 A 
HETATM    7  N   UNL     1       6.259  24.341  54.435  1.00  0.00    -0.210 NA
HETATM    8  C   UNL     1       5.824  25.590  54.675  1.00  0.00     0.143 A 
HETATM    9  C   UNL     1       6.381  26.390  55.687  1.00  0.00     0.041 A 
HETATM   10  C   UNL     1       5.976  27.711  56.010  1.00  0.00     0.054 A 
ENDROOT
BRANCH   8  11
HETATM   11  N   UNL     1       4.783  26.117  53.863  1.00  0.00    -0.340 N 
HETATM   12  H   UNL     1       4.163  26.674  54.441  1.00  0.00     0.167 HD
BRANCH  11  13
HETATM   13  C   UNL     1       4.912  26.643  52.555  1.00  0.00     0.034 A 
HETATM   14  C   UNL     1       4.915  25.766  51.457  1.00  0.00     0.032 A 
HETATM   15  C   UNL     1       5.087  26.218  50.141  1.00  0.00     0.034 A 
HETATM   16  C   UNL     1       5.288  27.588  49.963  1.00  0.00     0.062 A 
HETATM   17  N   UNL     1       5.489  28.347  48.840  1.00  0.00    -0.278 N 
HETATM   18  C   UNL     1       5.325  28.486  51.021  1.00  0.00     0.013 A 
HETATM   19  H   UNL     1       5.524  28.031  47.879  1.00  0.00     0.189 HD
HETATM   20  N   UNL     1       5.663  29.658  49.085  1.00  0.00    -0.186 NA
HETATM   21  C   UNL     1       5.564  29.739  50.415  1.00  0.00     0.152 A 
HETATM   22  C   UNL     1       5.147  28.011  52.332  1.00  0.00     0.044 A 
ENDBRANCH  11  13
ENDBRANCH   8  11
BRANCH   6  23
HETATM   23  C   UNL     1       7.756  22.506  54.894  1.00  0.00     0.012 A 
HETATM   24  C   UNL     1       7.953  22.067  53.570  1.00  0.00     0.015 A 
HETATM   25  C   UNL     1       8.416  20.777  53.289  1.00  0.00     0.001 A 
HETATM   26  C   UNL     1       8.691  19.893  54.326  1.00  0.00     0.000 A 
HETATM   27  C   UNL     1       8.506  20.297  55.645  1.00  0.00     0.001 A 
HETATM   28  C   UNL     1       8.046  21.588  55.923  1.00  0.00     0.015 A 
ENDBRANCH   6  23
BRANCH   1  29
HETATM   29  O   UNL     1       6.115  29.694  57.224  1.00  0.00    -0.349 OA
BRANCH  29  30
HETATM   30  C   UNL     1       6.968  30.606  57.927  1.00  0.00     0.206 C 
BRANCH  30  31
HETATM   31  C   UNL     1       6.083  31.616  58.678  1.00  0.00     0.299 C 
BRANCH  31  32
HETATM   32  N   UNL     1       4.806  31.913  58.004  1.00  0.00     0.094 N 
HETATM   33  C   UNL     1       3.641  31.226  58.604  1.00  0.00     0.298 C 
HETATM   34  C   UNL     1       3.206  31.798  59.965  1.00  0.00     0.198 C 
HETATM   35  O   UNL     1       2.930  33.200  59.875  1.00  0.00    -0.388 OA
HETATM   36  C   UNL     1       4.071  33.913  59.379  1.00  0.00     0.198 C 
HETATM   37  C   UNL     1       4.526  33.369  58.012  1.00  0.00     0.298 C 
ENDBRANCH  31  32
ENDBRANCH  30  31
ENDBRANCH  29  30
ENDBRANCH   1  29
TORSDOF 7
ENDMDL
MODEL 6
REMARK VINA RESULT:     -10.1      1.555      1.862
REMARK  7 active torsions:
REMARK  status: ('A' for Active; 'I' for Inactive)
REMARK    1  A    between atoms: C_1  and  C_2 
REMARK    2  A    between atoms: C_1  and  O_9 
REMARK    3  A    between atoms: C_2  and  N_3 
REMARK    4  A    between atoms: O_9  and  C_10 
REMARK    5  A    between atoms: C_15  and  C_31 
REMARK    6  A    between atoms: C_17  and  N_18 
REMARK    7  A    between atoms: N_18  and  C_19 
ROOT
HETATM    1  C   UNL     1       4.830  27.931  56.154  1.00  0.00     0.069 A 
HETATM    2  C   UNL     1       4.747  26.957  57.141  1.00  0.00     0.039 A 
HETATM    3  C   UNL     1       5.287  25.685  56.913  1.00  0.00     0.035 A 
HETATM    4  C   UNL     1       5.910  25.351  55.719  1.00  0.00     0.073 A 
HETATM    5  N   UNL     1       6.402  24.118  55.585  1.00  0.00    -0.228 NA
HETATM    6  C   UNL     1       6.994  23.809  54.420  1.00  0.00     0.162 A 
HETATM    7  N   UNL     1       7.113  24.657  53.389  1.00  0.00    -0.210 NA
HETATM    8  C   UNL     1       6.622  25.900  53.531  1.00  0.00     0.143 A 
HETATM    9  C   UNL     1       5.992  26.320  54.714  1.00  0.00     0.041 A 
HETATM   10  C   UNL     1       5.442  27.608  54.943  1.00  0.00     0.054 A 
ENDROOT
BRANCH   8  11
HETATM   11  N   UNL     1       6.766  26.817  52.454  1.00  0.00    -0.340 N 
HETATM   12  H   UNL     1       7.711  26.755  52.091  1.00  0.00     0.167 HD
BRANCH  11  13
HETATM   13  C   UNL     1       5.818  27.087  51.438  1.00  0.00     0.034 A 
HETATM   14  C   UNL     1       5.279  28.379  51.324  1.00  0.00     0.032 A 
HETATM   15  C   UNL     1       4.302  28.699  50.370  1.00  0.00     0.034 A 
HETATM   16  C   UNL     1       3.857  27.662  49.547  1.00  0.00     0.062 A 
HETATM   17  N   UNL     1       2.931  27.627  48.538  1.00  0.00    -0.278 N 
HETATM   18  C   UNL     1       4.337  26.364  49.647  1.00  0.00     0.013 A 
HETATM   19  H   UNL     1       2.374  28.395  48.183  1.00  0.00     0.189 HD
HETATM   20  N   UNL     1       2.765  26.412  47.984  1.00  0.00    -0.186 NA
HETATM   21  C   UNL     1       3.623  25.645  48.664  1.00  0.00     0.152 A 
HETATM   22  C   UNL     1       5.319  26.067  50.609  1.00  0.00     0.044 A 
ENDBRANCH  11  13
ENDBRANCH   8  11
BRANCH   6  23
HETATM   23  C   UNL     1       7.572  22.459  54.269  1.00  0.00     0.012 A 
HETATM   24  C   UNL     1       7.836  21.641  55.386  1.00  0.00     0.015 A 
HETATM   25  C   UNL     1       8.392  20.365  55.242  1.00  0.00     0.001 A 
HETATM   26  C   UNL     1       8.699  19.876  53.977  1.00  0.00     0.000 A 
HETATM   27  C   UNL     1       8.449  20.660  52.855  1.00  0.00     0.001 A 
HETATM   28  C   UNL     1       7.892  21.934  53.001  1.00  0.00     0.015 A 
ENDBRANCH   6  23
BRANCH   1  29
HETATM   29  O   UNL     1       4.364  29.212  56.244  1.00  0.00    -0.349 OA
BRANCH  29  30
HETATM   30  C   UNL     1       4.864  30.006  57.327  1.00  0.00     0.206 C 
BRANCH  30  31
HETATM   31  C   UNL     1       6.368  30.241  57.101  1.00  0.00     0.299 C 
BRANCH  31  32
HETATM   32  N   UNL     1       7.223  29.763  58.203  1.00  0.00     0.094 N 
HETATM   33  C   UNL     1       7.656  28.357  58.055  1.00  0.00     0.298 C 
HETATM   34  C   UNL     1       8.718  28.138  56.963  1.00  0.00     0.198 C 
HETATM   35  O   UNL     1       9.867  28.964  57.183  1.00  0.00    -0.388 OA
HETATM   36  C   UNL     1       9.496  30.347  57.243  1.00  0.00     0.198 C 
HETATM   37  C   UNL     1       8.439  30.601  58.334  1.00  0.00     0.298 C 
ENDBRANCH  31  32
ENDBRANCH  30  31
ENDBRANCH  29  30
ENDBRANCH   1  29
TORSDOF 7
ENDMDL
MODEL 7
REMARK VINA RESULT:     -10.0      2.182      3.578
REMARK  7 active torsions:
REMARK  status: ('A' for Active; 'I' for Inactive)
REMARK    1  A    between atoms: C_1  and  C_2 
REMARK    2  A    between atoms: C_1  and  O_9 
REMARK    3  A    between atoms: C_2  and  N_3 
REMARK    4  A    between atoms: O_9  and  C_10 
REMARK    5  A    between atoms: C_15  and  C_31 
REMARK    6  A    between atoms: C_17  and  N_18 
REMARK    7  A    between atoms: N_18  and  C_19 
ROOT
HETATM    1  C   UNL     1       6.584  28.371  57.044  1.00  0.00     0.069 A 
HETATM    2  C   UNL     1       7.594  27.747  57.764  1.00  0.00     0.039 A 
HETATM    3  C   UNL     1       7.988  26.445  57.429  1.00  0.00     0.035 A 
HETATM    4  C   UNL     1       7.397  25.740  56.389  1.00  0.00     0.073 A 
HETATM    5  N   UNL     1       7.835  24.506  56.132  1.00  0.00    -0.228 NA
HETATM    6  C   UNL     1       7.246  23.835  55.129  1.00  0.00     0.162 A 
HETATM    7  N   UNL     1       6.248  24.325  54.380  1.00  0.00    -0.210 NA
HETATM    8  C   UNL     1       5.815  25.571  54.639  1.00  0.00     0.143 A 
HETATM    9  C   UNL     1       6.373  26.355  55.662  1.00  0.00     0.041 A 
HETATM   10  C   UNL     1       5.971  27.672  56.004  1.00  0.00     0.054 A 
ENDROOT
BRANCH   8  11
HETATM   11  N   UNL     1       4.775  26.112  53.834  1.00  0.00    -0.340 N 
HETATM   12  H   UNL     1       4.170  26.680  54.416  1.00  0.00     0.167 HD
BRANCH  11  13
HETATM   13  C   UNL     1       4.901  26.631  52.523  1.00  0.00     0.034 A 
HETATM   14  C   UNL     1       4.883  25.751  51.429  1.00  0.00     0.032 A 
HETATM   15  C   UNL     1       5.051  26.196  50.109  1.00  0.00     0.034 A 
HETATM   16  C   UNL     1       5.269  27.563  49.925  1.00  0.00     0.062 A 
HETATM   17  N   UNL     1       5.472  28.316  48.798  1.00  0.00    -0.278 N 
HETATM   18  C   UNL     1       5.328  28.464  50.980  1.00  0.00     0.013 A 
HETATM   19  H   UNL     1       5.495  27.995  47.837  1.00  0.00     0.189 HD
HETATM   20  N   UNL     1       5.667  29.625  49.037  1.00  0.00    -0.186 NA
HETATM   21  C   UNL     1       5.580  29.711  50.368  1.00  0.00     0.152 A 
HETATM   22  C   UNL     1       5.154  27.995  52.294  1.00  0.00     0.044 A 
ENDBRANCH  11  13
ENDBRANCH   8  11
BRANCH   6  23
HETATM   23  C   UNL     1       7.741  22.481  54.812  1.00  0.00     0.012 A 
HETATM   24  C   UNL     1       8.072  21.561  55.827  1.00  0.00     0.015 A 
HETATM   25  C   UNL     1       8.549  20.281  55.526  1.00  0.00     0.001 A 
HETATM   26  C   UNL     1       8.710  19.890  54.201  1.00  0.00     0.000 A 
HETATM   27  C   UNL     1       8.392  20.776  53.177  1.00  0.00     0.001 A 
HETATM   28  C   UNL     1       7.913  22.054  53.480  1.00  0.00     0.015 A 
ENDBRANCH   6  23
BRANCH   1  29
HETATM   29  O   UNL     1       6.112  29.636  57.249  1.00  0.00    -0.349 OA
BRANCH  29  30
HETATM   30  C   UNL     1       4.688  29.793  57.305  1.00  0.00     0.206 C 
BRANCH  30  31
HETATM   31  C   UNL     1       4.306  31.041  56.492  1.00  0.00     0.299 C 
BRANCH  31  32
HETATM   32  N   UNL     1       3.100  30.870  55.660  1.00  0.00     0.094 N 
HETATM   33  C   UNL     1       2.289  32.100  55.525  1.00  0.00     0.298 C 
HETATM   34  C   UNL     1       2.921  33.172  54.619  1.00  0.00     0.198 C 
HETATM   35  O   UNL     1       3.205  32.650  53.317  1.00  0.00    -0.388 OA
HETATM   36  C   UNL     1       4.064  31.506  53.403  1.00  0.00     0.198 C 
HETATM   37  C   UNL     1       3.455  30.410  54.297  1.00  0.00     0.298 C 
ENDBRANCH  31  32
ENDBRANCH  30  31
ENDBRANCH  29  30
ENDBRANCH   1  29
TORSDOF 7
ENDMDL
MODEL 8
REMARK VINA RESULT:     -10.0      2.712      6.297
REMARK  7 active torsions:
REMARK  status: ('A' for Active; 'I' for Inactive)
REMARK    1  A    between atoms: C_1  and  C_2 
REMARK    2  A    between atoms: C_1  and  O_9 
REMARK    3  A    between atoms: C_2  and  N_3 
REMARK    4  A    between atoms: O_9  and  C_10 
REMARK    5  A    between atoms: C_15  and  C_31 
REMARK    6  A    between atoms: C_17  and  N_18 
REMARK    7  A    between atoms: N_18  and  C_19 
ROOT
HETATM    1  C   UNL     1       4.372  27.926  51.843  1.00  0.00     0.069 A 
HETATM    2  C   UNL     1       4.834  27.112  50.816  1.00  0.00     0.039 A 
HETATM    3  C   UNL     1       5.523  25.931  51.119  1.00  0.00     0.035 A 
HETATM    4  C   UNL     1       5.771  25.535  52.426  1.00  0.00     0.073 A 
HETATM    5  N   UNL     1       6.430  24.392  52.627  1.00  0.00    -0.228 NA
HETATM    6  C   UNL     1       6.669  24.029  53.897  1.00  0.00     0.162 A 
HETATM    7  N   UNL     1       6.292  24.743  54.967  1.00  0.00    -0.210 NA
HETATM    8  C   UNL     1       5.622  25.889  54.760  1.00  0.00     0.143 A 
HETATM    9  C   UNL     1       5.318  26.350  53.468  1.00  0.00     0.041 A 
HETATM   10  C   UNL     1       4.624  27.549  53.162  1.00  0.00     0.054 A 
ENDROOT
BRANCH   8  11
HETATM   11  N   UNL     1       5.193  26.642  55.887  1.00  0.00    -0.340 N 
HETATM   12  H   UNL     1       4.735  26.020  56.544  1.00  0.00     0.167 HD
BRANCH  11  13
HETATM   13  C   UNL     1       5.908  27.677  56.537  1.00  0.00     0.034 A 
HETATM   14  C   UNL     1       7.232  27.449  56.946  1.00  0.00     0.032 A 
HETATM   15  C   UNL     1       7.978  28.415  57.636  1.00  0.00     0.034 A 
HETATM   16  C   UNL     1       7.335  29.619  57.931  1.00  0.00     0.062 A 
HETATM   17  N   UNL     1       7.759  30.749  58.581  1.00  0.00    -0.278 N 
HETATM   18  C   UNL     1       6.018  29.875  57.575  1.00  0.00     0.013 A 
HETATM   19  H   UNL     1       8.672  30.926  58.982  1.00  0.00     0.189 HD
HETATM   20  N   UNL     1       6.822  31.709  58.683  1.00  0.00    -0.186 NA
HETATM   21  C   UNL     1       5.763  31.173  58.070  1.00  0.00     0.152 A 
HETATM   22  C   UNL     1       5.291  28.893  56.881  1.00  0.00     0.044 A 
ENDBRANCH  11  13
ENDBRANCH   8  11
BRANCH   6  23
HETATM   23  C   UNL     1       7.369  22.751  54.136  1.00  0.00     0.012 A 
HETATM   24  C   UNL     1       7.886  21.984  53.073  1.00  0.00     0.015 A 
HETATM   25  C   UNL     1       8.542  20.770  53.300  1.00  0.00     0.001 A 
HETATM   26  C   UNL     1       8.696  20.290  54.596  1.00  0.00     0.000 A 
HETATM   27  C   UNL     1       8.196  21.025  55.667  1.00  0.00     0.001 A 
HETATM   28  C   UNL     1       7.543  22.240  55.438  1.00  0.00     0.015 A 
ENDBRANCH   6  23
BRANCH   1  29
HETATM   29  O   UNL     1       3.675  29.091  51.696  1.00  0.00    -0.349 OA
BRANCH  29  30
HETATM   30  C   UNL     1       4.376  30.305  51.996  1.00  0.00     0.206 C 
BRANCH  30  31
HETATM   31  C   UNL     1       3.351  31.355  52.457  1.00  0.00     0.299 C 
BRANCH  31  32
HETATM   32  N   UNL     1       3.867  32.294  53.470  1.00  0.00     0.094 N 
HETATM   33  C   UNL     1       2.974  33.446  53.725  1.00  0.00     0.298 C 
HETATM   34  C   UNL     1       1.700  33.091  54.513  1.00  0.00     0.198 C 
HETATM   35  O   UNL     1       2.020  32.458  55.758  1.00  0.00    -0.388 OA
HETATM   36  C   UNL     1       2.813  31.283  55.543  1.00  0.00     0.198 C 
HETATM   37  C   UNL     1       4.100  31.607  54.763  1.00  0.00     0.298 C 
ENDBRANCH  31  32
ENDBRANCH  30  31
ENDBRANCH  29  30
ENDBRANCH   1  29
TORSDOF 7
ENDMDL
MODEL 9
REMARK VINA RESULT:     -10.0      1.581      2.098
REMARK  7 active torsions:
REMARK  status: ('A' for Active; 'I' for Inactive)
REMARK    1  A    between atoms: C_1  and  C_2 
REMARK    2  A    between atoms: C_1  and  O_9 
REMARK    3  A    between atoms: C_2  and  N_3 
REMARK    4  A    between atoms: O_9  and  C_10 
REMARK    5  A    between atoms: C_15  and  C_31 
REMARK    6  A    between atoms: C_17  and  N_18 
REMARK    7  A    between atoms: N_18  and  C_19 
ROOT
HETATM    1  C   UNL     1       6.773  29.198  57.401  1.00  0.00     0.069 A 
HETATM    2  C   UNL     1       7.887  28.519  57.877  1.00  0.00     0.039 A 
HETATM    3  C   UNL     1       8.177  27.235  57.403  1.00  0.00     0.035 A 
HETATM    4  C   UNL     1       7.381  26.599  56.460  1.00  0.00     0.073 A 
HETATM    5  N   UNL     1       7.732  25.376  56.056  1.00  0.00    -0.228 NA
HETATM    6  C   UNL     1       6.946  24.773  55.151  1.00  0.00     0.162 A 
HETATM    7  N   UNL     1       5.835  25.318  54.636  1.00  0.00    -0.210 NA
HETATM    8  C   UNL     1       5.490  26.553  55.040  1.00  0.00     0.143 A 
HETATM    9  C   UNL     1       6.253  27.268  55.978  1.00  0.00     0.041 A 
HETATM   10  C   UNL     1       5.955  28.569  56.462  1.00  0.00     0.054 A 
ENDROOT
BRANCH   8  11
HETATM   11  N   UNL     1       4.329  27.154  54.481  1.00  0.00    -0.340 N 
HETATM   12  H   UNL     1       3.846  27.675  55.204  1.00  0.00     0.167 HD
BRANCH  11  13
HETATM   13  C   UNL     1       4.222  27.773  53.212  1.00  0.00     0.034 A 
HETATM   14  C   UNL     1       3.285  28.802  53.024  1.00  0.00     0.032 A 
HETATM   15  C   UNL     1       3.096  29.423  51.781  1.00  0.00     0.034 A 
HETATM   16  C   UNL     1       3.866  28.952  50.715  1.00  0.00     0.062 A 
HETATM   17  N   UNL     1       3.929  29.321  49.397  1.00  0.00    -0.278 N 
HETATM   18  C   UNL     1       4.780  27.916  50.848  1.00  0.00     0.013 A 
HETATM   19  H   UNL     1       3.401  30.051  48.934  1.00  0.00     0.189 HD
HETATM   20  N   UNL     1       4.800  28.604  48.665  1.00  0.00    -0.186 NA
HETATM   21  C   UNL     1       5.315  27.748  49.552  1.00  0.00     0.152 A 
HETATM   22  C   UNL     1       4.954  27.310  52.105  1.00  0.00     0.044 A 
ENDBRANCH  11  13
ENDBRANCH   8  11
BRANCH   6  23
HETATM   23  C   UNL     1       7.338  23.432  54.671  1.00  0.00     0.012 A 
HETATM   24  C   UNL     1       7.541  22.360  55.563  1.00  0.00     0.015 A 
HETATM   25  C   UNL     1       7.921  21.093  55.109  1.00  0.00     0.001 A 
HETATM   26  C   UNL     1       8.110  20.867  53.750  1.00  0.00     0.000 A 
HETATM   27  C   UNL     1       7.918  21.905  52.844  1.00  0.00     0.001 A 
HETATM   28  C   UNL     1       7.535  23.170  53.300  1.00  0.00     0.015 A 
ENDBRANCH   6  23
BRANCH   1  29
HETATM   29  O   UNL     1       6.380  30.456  57.761  1.00  0.00    -0.349 OA
BRANCH  29  30
HETATM   30  C   UNL     1       7.348  31.266  58.439  1.00  0.00     0.206 C 
BRANCH  30  31
HETATM   31  C   UNL     1       6.724  31.769  59.752  1.00  0.00     0.299 C 
BRANCH  31  32
HETATM   32  N   UNL     1       7.582  32.702  60.506  1.00  0.00     0.094 N 
HETATM   33  C   UNL     1       6.967  33.199  61.757  1.00  0.00     0.298 C 
HETATM   34  C   UNL     1       6.896  32.151  62.881  1.00  0.00     0.198 C 
HETATM   35  O   UNL     1       8.191  31.614  63.173  1.00  0.00    -0.388 OA
HETATM   36  C   UNL     1       8.782  31.042  61.999  1.00  0.00     0.198 C 
HETATM   37  C   UNL     1       8.876  32.070  60.857  1.00  0.00     0.298 C 
ENDBRANCH  31  32
ENDBRANCH  30  31
ENDBRANCH  29  30
ENDBRANCH   1  29
TORSDOF 7
ENDMDL
MODEL 10
REMARK VINA RESULT:      -9.6      3.409      7.992
REMARK  7 active torsions:
REMARK  status: ('A' for Active; 'I' for Inactive)
REMARK    1  A    between atoms: C_1  and  C_2 
REMARK    2  A    between atoms: C_1  and  O_9 
REMARK    3  A    between atoms: C_2  and  N_3 
REMARK    4  A    between atoms: O_9  and  C_10 
REMARK    5  A    between atoms: C_15  and  C_31 
REMARK    6  A    between atoms: C_17  and  N_18 
REMARK    7  A    between atoms: N_18  and  C_19 
ROOT
HETATM    1  C   UNL     1       4.610  28.180  51.170  1.00  0.00     0.069 A 
HETATM    2  C   UNL     1       4.807  27.131  50.282  1.00  0.00     0.039 A 
HETATM    3  C   UNL     1       5.378  25.934  50.731  1.00  0.00     0.035 A 
HETATM    4  C   UNL     1       5.765  25.751  52.051  1.00  0.00     0.073 A 
HETATM    5  N   UNL     1       6.296  24.578  52.398  1.00  0.00    -0.228 NA
HETATM    6  C   UNL     1       6.673  24.421  53.677  1.00  0.00     0.162 A 
HETATM    7  N   UNL     1       6.553  25.367  54.619  1.00  0.00    -0.210 NA
HETATM    8  C   UNL     1       6.010  26.545  54.266  1.00  0.00     0.143 A 
HETATM    9  C   UNL     1       5.579  26.802  52.954  1.00  0.00     0.041 A 
HETATM   10  C   UNL     1       5.004  28.017  52.498  1.00  0.00     0.054 A 
ENDROOT
BRANCH   8  11
HETATM   11  N   UNL     1       5.853  27.549  55.261  1.00  0.00    -0.340 N 
HETATM   12  H   UNL     1       5.046  27.323  55.832  1.00  0.00     0.167 HD
BRANCH  11  13
HETATM   13  C   UNL     1       6.882  28.171  56.008  1.00  0.00     0.034 A 
HETATM   14  C   UNL     1       6.660  28.484  57.359  1.00  0.00     0.032 A 
HETATM   15  C   UNL     1       7.620  29.143  58.141  1.00  0.00     0.034 A 
HETATM   16  C   UNL     1       8.810  29.507  57.508  1.00  0.00     0.062 A 
HETATM   17  N   UNL     1       9.931  30.151  57.963  1.00  0.00    -0.278 N 
HETATM   18  C   UNL     1       9.058  29.247  56.167  1.00  0.00     0.013 A 
HETATM   19  H   UNL     1      10.109  30.493  58.900  1.00  0.00     0.189 HD
HETATM   20  N   UNL     1      10.877  30.339  57.026  1.00  0.00    -0.186 NA
HETATM   21  C   UNL     1      10.342  29.788  55.933  1.00  0.00     0.152 A 
HETATM   22  C   UNL     1       8.082  28.583  55.404  1.00  0.00     0.044 A 
ENDBRANCH  11  13
ENDBRANCH   8  11
BRANCH   6  23
HETATM   23  C   UNL     1       7.234  23.116  54.083  1.00  0.00     0.012 A 
HETATM   24  C   UNL     1       7.412  22.781  55.440  1.00  0.00     0.015 A 
HETATM   25  C   UNL     1       7.951  21.548  55.824  1.00  0.00     0.001 A 
HETATM   26  C   UNL     1       8.328  20.621  54.858  1.00  0.00     0.000 A 
HETATM   27  C   UNL     1       8.165  20.923  53.510  1.00  0.00     0.001 A 
HETATM   28  C   UNL     1       7.624  22.155  53.129  1.00  0.00     0.015 A 
ENDBRANCH   6  23
BRANCH   1  29
HETATM   29  O   UNL     1       4.052  29.392  50.876  1.00  0.00    -0.349 OA
BRANCH  29  30
HETATM   30  C   UNL     1       3.556  29.568  49.544  1.00  0.00     0.206 C 
BRANCH  30  31
HETATM   31  C   UNL     1       4.559  30.436  48.764  1.00  0.00     0.299 C 
BRANCH  31  32
HETATM   32  N   UNL     1       3.974  31.663  48.193  1.00  0.00     0.094 N 
HETATM   33  C   UNL     1       4.811  32.291  47.147  1.00  0.00     0.298 C 
HETATM   34  C   UNL     1       4.832  31.524  45.813  1.00  0.00     0.198 C 
HETATM   35  O   UNL     1       3.507  31.333  45.304  1.00  0.00    -0.388 OA
HETATM   36  C   UNL     1       2.689  30.645  46.259  1.00  0.00     0.198 C 
HETATM   37  C   UNL     1       2.641  31.393  47.604  1.00  0.00     0.298 C 
ENDBRANCH  31  32
ENDBRANCH  30  31
ENDBRANCH  29  30
ENDBRANCH   1  29
TORSDOF 7
ENDMDL
