MODEL 1
REMARK VINA RESULT:      -9.7      0.000      0.000
REMARK  3 active torsions:
REMARK  status: ('A' for Active; 'I' for Inactive)
REMARK    1  A    between atoms: C_2  and  O_3 
REMARK    2  A    between atoms: O_3  and  C_4 
REMARK    3  A    between atoms: C_5  and  N_6 
REMARK       I    between atoms: N_6  and  C_7 
REMARK       I    between atoms: C_7  and  N_8 
ROOT
HETATM    1  N   UNL     1       7.840  28.470  56.501  1.00  0.00    -0.306 N 
HETATM    2  C   UNL     1       7.759  27.183  57.009  1.00  0.00     0.323 C 
HETATM    3  N   UNL     1       7.107  26.286  56.172  1.00  0.00    -0.328 N 
HETATM    4  C   UNL     1       6.716  24.990  56.739  1.00  0.00     0.185 C 
HETATM    5  C   UNL     1       7.150  23.916  55.808  1.00  0.00     0.035 A 
HETATM    6  C   UNL     1       7.592  24.070  54.510  1.00  0.00    -0.020 A 
HETATM    7  C   UNL     1       7.717  25.422  53.896  1.00  0.00     0.061 C 
HETATM    8  C   UNL     1       6.909  26.456  54.716  1.00  0.00     0.132 C 
HETATM    9  N   UNL     1       7.182  22.586  56.118  1.00  0.00    -0.357 N 
HETATM   10  H   UNL     1       6.933  22.182  57.011  1.00  0.00     0.166 HD
HETATM   11  C   UNL     1       7.636  21.865  55.034  1.00  0.00     0.043 A 
HETATM   12  C   UNL     1       7.901  22.777  54.006  1.00  0.00    -0.001 A 
HETATM   13  C   UNL     1       7.840  20.488  54.894  1.00  0.00     0.030 A 
HETATM   14  C   UNL     1       8.329  20.026  53.669  1.00  0.00     0.002 A 
HETATM   15  C   UNL     1       8.603  20.910  52.628  1.00  0.00     0.001 A 
HETATM   16  C   UNL     1       8.394  22.286  52.782  1.00  0.00     0.014 A 
HETATM   17  O   UNL     1       8.121  26.873  58.140  1.00  0.00    -0.247 OA
HETATM   18  H   UNL     1       6.959  28.742  56.091  1.00  0.00     0.171 HD
ENDROOT
BRANCH   1  19
HETATM   19  C   UNL     1       8.491  29.485  57.249  1.00  0.00     0.069 C 
HETATM   20  C   UNL     1       7.786  30.376  58.079  1.00  0.00     0.096 C 
HETATM   21  C   UNL     1       8.461  31.456  58.648  1.00  0.00     0.039 C 
HETATM   22  C   UNL     1       9.842  31.590  58.488  1.00  0.00     0.003 C 
HETATM   23  C   UNL     1      10.554  30.647  57.752  1.00  0.00     0.002 C 
HETATM   24  C   UNL     1       9.881  29.592  57.135  1.00  0.00     0.032 C 
BRANCH  20  25
HETATM   25  O   UNL     1       6.451  30.167  58.271  1.00  0.00    -0.339 OA
BRANCH  25  26
HETATM   26  C   UNL     1       5.481  31.121  57.793  1.00  0.00     0.057 C 
HETATM   27  C   UNL     1       5.623  31.238  56.270  1.00  0.00     0.045 C 
HETATM   28  C   UNL     1       5.490  32.512  58.453  1.00  0.00     0.045 C 
HETATM   29  C   UNL     1       4.117  30.477  58.103  1.00  0.00     0.045 C 
ENDBRANCH  25  26
ENDBRANCH  20  25
ENDBRANCH   1  19
TORSDOF 3
ENDMDL
MODEL 2
REMARK VINA RESULT:      -9.2      4.460      6.167
REMARK  3 active torsions:
REMARK  status: ('A' for Active; 'I' for Inactive)
REMARK    1  A    between atoms: C_2  and  O_3 
REMARK    2  A    between atoms: O_3  and  C_4 
REMARK    3  A    between atoms: C_5  and  N_6 
REMARK       I    between atoms: N_6  and  C_7 
REMARK       I    between atoms: C_7  and  N_8 
ROOT
HETATM    1  N   UNL     1       4.737  28.287  52.192  1.00  0.00    -0.306 N 
HETATM    2  C   UNL     1       5.736  27.919  53.080  1.00  0.00     0.323 C 
HETATM    3  N   UNL     1       5.562  26.657  53.634  1.00  0.00    -0.328 N 
HETATM    4  C   UNL     1       6.395  26.302  54.789  1.00  0.00     0.185 C 
HETATM    5  C   UNL     1       6.986  24.960  54.552  1.00  0.00     0.035 A 
HETATM    6  C   UNL     1       6.629  24.055  53.573  1.00  0.00    -0.020 A 
HETATM    7  C   UNL     1       5.571  24.382  52.574  1.00  0.00     0.061 C 
HETATM    8  C   UNL     1       4.723  25.577  53.069  1.00  0.00     0.132 C 
HETATM    9  N   UNL     1       8.003  24.418  55.287  1.00  0.00    -0.357 N 
HETATM   10  H   UNL     1       8.478  24.868  56.057  1.00  0.00     0.166 HD
HETATM   11  C   UNL     1       8.313  23.165  54.801  1.00  0.00     0.043 A 
HETATM   12  C   UNL     1       7.461  22.912  53.721  1.00  0.00    -0.001 A 
HETATM   13  C   UNL     1       9.283  22.252  55.229  1.00  0.00     0.030 A 
HETATM   14  C   UNL     1       9.388  21.045  54.534  1.00  0.00     0.002 A 
HETATM   15  C   UNL     1       8.554  20.765  53.454  1.00  0.00     0.001 A 
HETATM   16  C   UNL     1       7.587  21.688  53.037  1.00  0.00     0.014 A 
HETATM   17  O   UNL     1       6.637  28.670  53.443  1.00  0.00    -0.247 OA
HETATM   18  H   UNL     1       3.832  28.040  52.562  1.00  0.00     0.171 HD
ENDROOT
BRANCH   1  19
HETATM   19  C   UNL     1       4.798  29.548  51.544  1.00  0.00     0.069 C 
HETATM   20  C   UNL     1       5.359  29.709  50.265  1.00  0.00     0.096 C 
HETATM   21  C   UNL     1       5.546  30.996  49.759  1.00  0.00     0.039 C 
HETATM   22  C   UNL     1       5.080  32.107  50.466  1.00  0.00     0.003 C 
HETATM   23  C   UNL     1       4.430  31.937  51.685  1.00  0.00     0.002 C 
HETATM   24  C   UNL     1       4.284  30.658  52.224  1.00  0.00     0.032 C 
BRANCH  20  25
HETATM   25  O   UNL     1       5.733  28.593  49.574  1.00  0.00    -0.339 OA
BRANCH  25  26
HETATM   26  C   UNL     1       4.821  27.957  48.655  1.00  0.00     0.057 C 
HETATM   27  C   UNL     1       5.505  27.851  47.286  1.00  0.00     0.045 C 
HETATM   28  C   UNL     1       3.420  28.582  48.521  1.00  0.00     0.045 C 
HETATM   29  C   UNL     1       4.635  26.534  49.213  1.00  0.00     0.045 C 
ENDBRANCH  25  26
ENDBRANCH  20  25
ENDBRANCH   1  19
TORSDOF 3
ENDMDL
MODEL 3
REMARK VINA RESULT:      -8.8      2.285      4.661
REMARK  3 active torsions:
REMARK  status: ('A' for Active; 'I' for Inactive)
REMARK    1  A    between atoms: C_2  and  O_3 
REMARK    2  A    between atoms: O_3  and  C_4 
REMARK    3  A    between atoms: C_5  and  N_6 
REMARK       I    between atoms: N_6  and  C_7 
REMARK       I    between atoms: C_7  and  N_8 
ROOT
HETATM    1  N   UNL     1       6.662  31.450  58.417  1.00  0.00    -0.306 N 
HETATM    2  C   UNL     1       5.941  30.482  57.736  1.00  0.00     0.323 C 
HETATM    3  N   UNL     1       6.713  29.694  56.890  1.00  0.00    -0.328 N 
HETATM    4  C   UNL     1       6.008  28.849  55.919  1.00  0.00     0.185 C 
HETATM    5  C   UNL     1       6.574  27.477  55.987  1.00  0.00     0.035 A 
HETATM    6  C   UNL     1       7.733  27.087  56.626  1.00  0.00    -0.020 A 
HETATM    7  C   UNL     1       8.557  28.067  57.390  1.00  0.00     0.061 C 
HETATM    8  C   UNL     1       8.178  29.511  56.984  1.00  0.00     0.132 C 
HETATM    9  N   UNL     1       6.006  26.374  55.417  1.00  0.00    -0.357 N 
HETATM   10  H   UNL     1       5.136  26.358  54.902  1.00  0.00     0.166 HD
HETATM   11  C   UNL     1       6.783  25.264  55.672  1.00  0.00     0.043 A 
HETATM   12  C   UNL     1       7.879  25.686  56.432  1.00  0.00    -0.001 A 
HETATM   13  C   UNL     1       6.592  23.929  55.297  1.00  0.00     0.030 A 
HETATM   14  C   UNL     1       7.547  22.996  55.712  1.00  0.00     0.002 A 
HETATM   15  C   UNL     1       8.648  23.387  56.471  1.00  0.00     0.001 A 
HETATM   16  C   UNL     1       8.826  24.726  56.838  1.00  0.00     0.014 A 
HETATM   17  O   UNL     1       4.718  30.389  57.776  1.00  0.00    -0.247 OA
HETATM   18  H   UNL     1       7.317  31.902  57.796  1.00  0.00     0.171 HD
ENDROOT
BRANCH   1  19
HETATM   19  C   UNL     1       5.999  32.317  59.324  1.00  0.00     0.069 C 
HETATM   20  C   UNL     1       6.130  32.189  60.719  1.00  0.00     0.096 C 
HETATM   21  C   UNL     1       5.318  32.958  61.553  1.00  0.00     0.039 C 
HETATM   22  C   UNL     1       4.465  33.922  61.015  1.00  0.00     0.003 C 
HETATM   23  C   UNL     1       4.413  34.119  59.638  1.00  0.00     0.002 C 
HETATM   24  C   UNL     1       5.183  33.321  58.791  1.00  0.00     0.032 C 
BRANCH  20  25
HETATM   25  O   UNL     1       7.031  31.287  61.206  1.00  0.00    -0.339 OA
BRANCH  25  26
HETATM   26  C   UNL     1       8.339  31.715  61.639  1.00  0.00     0.057 C 
HETATM   27  C   UNL     1       8.199  32.411  62.998  1.00  0.00     0.045 C 
HETATM   28  C   UNL     1       9.147  32.584  60.657  1.00  0.00     0.045 C 
HETATM   29  C   UNL     1       9.127  30.407  61.845  1.00  0.00     0.045 C 
ENDBRANCH  25  26
ENDBRANCH  20  25
ENDBRANCH   1  19
TORSDOF 3
ENDMDL
MODEL 4
REMARK VINA RESULT:      -8.7      1.643      3.388
REMARK  3 active torsions:
REMARK  status: ('A' for Active; 'I' for Inactive)
REMARK    1  A    between atoms: C_2  and  O_3 
REMARK    2  A    between atoms: O_3  and  C_4 
REMARK    3  A    between atoms: C_5  and  N_6 
REMARK       I    between atoms: N_6  and  C_7 
REMARK       I    between atoms: C_7  and  N_8 
ROOT
HETATM    1  N   UNL     1       6.862  28.971  57.330  1.00  0.00    -0.306 N 
HETATM    2  C   UNL     1       6.771  28.355  56.092  1.00  0.00     0.323 C 
HETATM    3  N   UNL     1       7.713  27.354  55.888  1.00  0.00    -0.328 N 
HETATM    4  C   UNL     1       7.886  26.852  54.520  1.00  0.00     0.185 C 
HETATM    5  C   UNL     1       7.865  25.366  54.555  1.00  0.00     0.035 A 
HETATM    6  C   UNL     1       7.950  24.560  55.672  1.00  0.00    -0.020 A 
HETATM    7  C   UNL     1       8.040  25.147  57.039  1.00  0.00     0.061 C 
HETATM    8  C   UNL     1       8.450  26.637  56.953  1.00  0.00     0.132 C 
HETATM    9  N   UNL     1       7.746  24.565  53.455  1.00  0.00    -0.357 N 
HETATM   10  H   UNL     1       7.643  24.884  52.502  1.00  0.00     0.166 HD
HETATM   11  C   UNL     1       7.757  23.241  53.839  1.00  0.00     0.043 A 
HETATM   12  C   UNL     1       7.886  23.210  55.232  1.00  0.00    -0.001 A 
HETATM   13  C   UNL     1       7.653  22.081  53.063  1.00  0.00     0.030 A 
HETATM   14  C   UNL     1       7.681  20.852  53.728  1.00  0.00     0.002 A 
HETATM   15  C   UNL     1       7.806  20.790  55.113  1.00  0.00     0.001 A 
HETATM   16  C   UNL     1       7.910  21.959  55.877  1.00  0.00     0.014 A 
HETATM   17  O   UNL     1       6.011  28.723  55.201  1.00  0.00    -0.247 OA
HETATM   18  H   UNL     1       7.827  29.160  57.557  1.00  0.00     0.171 HD
ENDROOT
BRANCH   1  19
HETATM   19  C   UNL     1       5.952  30.004  57.673  1.00  0.00     0.069 C 
HETATM   20  C   UNL     1       6.381  31.255  58.154  1.00  0.00     0.096 C 
HETATM   21  C   UNL     1       5.436  32.160  58.637  1.00  0.00     0.039 C 
HETATM   22  C   UNL     1       4.072  31.877  58.541  1.00  0.00     0.003 C 
HETATM   23  C   UNL     1       3.646  30.681  57.967  1.00  0.00     0.002 C 
HETATM   24  C   UNL     1       4.584  29.746  57.529  1.00  0.00     0.032 C 
BRANCH  20  25
HETATM   25  O   UNL     1       7.719  31.523  58.162  1.00  0.00    -0.339 OA
BRANCH  25  26
HETATM   26  C   UNL     1       8.443  31.619  59.406  1.00  0.00     0.057 C 
HETATM   27  C   UNL     1       8.426  30.246  60.087  1.00  0.00     0.045 C 
HETATM   28  C   UNL     1       8.000  32.723  60.384  1.00  0.00     0.045 C 
HETATM   29  C   UNL     1       9.892  31.933  58.989  1.00  0.00     0.045 C 
ENDBRANCH  25  26
ENDBRANCH  20  25
ENDBRANCH   1  19
TORSDOF 3
ENDMDL
MODEL 5
REMARK VINA RESULT:      -8.7      4.169     10.546
REMARK  3 active torsions:
REMARK  status: ('A' for Active; 'I' for Inactive)
REMARK    1  A    between atoms: C_2  and  O_3 
REMARK    2  A    between atoms: O_3  and  C_4 
REMARK    3  A    between atoms: C_5  and  N_6 
REMARK       I    between atoms: N_6  and  C_7 
REMARK       I    between atoms: C_7  and  N_8 
ROOT
HETATM    1  N   UNL     1       7.996  30.816  59.566  1.00  0.00    -0.306 N 
HETATM    2  C   UNL     1       6.994  31.718  59.246  1.00  0.00     0.323 C 
HETATM    3  N   UNL     1       6.228  32.120  60.334  1.00  0.00    -0.328 N 
HETATM    4  C   UNL     1       4.976  32.833  60.056  1.00  0.00     0.185 C 
HETATM    5  C   UNL     1       4.922  34.046  60.912  1.00  0.00     0.035 A 
HETATM    6  C   UNL     1       5.738  34.343  61.985  1.00  0.00    -0.020 A 
HETATM    7  C   UNL     1       6.846  33.429  62.384  1.00  0.00     0.061 C 
HETATM    8  C   UNL     1       6.637  32.032  61.753  1.00  0.00     0.132 C 
HETATM    9  N   UNL     1       4.036  35.073  60.749  1.00  0.00    -0.357 N 
HETATM   10  H   UNL     1       3.333  35.136  60.026  1.00  0.00     0.166 HD
HETATM   11  C   UNL     1       4.261  36.039  61.707  1.00  0.00     0.043 A 
HETATM   12  C   UNL     1       5.328  35.603  62.499  1.00  0.00    -0.001 A 
HETATM   13  C   UNL     1       3.610  37.260  61.920  1.00  0.00     0.030 A 
HETATM   14  C   UNL     1       4.061  38.060  62.973  1.00  0.00     0.002 A 
HETATM   15  C   UNL     1       5.123  37.653  63.778  1.00  0.00     0.001 A 
HETATM   16  C   UNL     1       5.764  36.429  63.553  1.00  0.00     0.014 A 
HETATM   17  O   UNL     1       6.719  32.053  58.098  1.00  0.00    -0.247 OA
HETATM   18  H   UNL     1       7.647  30.113  60.200  1.00  0.00     0.171 HD
ENDROOT
BRANCH   1  19
HETATM   19  C   UNL     1       8.861  30.332  58.550  1.00  0.00     0.069 C 
HETATM   20  C   UNL     1       8.578  29.166  57.815  1.00  0.00     0.096 C 
HETATM   21  C   UNL     1       9.548  28.649  56.956  1.00  0.00     0.039 C 
HETATM   22  C   UNL     1      10.743  29.340  56.743  1.00  0.00     0.003 C 
HETATM   23  C   UNL     1      10.976  30.548  57.394  1.00  0.00     0.002 C 
HETATM   24  C   UNL     1      10.035  31.048  58.294  1.00  0.00     0.032 C 
BRANCH  20  25
HETATM   25  O   UNL     1       7.367  28.563  57.996  1.00  0.00    -0.339 OA
BRANCH  25  26
HETATM   26  C   UNL     1       6.424  28.464  56.909  1.00  0.00     0.057 C 
HETATM   27  C   UNL     1       6.239  26.983  56.558  1.00  0.00     0.045 C 
HETATM   28  C   UNL     1       6.728  29.294  55.648  1.00  0.00     0.045 C 
HETATM   29  C   UNL     1       5.100  28.991  57.494  1.00  0.00     0.045 C 
ENDBRANCH  25  26
ENDBRANCH  20  25
ENDBRANCH   1  19
TORSDOF 3
ENDMDL
MODEL 6
REMARK VINA RESULT:      -8.7      5.313      7.326
REMARK  3 active torsions:
REMARK  status: ('A' for Active; 'I' for Inactive)
REMARK    1  A    between atoms: C_2  and  O_3 
REMARK    2  A    between atoms: O_3  and  C_4 
REMARK    3  A    between atoms: C_5  and  N_6 
REMARK       I    between atoms: N_6  and  C_7 
REMARK       I    between atoms: C_7  and  N_8 
ROOT
HETATM    1  N   UNL     1       6.397  28.844  53.868  1.00  0.00    -0.306 N 
HETATM    2  C   UNL     1       5.046  28.769  53.571  1.00  0.00     0.323 C 
HETATM    3  N   UNL     1       4.722  29.215  52.295  1.00  0.00    -0.328 N 
HETATM    4  C   UNL     1       3.304  29.449  51.997  1.00  0.00     0.185 C 
HETATM    5  C   UNL     1       2.977  28.791  50.706  1.00  0.00     0.035 A 
HETATM    6  C   UNL     1       3.868  28.280  49.784  1.00  0.00    -0.020 A 
HETATM    7  C   UNL     1       5.338  28.312  50.035  1.00  0.00     0.061 C 
HETATM    8  C   UNL     1       5.663  29.326  51.159  1.00  0.00     0.132 C 
HETATM    9  N   UNL     1       1.710  28.584  50.239  1.00  0.00    -0.357 N 
HETATM   10  H   UNL     1       0.857  28.836  50.717  1.00  0.00     0.166 HD
HETATM   11  C   UNL     1       1.762  27.946  49.017  1.00  0.00     0.043 A 
HETATM   12  C   UNL     1       3.111  27.744  48.707  1.00  0.00    -0.001 A 
HETATM   13  C   UNL     1       0.722  27.529  48.178  1.00  0.00     0.030 A 
HETATM   14  C   UNL     1       1.070  26.885  46.987  1.00  0.00     0.002 A 
HETATM   15  C   UNL     1       2.404  26.669  46.652  1.00  0.00     0.001 A 
HETATM   16  C   UNL     1       3.434  27.092  47.501  1.00  0.00     0.014 A 
HETATM   17  O   UNL     1       4.185  28.451  54.387  1.00  0.00    -0.247 OA
HETATM   18  H   UNL     1       6.779  29.722  53.549  1.00  0.00     0.171 HD
ENDROOT
BRANCH   1  19
HETATM   19  C   UNL     1       6.867  28.410  55.135  1.00  0.00     0.069 C 
HETATM   20  C   UNL     1       7.469  27.152  55.323  1.00  0.00     0.096 C 
HETATM   21  C   UNL     1       7.748  26.716  56.618  1.00  0.00     0.039 C 
HETATM   22  C   UNL     1       7.537  27.563  57.708  1.00  0.00     0.003 C 
HETATM   23  C   UNL     1       7.039  28.848  57.509  1.00  0.00     0.002 C 
HETATM   24  C   UNL     1       6.707  29.274  56.223  1.00  0.00     0.032 C 
BRANCH  20  25
HETATM   25  O   UNL     1       7.727  26.385  54.223  1.00  0.00    -0.339 OA
BRANCH  25  26
HETATM   26  C   UNL     1       6.831  25.322  53.841  1.00  0.00     0.057 C 
HETATM   27  C   UNL     1       6.490  25.483  52.355  1.00  0.00     0.045 C 
HETATM   28  C   UNL     1       5.553  25.153  54.683  1.00  0.00     0.045 C 
HETATM   29  C   UNL     1       7.661  24.035  54.008  1.00  0.00     0.045 C 
ENDBRANCH  25  26
ENDBRANCH  20  25
ENDBRANCH   1  19
TORSDOF 3
ENDMDL
MODEL 7
REMARK VINA RESULT:      -8.6      3.813      5.524
REMARK  3 active torsions:
REMARK  status: ('A' for Active; 'I' for Inactive)
REMARK    1  A    between atoms: C_2  and  O_3 
REMARK    2  A    between atoms: O_3  and  C_4 
REMARK    3  A    between atoms: C_5  and  N_6 
REMARK       I    between atoms: N_6  and  C_7 
REMARK       I    between atoms: C_7  and  N_8 
ROOT
HETATM    1  N   UNL     1       5.669  27.621  52.146  1.00  0.00    -0.306 N 
HETATM    2  C   UNL     1       5.906  26.302  51.792  1.00  0.00     0.323 C 
HETATM    3  N   UNL     1       7.026  25.748  52.401  1.00  0.00    -0.328 N 
HETATM    4  C   UNL     1       7.523  24.472  51.873  1.00  0.00     0.185 C 
HETATM    5  C   UNL     1       7.749  23.544  53.012  1.00  0.00     0.035 A 
HETATM    6  C   UNL     1       7.769  23.866  54.354  1.00  0.00    -0.020 A 
HETATM    7  C   UNL     1       7.511  25.260  54.814  1.00  0.00     0.061 C 
HETATM    8  C   UNL     1       7.671  26.249  53.634  1.00  0.00     0.132 C 
HETATM    9  N   UNL     1       7.967  22.202  52.888  1.00  0.00    -0.357 N 
HETATM   10  H   UNL     1       7.984  21.685  52.020  1.00  0.00     0.166 HD
HETATM   11  C   UNL     1       8.134  21.640  54.136  1.00  0.00     0.043 A 
HETATM   12  C   UNL     1       8.015  22.668  55.078  1.00  0.00    -0.001 A 
HETATM   13  C   UNL     1       8.370  20.308  54.496  1.00  0.00     0.030 A 
HETATM   14  C   UNL     1       8.486  20.016  55.858  1.00  0.00     0.002 A 
HETATM   15  C   UNL     1       8.370  21.018  56.818  1.00  0.00     0.001 A 
HETATM   16  C   UNL     1       8.135  22.346  56.443  1.00  0.00     0.014 A 
HETATM   17  O   UNL     1       5.266  25.700  50.935  1.00  0.00    -0.247 OA
HETATM   18  H   UNL     1       6.531  28.145  52.145  1.00  0.00     0.171 HD
ENDROOT
BRANCH   1  19
HETATM   19  C   UNL     1       4.550  28.306  51.605  1.00  0.00     0.069 C 
HETATM   20  C   UNL     1       3.486  28.759  52.407  1.00  0.00     0.096 C 
HETATM   21  C   UNL     1       2.339  29.267  51.796  1.00  0.00     0.039 C 
HETATM   22  C   UNL     1       2.291  29.429  50.410  1.00  0.00     0.003 C 
HETATM   23  C   UNL     1       3.387  29.077  49.627  1.00  0.00     0.002 C 
HETATM   24  C   UNL     1       4.519  28.520  50.223  1.00  0.00     0.032 C 
BRANCH  20  25
HETATM   25  O   UNL     1       3.604  28.652  53.763  1.00  0.00    -0.339 OA
BRANCH  25  26
HETATM   26  C   UNL     1       4.059  29.770  54.552  1.00  0.00     0.057 C 
HETATM   27  C   UNL     1       3.130  29.922  55.762  1.00  0.00     0.045 C 
HETATM   28  C   UNL     1       4.232  31.113  53.819  1.00  0.00     0.045 C 
HETATM   29  C   UNL     1       5.449  29.346  55.062  1.00  0.00     0.045 C 
ENDBRANCH  25  26
ENDBRANCH  20  25
ENDBRANCH   1  19
TORSDOF 3
ENDMDL
MODEL 8
REMARK VINA RESULT:      -8.5      3.592      6.543
REMARK  3 active torsions:
REMARK  status: ('A' for Active; 'I' for Inactive)
REMARK    1  A    between atoms: C_2  and  O_3 
REMARK    2  A    between atoms: O_3  and  C_4 
REMARK    3  A    between atoms: C_5  and  N_6 
REMARK       I    between atoms: N_6  and  C_7 
REMARK       I    between atoms: C_7  and  N_8 
ROOT
HETATM    1  N   UNL     1       4.945  33.243  59.536  1.00  0.00    -0.306 N 
HETATM    2  C   UNL     1       4.257  32.112  59.126  1.00  0.00     0.323 C 
HETATM    3  N   UNL     1       4.872  31.423  58.087  1.00  0.00    -0.328 N 
HETATM    4  C   UNL     1       4.086  30.395  57.395  1.00  0.00     0.185 C 
HETATM    5  C   UNL     1       4.906  29.160  57.294  1.00  0.00     0.035 A 
HETATM    6  C   UNL     1       6.259  29.039  57.539  1.00  0.00    -0.020 A 
HETATM    7  C   UNL     1       7.065  30.206  57.995  1.00  0.00     0.061 C 
HETATM    8  C   UNL     1       6.301  31.523  57.717  1.00  0.00     0.132 C 
HETATM    9  N   UNL     1       4.421  27.933  56.942  1.00  0.00    -0.357 N 
HETATM   10  H   UNL     1       3.457  27.719  56.727  1.00  0.00     0.166 HD
HETATM   11  C   UNL     1       5.444  27.008  56.949  1.00  0.00     0.043 A 
HETATM   12  C   UNL     1       6.613  27.679  57.322  1.00  0.00    -0.001 A 
HETATM   13  C   UNL     1       5.417  25.637  56.666  1.00  0.00     0.030 A 
HETATM   14  C   UNL     1       6.618  24.931  56.767  1.00  0.00     0.002 A 
HETATM   15  C   UNL     1       7.798  25.572  57.137  1.00  0.00     0.001 A 
HETATM   16  C   UNL     1       7.810  26.944  57.417  1.00  0.00     0.014 A 
HETATM   17  O   UNL     1       3.149  31.796  59.550  1.00  0.00    -0.247 OA
HETATM   18  H   UNL     1       5.273  33.763  58.737  1.00  0.00     0.171 HD
ENDROOT
BRANCH   1  19
HETATM   19  C   UNL     1       4.433  34.034  60.598  1.00  0.00     0.069 C 
HETATM   20  C   UNL     1       5.143  34.234  61.796  1.00  0.00     0.096 C 
HETATM   21  C   UNL     1       4.513  34.874  62.863  1.00  0.00     0.039 C 
HETATM   22  C   UNL     1       3.232  35.409  62.710  1.00  0.00     0.003 C 
HETATM   23  C   UNL     1       2.572  35.300  61.489  1.00  0.00     0.002 C 
HETATM   24  C   UNL     1       3.172  34.617  60.430  1.00  0.00     0.032 C 
BRANCH  20  25
HETATM   25  O   UNL     1       6.421  33.762  61.879  1.00  0.00    -0.339 OA
BRANCH  25  26
HETATM   26  C   UNL     1       6.696  32.492  62.507  1.00  0.00     0.057 C 
HETATM   27  C   UNL     1       7.552  31.652  61.551  1.00  0.00     0.045 C 
HETATM   28  C   UNL     1       5.483  31.688  63.009  1.00  0.00     0.045 C 
HETATM   29  C   UNL     1       7.552  32.845  63.738  1.00  0.00     0.045 C 
ENDBRANCH  25  26
ENDBRANCH  20  25
ENDBRANCH   1  19
TORSDOF 3
ENDMDL
MODEL 9
REMARK VINA RESULT:      -8.5      4.513      8.106
REMARK  3 active torsions:
REMARK  status: ('A' for Active; 'I' for Inactive)
REMARK    1  A    between atoms: C_2  and  O_3 
REMARK    2  A    between atoms: O_3  and  C_4 
REMARK    3  A    between atoms: C_5  and  N_6 
REMARK       I    between atoms: N_6  and  C_7 
REMARK       I    between atoms: C_7  and  N_8 
ROOT
HETATM    1  N   UNL     1       6.158  25.578  54.689  1.00  0.00    -0.306 N 
HETATM    2  C   UNL     1       6.547  25.784  53.374  1.00  0.00     0.323 C 
HETATM    3  N   UNL     1       5.499  26.094  52.516  1.00  0.00    -0.328 N 
HETATM    4  C   UNL     1       5.763  26.040  51.074  1.00  0.00     0.185 C 
HETATM    5  C   UNL     1       5.249  27.287  50.451  1.00  0.00     0.035 A 
HETATM    6  C   UNL     1       4.421  28.226  51.033  1.00  0.00    -0.020 A 
HETATM    7  C   UNL     1       3.968  28.082  52.446  1.00  0.00     0.061 C 
HETATM    8  C   UNL     1       4.181  26.627  52.927  1.00  0.00     0.132 C 
HETATM    9  N   UNL     1       5.538  27.697  49.181  1.00  0.00    -0.357 N 
HETATM   10  H   UNL     1       6.141  27.216  48.529  1.00  0.00     0.166 HD
HETATM   11  C   UNL     1       4.905  28.895  48.922  1.00  0.00     0.043 A 
HETATM   12  C   UNL     1       4.193  29.250  50.073  1.00  0.00    -0.001 A 
HETATM   13  C   UNL     1       4.919  29.685  47.767  1.00  0.00     0.030 A 
HETATM   14  C   UNL     1       4.185  30.875  47.788  1.00  0.00     0.002 A 
HETATM   15  C   UNL     1       3.468  31.255  48.919  1.00  0.00     0.001 A 
HETATM   16  C   UNL     1       3.463  30.454  50.067  1.00  0.00     0.014 A 
HETATM   17  O   UNL     1       7.690  25.599  52.965  1.00  0.00    -0.247 OA
HETATM   18  H   UNL     1       5.321  25.017  54.723  1.00  0.00     0.171 HD
ENDROOT
BRANCH   1  19
HETATM   19  C   UNL     1       7.131  25.265  55.673  1.00  0.00     0.069 C 
HETATM   20  C   UNL     1       7.547  23.945  55.925  1.00  0.00     0.096 C 
HETATM   21  C   UNL     1       8.373  23.688  57.019  1.00  0.00     0.039 C 
HETATM   22  C   UNL     1       8.873  24.739  57.789  1.00  0.00     0.003 C 
HETATM   23  C   UNL     1       8.543  26.055  57.473  1.00  0.00     0.002 C 
HETATM   24  C   UNL     1       7.676  26.320  56.413  1.00  0.00     0.032 C 
BRANCH  20  25
HETATM   25  O   UNL     1       7.095  22.954  55.102  1.00  0.00    -0.339 OA
BRANCH  25  26
HETATM   26  C   UNL     1       8.017  22.023  54.497  1.00  0.00     0.057 C 
HETATM   27  C   UNL     1       7.731  20.624  55.054  1.00  0.00     0.045 C 
HETATM   28  C   UNL     1       9.515  22.361  54.603  1.00  0.00     0.045 C 
HETATM   29  C   UNL     1       7.651  22.031  53.001  1.00  0.00     0.045 C 
ENDBRANCH  25  26
ENDBRANCH  20  25
ENDBRANCH   1  19
TORSDOF 3
ENDMDL
MODEL 10
REMARK VINA RESULT:      -8.5      4.375      9.988
REMARK  3 active torsions:
REMARK  status: ('A' for Active; 'I' for Inactive)
REMARK    1  A    between atoms: C_2  and  O_3 
REMARK    2  A    between atoms: O_3  and  C_4 
REMARK    3  A    between atoms: C_5  and  N_6 
REMARK       I    between atoms: N_6  and  C_7 
REMARK       I    between atoms: C_7  and  N_8 
ROOT
HETATM    1  N   UNL     1       7.149  30.589  58.606  1.00  0.00    -0.306 N 
HETATM    2  C   UNL     1       7.811  30.797  59.806  1.00  0.00     0.323 C 
HETATM    3  N   UNL     1       7.507  32.007  60.417  1.00  0.00    -0.328 N 
HETATM    4  C   UNL     1       8.366  32.443  61.523  1.00  0.00     0.185 C 
HETATM    5  C   UNL     1       7.501  32.859  62.658  1.00  0.00     0.035 A 
HETATM    6  C   UNL     1       6.139  33.078  62.628  1.00  0.00    -0.020 A 
HETATM    7  C   UNL     1       5.353  32.865  61.379  1.00  0.00     0.061 C 
HETATM    8  C   UNL     1       6.300  32.822  60.156  1.00  0.00     0.132 C 
HETATM    9  N   UNL     1       7.944  33.083  63.931  1.00  0.00    -0.357 N 
HETATM   10  H   UNL     1       8.897  32.978  64.250  1.00  0.00     0.166 HD
HETATM   11  C   UNL     1       6.885  33.450  64.735  1.00  0.00     0.043 A 
HETATM   12  C   UNL     1       5.736  33.455  63.938  1.00  0.00    -0.001 A 
HETATM   13  C   UNL     1       6.862  33.764  66.099  1.00  0.00     0.030 A 
HETATM   14  C   UNL     1       5.628  34.093  66.667  1.00  0.00     0.002 A 
HETATM   15  C   UNL     1       4.466  34.105  65.899  1.00  0.00     0.001 A 
HETATM   16  C   UNL     1       4.505  33.789  64.535  1.00  0.00     0.014 A 
HETATM   17  O   UNL     1       8.677  30.046  60.245  1.00  0.00    -0.247 OA
HETATM   18  H   UNL     1       7.160  31.430  58.049  1.00  0.00     0.171 HD
ENDROOT
BRANCH   1  19
HETATM   19  C   UNL     1       7.360  29.387  57.882  1.00  0.00     0.069 C 
HETATM   20  C   UNL     1       6.295  28.600  57.405  1.00  0.00     0.096 C 
HETATM   21  C   UNL     1       6.566  27.347  56.856  1.00  0.00     0.039 C 
HETATM   22  C   UNL     1       7.885  26.923  56.679  1.00  0.00     0.003 C 
HETATM   23  C   UNL     1       8.941  27.750  57.056  1.00  0.00     0.002 C 
HETATM   24  C   UNL     1       8.680  28.983  57.654  1.00  0.00     0.032 C 
BRANCH  20  25
HETATM   25  O   UNL     1       5.025  29.083  57.529  1.00  0.00    -0.339 OA
BRANCH  25  26
HETATM   26  C   UNL     1       4.387  29.765  56.429  1.00  0.00     0.057 C 
HETATM   27  C   UNL     1       3.866  28.714  55.442  1.00  0.00     0.045 C 
HETATM   28  C   UNL     1       5.216  30.839  55.702  1.00  0.00     0.045 C 
HETATM   29  C   UNL     1       3.175  30.475  57.063  1.00  0.00     0.045 C 
ENDBRANCH  25  26
ENDBRANCH  20  25
ENDBRANCH   1  19
TORSDOF 3
ENDMDL
