MODEL 1
REMARK VINA RESULT:      -8.4      0.000      0.000
REMARK  3 active torsions:
REMARK  status: ('A' for Active; 'I' for Inactive)
REMARK       I    between atoms: C_2  and  N_3 
REMARK    1  A    between atoms: N_3  and  C_4 
REMARK    2  A    between atoms: C_7  and  N_8 
REMARK       I    between atoms: N_8  and  C_9 
REMARK    3  A    between atoms: C_9  and  C_10 
ROOT
HETATM    1  C   UNL     1       8.585  31.031  60.018  1.00  0.00     0.034 A 
HETATM    2  C   UNL     1       9.037  30.740  61.309  1.00  0.00     0.032 A 
HETATM    3  C   UNL     1       8.456  31.346  62.430  1.00  0.00     0.032 A 
HETATM    4  C   UNL     1       7.410  32.254  62.276  1.00  0.00     0.035 A 
HETATM    5  C   UNL     1       6.978  32.568  60.985  1.00  0.00     0.032 A 
HETATM    6  C   UNL     1       7.559  31.961  59.864  1.00  0.00     0.032 A 
ENDROOT
BRANCH   4   7
HETATM    7  N   UNL     1       6.735  32.862  63.348  1.00  0.00    -0.322 N 
HETATM    8  C   UNL     1       5.486  32.559  63.855  1.00  0.00     0.274 C 
HETATM    9  O   UNL     1       4.748  31.641  63.518  1.00  0.00    -0.266 OA
HETATM   10  H   UNL     1       7.176  33.668  63.786  1.00  0.00     0.169 HD
BRANCH   8  11
HETATM   11  C   UNL     1       5.044  33.522  64.917  1.00  0.00     0.126 A 
HETATM   12  N   UNL     1       3.783  34.027  64.779  1.00  0.00    -0.255 NA
HETATM   13  C   UNL     1       3.357  34.868  65.746  1.00  0.00     0.119 A 
HETATM   14  C   UNL     1       4.123  35.225  66.841  1.00  0.00     0.043 A 
HETATM   15  C   UNL     1       5.401  34.688  66.943  1.00  0.00     0.037 A 
HETATM   16 CL   UNL     1       6.387  35.097  68.293  1.00  0.00    -0.084 Cl
HETATM   17  C   UNL     1       5.886  33.824  65.975  1.00  0.00     0.061 A 
ENDBRANCH   8  11
ENDBRANCH   4   7
BRANCH   1  18
HETATM   18  N   UNL     1       9.193  30.341  58.950  1.00  0.00    -0.328 N 
HETATM   19  C   UNL     1      10.138  30.826  58.062  1.00  0.00     0.218 C 
HETATM   20  C   UNL     1      10.496  29.804  57.012  1.00  0.00     0.117 C 
HETATM   21  O   UNL     1      10.648  31.940  58.058  1.00  0.00    -0.274 OA
HETATM   22  H   UNL     1       8.874  29.392  58.799  1.00  0.00     0.169 HD
ENDBRANCH   1  18
TORSDOF 3
ENDMDL
MODEL 2
REMARK VINA RESULT:      -8.3      3.423      8.503
REMARK  3 active torsions:
REMARK  status: ('A' for Active; 'I' for Inactive)
REMARK       I    between atoms: C_2  and  N_3 
REMARK    1  A    between atoms: N_3  and  C_4 
REMARK    2  A    between atoms: C_7  and  N_8 
REMARK       I    between atoms: N_8  and  C_9 
REMARK    3  A    between atoms: C_9  and  C_10 
ROOT
HETATM    1  C   UNL     1       6.708  33.870  63.904  1.00  0.00     0.034 A 
HETATM    2  C   UNL     1       6.078  33.988  62.661  1.00  0.00     0.032 A 
HETATM    3  C   UNL     1       6.481  33.205  61.572  1.00  0.00     0.032 A 
HETATM    4  C   UNL     1       7.523  32.291  61.709  1.00  0.00     0.035 A 
HETATM    5  C   UNL     1       8.173  32.194  62.942  1.00  0.00     0.032 A 
HETATM    6  C   UNL     1       7.769  32.975  64.032  1.00  0.00     0.032 A 
ENDROOT
BRANCH   4   7
HETATM    7  N   UNL     1       7.950  31.429  60.685  1.00  0.00    -0.322 N 
HETATM    8  C   UNL     1       8.853  31.685  59.671  1.00  0.00     0.274 C 
HETATM    9  O   UNL     1       9.525  32.697  59.510  1.00  0.00    -0.266 OA
HETATM   10  H   UNL     1       7.509  30.514  60.627  1.00  0.00     0.169 HD
BRANCH   8  11
HETATM   11  C   UNL     1       8.948  30.560  58.684  1.00  0.00     0.126 A 
HETATM   12  N   UNL     1      10.102  30.499  57.956  1.00  0.00    -0.255 NA
HETATM   13  C   UNL     1      10.218  29.473  57.087  1.00  0.00     0.119 A 
HETATM   14  C   UNL     1       9.245  28.505  56.912  1.00  0.00     0.043 A 
HETATM   15  C   UNL     1       8.086  28.604  57.673  1.00  0.00     0.037 A 
HETATM   16 CL   UNL     1       6.852  27.417  57.495  1.00  0.00    -0.084 Cl
HETATM   17  C   UNL     1       7.917  29.642  58.575  1.00  0.00     0.061 A 
ENDBRANCH   8  11
ENDBRANCH   4   7
BRANCH   1  18
HETATM   18  N   UNL     1       6.208  34.660  64.959  1.00  0.00    -0.328 N 
HETATM   19  C   UNL     1       5.140  34.376  65.792  1.00  0.00     0.218 C 
HETATM   20  C   UNL     1       4.869  35.502  66.758  1.00  0.00     0.117 C 
HETATM   21  O   UNL     1       4.446  33.366  65.789  1.00  0.00    -0.274 OA
HETATM   22  H   UNL     1       6.667  35.552  65.098  1.00  0.00     0.169 HD
ENDBRANCH   1  18
TORSDOF 3
ENDMDL
MODEL 3
REMARK VINA RESULT:      -7.8      3.626      8.296
REMARK  3 active torsions:
REMARK  status: ('A' for Active; 'I' for Inactive)
REMARK       I    between atoms: C_2  and  N_3 
REMARK    1  A    between atoms: N_3  and  C_4 
REMARK    2  A    between atoms: C_7  and  N_8 
REMARK       I    between atoms: N_8  and  C_9 
REMARK    3  A    between atoms: C_9  and  C_10 
ROOT
HETATM    1  C   UNL     1       5.974  33.326  64.556  1.00  0.00     0.034 A 
HETATM    2  C   UNL     1       7.357  33.151  64.446  1.00  0.00     0.032 A 
HETATM    3  C   UNL     1       7.910  32.439  63.374  1.00  0.00     0.032 A 
HETATM    4  C   UNL     1       7.086  31.889  62.393  1.00  0.00     0.035 A 
HETATM    5  C   UNL     1       5.702  32.038  62.519  1.00  0.00     0.032 A 
HETATM    6  C   UNL     1       5.149  32.752  63.589  1.00  0.00     0.032 A 
ENDROOT
BRANCH   4   7
HETATM    7  N   UNL     1       7.562  31.212  61.258  1.00  0.00    -0.322 N 
HETATM    8  C   UNL     1       8.239  31.731  60.172  1.00  0.00     0.274 C 
HETATM    9  O   UNL     1       8.632  32.882  60.020  1.00  0.00    -0.266 OA
HETATM   10  H   UNL     1       7.340  30.222  61.175  1.00  0.00     0.169 HD
BRANCH   8  11
HETATM   11  C   UNL     1       8.460  30.717  59.089  1.00  0.00     0.126 A 
HETATM   12  N   UNL     1       7.360  30.011  58.696  1.00  0.00    -0.255 NA
HETATM   13  C   UNL     1       7.535  29.119  57.698  1.00  0.00     0.119 A 
HETATM   14  C   UNL     1       8.749  28.900  57.073  1.00  0.00     0.043 A 
HETATM   15  C   UNL     1       9.845  29.638  57.504  1.00  0.00     0.037 A 
HETATM   16 CL   UNL     1      11.375  29.405  56.750  1.00  0.00    -0.084 Cl
HETATM   17  C   UNL     1       9.718  30.563  58.528  1.00  0.00     0.061 A 
ENDBRANCH   8  11
ENDBRANCH   4   7
BRANCH   1  18
HETATM   18  N   UNL     1       5.505  34.097  65.638  1.00  0.00    -0.328 N 
HETATM   19  C   UNL     1       4.910  35.345  65.589  1.00  0.00     0.218 C 
HETATM   20  C   UNL     1       4.606  35.876  66.968  1.00  0.00     0.117 C 
HETATM   21  O   UNL     1       4.650  36.003  64.588  1.00  0.00    -0.274 OA
HETATM   22  H   UNL     1       5.652  33.701  66.558  1.00  0.00     0.169 HD
ENDBRANCH   1  18
TORSDOF 3
ENDMDL
MODEL 4
REMARK VINA RESULT:      -7.7     13.044     14.662
REMARK  3 active torsions:
REMARK  status: ('A' for Active; 'I' for Inactive)
REMARK       I    between atoms: C_2  and  N_3 
REMARK    1  A    between atoms: N_3  and  C_4 
REMARK    2  A    between atoms: C_7  and  N_8 
REMARK       I    between atoms: N_8  and  C_9 
REMARK    3  A    between atoms: C_9  and  C_10 
ROOT
HETATM    1  C   UNL     1       7.464  23.602  54.248  1.00  0.00     0.034 A 
HETATM    2  C   UNL     1       6.209  24.203  54.385  1.00  0.00     0.032 A 
HETATM    3  C   UNL     1       5.673  24.995  53.361  1.00  0.00     0.032 A 
HETATM    4  C   UNL     1       6.387  25.199  52.182  1.00  0.00     0.035 A 
HETATM    5  C   UNL     1       7.654  24.623  52.057  1.00  0.00     0.032 A 
HETATM    6  C   UNL     1       8.189  23.830  53.080  1.00  0.00     0.032 A 
ENDROOT
BRANCH   4   7
HETATM    7  N   UNL     1       5.899  25.930  51.086  1.00  0.00    -0.322 N 
HETATM    8  C   UNL     1       5.604  27.277  51.019  1.00  0.00     0.274 C 
HETATM    9  O   UNL     1       5.788  28.124  51.885  1.00  0.00    -0.266 OA
HETATM   10  H   UNL     1       5.669  25.412  50.241  1.00  0.00     0.169 HD
BRANCH   8  11
HETATM   11  C   UNL     1       4.970  27.667  49.716  1.00  0.00     0.126 A 
HETATM   12  N   UNL     1       5.259  28.922  49.262  1.00  0.00    -0.255 NA
HETATM   13  C   UNL     1       4.724  29.275  48.074  1.00  0.00     0.119 A 
HETATM   14  C   UNL     1       3.921  28.440  47.318  1.00  0.00     0.043 A 
HETATM   15  C   UNL     1       3.651  27.171  47.817  1.00  0.00     0.037 A 
HETATM   16 CL   UNL     1       2.663  26.095  46.907  1.00  0.00    -0.084 Cl
HETATM   17  C   UNL     1       4.173  26.762  49.034  1.00  0.00     0.061 A 
ENDBRANCH   8  11
ENDBRANCH   4   7
BRANCH   1  18
HETATM   18  N   UNL     1       7.907  22.783  55.306  1.00  0.00    -0.328 N 
HETATM   19  C   UNL     1       7.963  21.400  55.334  1.00  0.00     0.218 C 
HETATM   20  C   UNL     1       8.431  20.886  56.672  1.00  0.00     0.117 C 
HETATM   21  O   UNL     1       7.667  20.628  54.429  1.00  0.00    -0.274 OA
HETATM   22  H   UNL     1       8.184  23.265  56.152  1.00  0.00     0.169 HD
ENDBRANCH   1  18
TORSDOF 3
ENDMDL
MODEL 5
REMARK VINA RESULT:      -7.7      5.798      8.532
REMARK  3 active torsions:
REMARK  status: ('A' for Active; 'I' for Inactive)
REMARK       I    between atoms: C_2  and  N_3 
REMARK    1  A    between atoms: N_3  and  C_4 
REMARK    2  A    between atoms: C_7  and  N_8 
REMARK       I    between atoms: N_8  and  C_9 
REMARK    3  A    between atoms: C_9  and  C_10 
ROOT
HETATM    1  C   UNL     1       7.540  23.826  55.884  1.00  0.00     0.034 A 
HETATM    2  C   UNL     1       6.498  24.685  55.521  1.00  0.00     0.032 A 
HETATM    3  C   UNL     1       6.384  25.960  56.091  1.00  0.00     0.032 A 
HETATM    4  C   UNL     1       7.312  26.395  57.035  1.00  0.00     0.035 A 
HETATM    5  C   UNL     1       8.335  25.525  57.420  1.00  0.00     0.032 A 
HETATM    6  C   UNL     1       8.451  24.251  56.849  1.00  0.00     0.032 A 
ENDROOT
BRANCH   4   7
HETATM    7  N   UNL     1       7.302  27.676  57.611  1.00  0.00    -0.322 N 
HETATM    8  C   UNL     1       8.238  28.682  57.476  1.00  0.00     0.274 C 
HETATM    9  O   UNL     1       9.230  28.685  56.755  1.00  0.00    -0.266 OA
HETATM   10  H   UNL     1       6.551  27.893  58.262  1.00  0.00     0.169 HD
BRANCH   8  11
HETATM   11  C   UNL     1       7.952  29.862  58.358  1.00  0.00     0.126 A 
HETATM   12  N   UNL     1       6.796  30.539  58.095  1.00  0.00    -0.255 NA
HETATM   13  C   UNL     1       6.507  31.582  58.902  1.00  0.00     0.119 A 
HETATM   14  C   UNL     1       7.310  31.979  59.956  1.00  0.00     0.043 A 
HETATM   15  C   UNL     1       8.479  31.263  60.189  1.00  0.00     0.037 A 
HETATM   16 CL   UNL     1       9.505  31.715  61.494  1.00  0.00    -0.084 Cl
HETATM   17  C   UNL     1       8.822  30.187  59.386  1.00  0.00     0.061 A 
ENDBRANCH   8  11
ENDBRANCH   4   7
BRANCH   1  18
HETATM   18  N   UNL     1       7.609  22.581  55.227  1.00  0.00    -0.328 N 
HETATM   19  C   UNL     1       7.953  22.342  53.908  1.00  0.00     0.218 C 
HETATM   20  C   UNL     1       7.845  20.879  53.557  1.00  0.00     0.117 C 
HETATM   21  O   UNL     1       8.295  23.168  53.069  1.00  0.00    -0.274 OA
HETATM   22  H   UNL     1       7.343  21.775  55.779  1.00  0.00     0.169 HD
ENDBRANCH   1  18
TORSDOF 3
ENDMDL
MODEL 6
REMARK VINA RESULT:      -7.5      7.344     11.773
REMARK  3 active torsions:
REMARK  status: ('A' for Active; 'I' for Inactive)
REMARK       I    between atoms: C_2  and  N_3 
REMARK    1  A    between atoms: N_3  and  C_4 
REMARK    2  A    between atoms: C_7  and  N_8 
REMARK       I    between atoms: N_8  and  C_9 
REMARK    3  A    between atoms: C_9  and  C_10 
ROOT
HETATM    1  C   UNL     1       7.257  29.245  57.929  1.00  0.00     0.034 A 
HETATM    2  C   UNL     1       6.099  28.573  57.525  1.00  0.00     0.032 A 
HETATM    3  C   UNL     1       6.174  27.361  56.828  1.00  0.00     0.032 A 
HETATM    4  C   UNL     1       7.413  26.800  56.523  1.00  0.00     0.035 A 
HETATM    5  C   UNL     1       8.571  27.485  56.899  1.00  0.00     0.032 A 
HETATM    6  C   UNL     1       8.495  28.697  57.598  1.00  0.00     0.032 A 
ENDROOT
BRANCH   4   7
HETATM    7  N   UNL     1       7.576  25.562  55.879  1.00  0.00    -0.322 N 
HETATM    8  C   UNL     1       6.920  25.085  54.761  1.00  0.00     0.274 C 
HETATM    9  O   UNL     1       6.115  25.685  54.057  1.00  0.00    -0.266 OA
HETATM   10  H   UNL     1       8.211  24.891  56.305  1.00  0.00     0.169 HD
BRANCH   8  11
HETATM   11  C   UNL     1       7.266  23.659  54.451  1.00  0.00     0.126 A 
HETATM   12  N   UNL     1       7.426  23.355  53.130  1.00  0.00    -0.255 NA
HETATM   13  C   UNL     1       7.772  22.084  52.837  1.00  0.00     0.119 A 
HETATM   14  C   UNL     1       7.967  21.104  53.794  1.00  0.00     0.043 A 
HETATM   15  C   UNL     1       7.793  21.454  55.127  1.00  0.00     0.037 A 
HETATM   16 CL   UNL     1       8.034  20.271  56.353  1.00  0.00    -0.084 Cl
HETATM   17  C   UNL     1       7.434  22.746  55.480  1.00  0.00     0.061 A 
ENDBRANCH   8  11
ENDBRANCH   4   7
BRANCH   1  18
HETATM   18  N   UNL     1       7.090  30.433  58.668  1.00  0.00    -0.328 N 
HETATM   19  C   UNL     1       7.795  30.834  59.789  1.00  0.00     0.218 C 
HETATM   20  C   UNL     1       7.278  32.141  60.338  1.00  0.00     0.117 C 
HETATM   21  O   UNL     1       8.721  30.244  60.333  1.00  0.00    -0.274 OA
HETATM   22  H   UNL     1       6.346  31.045  58.357  1.00  0.00     0.169 HD
ENDBRANCH   1  18
TORSDOF 3
ENDMDL
MODEL 7
REMARK VINA RESULT:      -7.4      7.881     12.026
REMARK  3 active torsions:
REMARK  status: ('A' for Active; 'I' for Inactive)
REMARK       I    between atoms: C_2  and  N_3 
REMARK    1  A    between atoms: N_3  and  C_4 
REMARK    2  A    between atoms: C_7  and  N_8 
REMARK       I    between atoms: N_8  and  C_9 
REMARK    3  A    between atoms: C_9  and  C_10 
ROOT
HETATM    1  C   UNL     1       6.248  29.044  57.609  1.00  0.00     0.034 A 
HETATM    2  C   UNL     1       7.588  28.690  57.792  1.00  0.00     0.032 A 
HETATM    3  C   UNL     1       8.044  27.403  57.477  1.00  0.00     0.032 A 
HETATM    4  C   UNL     1       7.163  26.449  56.973  1.00  0.00     0.035 A 
HETATM    5  C   UNL     1       5.817  26.792  56.818  1.00  0.00     0.032 A 
HETATM    6  C   UNL     1       5.363  28.080  57.131  1.00  0.00     0.032 A 
ENDROOT
BRANCH   4   7
HETATM    7  N   UNL     1       7.548  25.157  56.578  1.00  0.00    -0.322 N 
HETATM    8  C   UNL     1       7.748  24.676  55.299  1.00  0.00     0.274 C 
HETATM    9  O   UNL     1       7.706  25.309  54.250  1.00  0.00    -0.266 OA
HETATM   10  H   UNL     1       7.641  24.451  57.306  1.00  0.00     0.169 HD
BRANCH   8  11
HETATM   11  C   UNL     1       8.019  23.201  55.270  1.00  0.00     0.126 A 
HETATM   12  N   UNL     1       8.168  22.596  56.485  1.00  0.00    -0.255 NA
HETATM   13  C   UNL     1       8.378  21.263  56.478  1.00  0.00     0.119 A 
HETATM   14  C   UNL     1       8.444  20.505  55.323  1.00  0.00     0.043 A 
HETATM   15  C   UNL     1       8.289  21.160  54.106  1.00  0.00     0.037 A 
HETATM   16 CL   UNL     1       8.356  20.257  52.643  1.00  0.00    -0.084 Cl
HETATM   17  C   UNL     1       8.075  22.528  54.060  1.00  0.00     0.061 A 
ENDBRANCH   8  11
ENDBRANCH   4   7
BRANCH   1  18
HETATM   18  N   UNL     1       5.885  30.373  57.906  1.00  0.00    -0.328 N 
HETATM   19  C   UNL     1       5.478  31.354  57.018  1.00  0.00     0.218 C 
HETATM   20  C   UNL     1       5.240  32.672  57.711  1.00  0.00     0.117 C 
HETATM   21  O   UNL     1       5.326  31.241  55.807  1.00  0.00    -0.274 OA
HETATM   22  H   UNL     1       5.963  30.645  58.878  1.00  0.00     0.169 HD
ENDBRANCH   1  18
TORSDOF 3
ENDMDL
MODEL 8
REMARK VINA RESULT:      -7.2      4.964      7.603
REMARK  3 active torsions:
REMARK  status: ('A' for Active; 'I' for Inactive)
REMARK       I    between atoms: C_2  and  N_3 
REMARK    1  A    between atoms: N_3  and  C_4 
REMARK    2  A    between atoms: C_7  and  N_8 
REMARK       I    between atoms: N_8  and  C_9 
REMARK    3  A    between atoms: C_9  and  C_10 
ROOT
HETATM    1  C   UNL     1       7.399  25.475  55.366  1.00  0.00     0.034 A 
HETATM    2  C   UNL     1       7.272  26.790  54.908  1.00  0.00     0.032 A 
HETATM    3  C   UNL     1       7.284  27.868  55.802  1.00  0.00     0.032 A 
HETATM    4  C   UNL     1       7.423  27.647  57.171  1.00  0.00     0.035 A 
HETATM    5  C   UNL     1       7.521  26.332  57.632  1.00  0.00     0.032 A 
HETATM    6  C   UNL     1       7.511  25.253  56.738  1.00  0.00     0.032 A 
ENDROOT
BRANCH   4   7
HETATM    7  N   UNL     1       7.502  28.673  58.127  1.00  0.00    -0.322 N 
HETATM    8  C   UNL     1       8.537  29.562  58.346  1.00  0.00     0.274 C 
HETATM    9  O   UNL     1       9.566  29.683  57.691  1.00  0.00    -0.266 OA
HETATM   10  H   UNL     1       6.738  28.755  58.794  1.00  0.00     0.169 HD
BRANCH   8  11
HETATM   11  C   UNL     1       8.313  30.426  59.552  1.00  0.00     0.126 A 
HETATM   12  N   UNL     1       9.201  30.265  60.576  1.00  0.00    -0.255 NA
HETATM   13  C   UNL     1       9.034  31.060  61.655  1.00  0.00     0.119 A 
HETATM   14  C   UNL     1       8.030  32.006  61.759  1.00  0.00     0.043 A 
HETATM   15  C   UNL     1       7.146  32.137  60.694  1.00  0.00     0.037 A 
HETATM   16 CL   UNL     1       5.887  33.306  60.777  1.00  0.00    -0.084 Cl
HETATM   17  C   UNL     1       7.273  31.341  59.567  1.00  0.00     0.061 A 
ENDBRANCH   8  11
ENDBRANCH   4   7
BRANCH   1  18
HETATM   18  N   UNL     1       7.426  24.453  54.396  1.00  0.00    -0.328 N 
HETATM   19  C   UNL     1       8.288  23.372  54.335  1.00  0.00     0.218 C 
HETATM   20  C   UNL     1       8.046  22.532  53.105  1.00  0.00     0.117 C 
HETATM   21  O   UNL     1       9.172  23.082  55.132  1.00  0.00    -0.274 OA
HETATM   22  H   UNL     1       6.757  24.542  53.642  1.00  0.00     0.169 HD
ENDBRANCH   1  18
TORSDOF 3
ENDMDL
MODEL 9
REMARK VINA RESULT:      -7.1     12.284     13.994
REMARK  3 active torsions:
REMARK  status: ('A' for Active; 'I' for Inactive)
REMARK       I    between atoms: C_2  and  N_3 
REMARK    1  A    between atoms: N_3  and  C_4 
REMARK    2  A    between atoms: C_7  and  N_8 
REMARK       I    between atoms: N_8  and  C_9 
REMARK    3  A    between atoms: C_9  and  C_10 
ROOT
HETATM    1  C   UNL     1       4.270  28.027  51.207  1.00  0.00     0.034 A 
HETATM    2  C   UNL     1       4.184  27.859  52.592  1.00  0.00     0.032 A 
HETATM    3  C   UNL     1       4.697  26.713  53.213  1.00  0.00     0.032 A 
HETATM    4  C   UNL     1       5.305  25.714  52.455  1.00  0.00     0.035 A 
HETATM    5  C   UNL     1       5.365  25.867  51.067  1.00  0.00     0.032 A 
HETATM    6  C   UNL     1       4.854  27.014  50.447  1.00  0.00     0.032 A 
ENDROOT
BRANCH   4   7
HETATM    7  N   UNL     1       5.895  24.563  53.003  1.00  0.00    -0.322 N 
HETATM    8  C   UNL     1       7.078  24.460  53.708  1.00  0.00     0.274 C 
HETATM    9  O   UNL     1       7.814  25.373  54.066  1.00  0.00    -0.266 OA
HETATM   10  H   UNL     1       5.442  23.670  52.820  1.00  0.00     0.169 HD
BRANCH   8  11
HETATM   11  C   UNL     1       7.450  23.038  54.011  1.00  0.00     0.126 A 
HETATM   12  N   UNL     1       7.573  22.209  52.934  1.00  0.00    -0.255 NA
HETATM   13  C   UNL     1       7.941  20.935  53.188  1.00  0.00     0.119 A 
HETATM   14  C   UNL     1       8.193  20.451  54.459  1.00  0.00     0.043 A 
HETATM   15  C   UNL     1       8.055  21.328  55.528  1.00  0.00     0.037 A 
HETATM   16 CL   UNL     1       8.367  20.772  57.127  1.00  0.00    -0.084 Cl
HETATM   17  C   UNL     1       7.676  22.644  55.320  1.00  0.00     0.061 A 
ENDBRANCH   8  11
ENDBRANCH   4   7
BRANCH   1  18
HETATM   18  N   UNL     1       3.772  29.231  50.670  1.00  0.00    -0.328 N 
HETATM   19  C   UNL     1       2.583  29.422  49.989  1.00  0.00     0.218 C 
HETATM   20  C   UNL     1       2.434  30.844  49.509  1.00  0.00     0.117 C 
HETATM   21  O   UNL     1       1.720  28.583  49.753  1.00  0.00    -0.274 OA
HETATM   22  H   UNL     1       4.374  30.040  50.767  1.00  0.00     0.169 HD
ENDBRANCH   1  18
TORSDOF 3
ENDMDL
MODEL 10
REMARK VINA RESULT:      -6.9     12.027     14.349
REMARK  3 active torsions:
REMARK  status: ('A' for Active; 'I' for Inactive)
REMARK       I    between atoms: C_2  and  N_3 
REMARK    1  A    between atoms: N_3  and  C_4 
REMARK    2  A    between atoms: C_7  and  N_8 
REMARK       I    between atoms: N_8  and  C_9 
REMARK    3  A    between atoms: C_9  and  C_10 
ROOT
HETATM    1  C   UNL     1       6.822  24.249  53.911  1.00  0.00     0.034 A 
HETATM    2  C   UNL     1       7.669  24.485  52.824  1.00  0.00     0.032 A 
HETATM    3  C   UNL     1       7.219  25.184  51.697  1.00  0.00     0.032 A 
HETATM    4  C   UNL     1       5.911  25.659  51.639  1.00  0.00     0.035 A 
HETATM    5  C   UNL     1       5.054  25.398  52.712  1.00  0.00     0.032 A 
HETATM    6  C   UNL     1       5.505  24.701  53.840  1.00  0.00     0.032 A 
ENDROOT
BRANCH   4   7
HETATM    7  N   UNL     1       5.398  26.418  50.574  1.00  0.00    -0.322 N 
HETATM    8  C   UNL     1       5.264  27.789  50.485  1.00  0.00     0.274 C 
HETATM    9  O   UNL     1       5.644  28.629  51.294  1.00  0.00    -0.266 OA
HETATM   10  H   UNL     1       5.015  25.911  49.778  1.00  0.00     0.169 HD
BRANCH   8  11
HETATM   11  C   UNL     1       4.543  28.222  49.243  1.00  0.00     0.126 A 
HETATM   12  N   UNL     1       3.423  27.510  48.922  1.00  0.00    -0.255 NA
HETATM   13  C   UNL     1       2.743  27.909  47.827  1.00  0.00     0.119 A 
HETATM   14  C   UNL     1       3.123  28.981  47.040  1.00  0.00     0.043 A 
HETATM   15  C   UNL     1       4.269  29.679  47.400  1.00  0.00     0.037 A 
HETATM   16 CL   UNL     1       4.775  31.026  46.455  1.00  0.00    -0.084 Cl
HETATM   17  C   UNL     1       5.005  29.306  48.514  1.00  0.00     0.061 A 
ENDBRANCH   8  11
ENDBRANCH   4   7
BRANCH   1  18
HETATM   18  N   UNL     1       7.369  23.580  55.024  1.00  0.00    -0.328 N 
HETATM   19  C   UNL     1       7.911  24.146  56.164  1.00  0.00     0.218 C 
HETATM   20  C   UNL     1       8.457  23.100  57.104  1.00  0.00     0.117 C 
HETATM   21  O   UNL     1       7.989  25.339  56.435  1.00  0.00    -0.274 OA
HETATM   22  H   UNL     1       7.394  22.570  54.963  1.00  0.00     0.169 HD
ENDBRANCH   1  18
TORSDOF 3
ENDMDL
