MODEL 1
REMARK VINA RESULT:     -10.6      0.000      0.000
REMARK  4 active torsions:
REMARK  status: ('A' for Active; 'I' for Inactive)
REMARK    1  A    between atoms: C_3  and  C_4 
REMARK    2  A    between atoms: C_5  and  C_6 
REMARK       I    between atoms: C_6  and  N_7 
REMARK    3  A    between atoms: N_7  and  C_8 
REMARK    4  A    between atoms: C_15  and  C_16 
REMARK       I    between atoms: C_16  and  N_17 
ROOT
HETATM    1  C   UNL     1       8.517  28.543  57.173  1.00  0.00     0.035 A 
HETATM    2  C   UNL     1       7.872  29.390  58.084  1.00  0.00     0.046 A 
HETATM    3  C   UNL     1       8.541  30.536  58.569  1.00  0.00     0.030 A 
HETATM    4  C   UNL     1       9.831  30.796  58.125  1.00  0.00     0.063 A 
HETATM    5  N   UNL     1      10.209  31.945  58.764  1.00  0.00    -0.277 N 
HETATM    6  H   UNL     1      11.096  32.429  58.682  1.00  0.00     0.189 HD
HETATM    7  N   UNL     1       9.276  32.461  59.581  1.00  0.00    -0.168 NA
HETATM    8  C   UNL     1       8.237  31.600  59.471  1.00  0.00     0.156 A 
HETATM    9  C   UNL     1      10.503  29.980  57.213  1.00  0.00     0.034 A 
HETATM   10  C   UNL     1       9.817  28.852  56.746  1.00  0.00     0.032 A 
ENDROOT
BRANCH   1  11
HETATM   11  N   UNL     1       7.939  27.367  56.648  1.00  0.00    -0.327 N 
HETATM   12  C   UNL     1       7.728  26.173  57.305  1.00  0.00     0.227 C 
HETATM   13  O   UNL     1       7.981  25.925  58.474  1.00  0.00    -0.273 OA
HETATM   14  H   UNL     1       7.695  27.396  55.669  1.00  0.00     0.169 HD
BRANCH  12  15
HETATM   15  C   UNL     1       7.165  25.061  56.482  1.00  0.00     0.087 A 
HETATM   16  C   UNL     1       8.036  24.385  55.427  1.00  0.00     0.034 A 
HETATM   17  C   UNL     1       6.787  25.138  55.031  1.00  0.00     0.025 A 
BRANCH  16  18
HETATM   18  C   UNL     1       8.106  22.870  55.413  1.00  0.00    -0.031 A 
HETATM   19  C   UNL     1       8.363  22.180  56.616  1.00  0.00     0.009 A 
HETATM   20  C   UNL     1       8.466  20.787  56.662  1.00  0.00     0.001 A 
HETATM   21  C   UNL     1       8.319  20.042  55.497  1.00  0.00     0.002 A 
HETATM   22  C   UNL     1       8.080  20.693  54.289  1.00  0.00     0.024 A 
HETATM   23  C   UNL     1       7.984  22.089  54.247  1.00  0.00     0.040 A 
HETATM   24 CL   UNL     1       7.738  22.824  52.700  1.00  0.00    -0.084 Cl
ENDBRANCH  16  18
ENDBRANCH  12  15
ENDBRANCH   1  11
BRANCH   8  25
HETATM   25  C   UNL     1       6.992  31.813  60.220  1.00  0.00     0.270 C 
HETATM   26  N   UNL     1       6.975  31.224  61.456  1.00  0.00    -0.365 N 
HETATM   27  H   UNL     1       7.792  30.708  61.758  1.00  0.00     0.159 HD
HETATM   28  H   UNL     1       6.163  31.323  62.044  1.00  0.00     0.159 HD
HETATM   29  O   UNL     1       6.029  32.454  59.812  1.00  0.00    -0.266 OA
ENDBRANCH   8  25
TORSDOF 4
ENDMDL
MODEL 2
REMARK VINA RESULT:     -10.0      2.338      2.731
REMARK  4 active torsions:
REMARK  status: ('A' for Active; 'I' for Inactive)
REMARK    1  A    between atoms: C_3  and  C_4 
REMARK    2  A    between atoms: C_5  and  C_6 
REMARK       I    between atoms: C_6  and  N_7 
REMARK    3  A    between atoms: N_7  and  C_8 
REMARK    4  A    between atoms: C_15  and  C_16 
REMARK       I    between atoms: C_16  and  N_17 
ROOT
HETATM    1  C   UNL     1       7.424  27.954  56.473  1.00  0.00     0.035 A 
HETATM    2  C   UNL     1       6.374  28.817  56.812  1.00  0.00     0.046 A 
HETATM    3  C   UNL     1       6.640  29.974  57.579  1.00  0.00     0.030 A 
HETATM    4  C   UNL     1       7.945  30.227  57.978  1.00  0.00     0.063 A 
HETATM    5  N   UNL     1       7.885  31.389  58.697  1.00  0.00    -0.277 N 
HETATM    6  H   UNL     1       8.654  31.873  59.147  1.00  0.00     0.189 HD
HETATM    7  N   UNL     1       6.656  31.919  58.797  1.00  0.00    -0.168 NA
HETATM    8  C   UNL     1       5.873  31.055  58.109  1.00  0.00     0.156 A 
HETATM    9  C   UNL     1       9.017  29.394  57.653  1.00  0.00     0.034 A 
HETATM   10  C   UNL     1       8.728  28.255  56.890  1.00  0.00     0.032 A 
ENDROOT
BRANCH   1  11
HETATM   11  N   UNL     1       7.254  26.766  55.728  1.00  0.00    -0.327 N 
HETATM   12  C   UNL     1       7.271  26.629  54.356  1.00  0.00     0.227 C 
HETATM   13  O   UNL     1       7.465  27.512  53.534  1.00  0.00    -0.273 OA
HETATM   14  H   UNL     1       7.054  25.935  56.265  1.00  0.00     0.169 HD
BRANCH  12  15
HETATM   15  C   UNL     1       6.987  25.261  53.829  1.00  0.00     0.087 A 
HETATM   16  C   UNL     1       8.135  24.391  53.325  1.00  0.00     0.034 A 
HETATM   17  C   UNL     1       7.036  24.839  52.389  1.00  0.00     0.025 A 
BRANCH  16  18
HETATM   18  C   UNL     1       8.236  22.965  53.832  1.00  0.00    -0.031 A 
HETATM   19  C   UNL     1       7.871  21.902  52.980  1.00  0.00     0.009 A 
HETATM   20  C   UNL     1       7.918  20.570  53.399  1.00  0.00     0.001 A 
HETATM   21  C   UNL     1       8.328  20.263  54.691  1.00  0.00     0.002 A 
HETATM   22  C   UNL     1       8.680  21.290  55.564  1.00  0.00     0.024 A 
HETATM   23  C   UNL     1       8.626  22.624  55.142  1.00  0.00     0.040 A 
HETATM   24 CL   UNL     1       9.030  23.843  56.302  1.00  0.00    -0.084 Cl
ENDBRANCH  16  18
ENDBRANCH  12  15
ENDBRANCH   1  11
BRANCH   8  25
HETATM   25  C   UNL     1       4.427  31.281  57.975  1.00  0.00     0.270 C 
HETATM   26  N   UNL     1       3.658  30.438  58.730  1.00  0.00    -0.365 N 
HETATM   27  H   UNL     1       4.119  29.749  59.310  1.00  0.00     0.159 HD
HETATM   28  H   UNL     1       2.654  30.524  58.705  1.00  0.00     0.159 HD
HETATM   29  O   UNL     1       3.915  32.137  57.261  1.00  0.00    -0.266 OA
ENDBRANCH   8  25
TORSDOF 4
ENDMDL
MODEL 3
REMARK VINA RESULT:      -9.9      2.635      3.432
REMARK  4 active torsions:
REMARK  status: ('A' for Active; 'I' for Inactive)
REMARK    1  A    between atoms: C_3  and  C_4 
REMARK    2  A    between atoms: C_5  and  C_6 
REMARK       I    between atoms: C_6  and  N_7 
REMARK    3  A    between atoms: N_7  and  C_8 
REMARK    4  A    between atoms: C_15  and  C_16 
REMARK       I    between atoms: C_16  and  N_17 
ROOT
HETATM    1  C   UNL     1       5.913  27.834  56.069  1.00  0.00     0.035 A 
HETATM    2  C   UNL     1       6.864  28.413  56.920  1.00  0.00     0.046 A 
HETATM    3  C   UNL     1       6.531  29.572  57.656  1.00  0.00     0.030 A 
HETATM    4  C   UNL     1       5.259  30.112  57.516  1.00  0.00     0.063 A 
HETATM    5  N   UNL     1       5.240  31.209  58.331  1.00  0.00    -0.277 N 
HETATM    6  H   UNL     1       4.470  31.852  58.477  1.00  0.00     0.189 HD
HETATM    7  N   UNL     1       6.386  31.430  58.995  1.00  0.00    -0.168 NA
HETATM    8  C   UNL     1       7.195  30.424  58.588  1.00  0.00     0.156 A 
HETATM    9  C   UNL     1       4.284  29.560  56.684  1.00  0.00     0.034 A 
HETATM   10  C   UNL     1       4.638  28.409  55.967  1.00  0.00     0.032 A 
ENDROOT
BRANCH   1  11
HETATM   11  N   UNL     1       6.158  26.689  55.280  1.00  0.00    -0.327 N 
HETATM   12  C   UNL     1       6.638  26.650  53.987  1.00  0.00     0.227 C 
HETATM   13  O   UNL     1       6.965  27.604  53.298  1.00  0.00    -0.273 OA
HETATM   14  H   UNL     1       5.910  25.805  55.699  1.00  0.00     0.169 HD
BRANCH  12  15
HETATM   15  C   UNL     1       6.729  25.297  53.362  1.00  0.00     0.087 A 
HETATM   16  C   UNL     1       8.044  24.525  53.419  1.00  0.00     0.034 A 
HETATM   17  C   UNL     1       7.457  24.956  52.094  1.00  0.00     0.025 A 
BRANCH  16  18
HETATM   18  C   UNL     1       8.014  23.083  53.888  1.00  0.00    -0.031 A 
HETATM   19  C   UNL     1       7.984  22.047  52.932  1.00  0.00     0.009 A 
HETATM   20  C   UNL     1       7.930  20.701  53.302  1.00  0.00     0.001 A 
HETATM   21  C   UNL     1       7.898  20.352  54.648  1.00  0.00     0.002 A 
HETATM   22  C   UNL     1       7.911  21.351  55.618  1.00  0.00     0.024 A 
HETATM   23  C   UNL     1       7.959  22.699  55.242  1.00  0.00     0.040 A 
HETATM   24 CL   UNL     1       7.920  23.880  56.506  1.00  0.00    -0.084 Cl
ENDBRANCH  16  18
ENDBRANCH  12  15
ENDBRANCH   1  11
BRANCH   8  25
HETATM   25  C   UNL     1       8.569  30.302  59.095  1.00  0.00     0.270 C 
HETATM   26  N   UNL     1       8.662  30.293  60.460  1.00  0.00    -0.365 N 
HETATM   27  H   UNL     1       7.812  30.362  61.005  1.00  0.00     0.159 HD
HETATM   28  H   UNL     1       9.566  30.206  60.897  1.00  0.00     0.159 HD
HETATM   29  O   UNL     1       9.570  30.212  58.392  1.00  0.00    -0.266 OA
ENDBRANCH   8  25
TORSDOF 4
ENDMDL
MODEL 4
REMARK VINA RESULT:      -9.6      5.909      8.612
REMARK  4 active torsions:
REMARK  status: ('A' for Active; 'I' for Inactive)
REMARK    1  A    between atoms: C_3  and  C_4 
REMARK    2  A    between atoms: C_5  and  C_6 
REMARK       I    between atoms: C_6  and  N_7 
REMARK    3  A    between atoms: N_7  and  C_8 
REMARK    4  A    between atoms: C_15  and  C_16 
REMARK       I    between atoms: C_16  and  N_17 
ROOT
HETATM    1  C   UNL     1       5.600  26.785  51.369  1.00  0.00     0.035 A 
HETATM    2  C   UNL     1       4.880  26.060  50.410  1.00  0.00     0.046 A 
HETATM    3  C   UNL     1       4.299  26.735  49.314  1.00  0.00     0.030 A 
HETATM    4  C   UNL     1       4.459  28.110  49.212  1.00  0.00     0.063 A 
HETATM    5  N   UNL     1       3.792  28.470  48.075  1.00  0.00    -0.277 N 
HETATM    6  H   UNL     1       3.694  29.402  47.690  1.00  0.00     0.189 HD
HETATM    7  N   UNL     1       3.215  27.449  47.421  1.00  0.00    -0.168 NA
HETATM    8  C   UNL     1       3.520  26.367  48.175  1.00  0.00     0.156 A 
HETATM    9  C   UNL     1       5.175  28.865  50.143  1.00  0.00     0.034 A 
HETATM   10  C   UNL     1       5.744  28.172  51.220  1.00  0.00     0.032 A 
ENDROOT
BRANCH   1  11
HETATM   11  N   UNL     1       6.200  26.203  52.507  1.00  0.00    -0.327 N 
HETATM   12  C   UNL     1       7.232  25.289  52.535  1.00  0.00     0.227 C 
HETATM   13  O   UNL     1       7.835  24.836  51.574  1.00  0.00    -0.273 OA
HETATM   14  H   UNL     1       5.792  26.455  53.396  1.00  0.00     0.169 HD
BRANCH  12  15
HETATM   15  C   UNL     1       7.621  24.779  53.883  1.00  0.00     0.087 A 
HETATM   16  C   UNL     1       6.809  23.662  54.532  1.00  0.00     0.034 A 
HETATM   17  C   UNL     1       6.890  25.030  55.169  1.00  0.00     0.025 A 
BRANCH  16  18
HETATM   18  C   UNL     1       7.550  22.462  55.092  1.00  0.00    -0.031 A 
HETATM   19  C   UNL     1       7.835  22.409  56.472  1.00  0.00     0.009 A 
HETATM   20  C   UNL     1       8.537  21.345  57.041  1.00  0.00     0.001 A 
HETATM   21  C   UNL     1       8.981  20.298  56.240  1.00  0.00     0.002 A 
HETATM   22  C   UNL     1       8.730  20.326  54.870  1.00  0.00     0.024 A 
HETATM   23  C   UNL     1       8.031  21.399  54.303  1.00  0.00     0.040 A 
HETATM   24 CL   UNL     1       7.806  21.385  52.588  1.00  0.00    -0.084 Cl
ENDBRANCH  16  18
ENDBRANCH  12  15
ENDBRANCH   1  11
BRANCH   8  25
HETATM   25  C   UNL     1       3.067  25.022  47.794  1.00  0.00     0.270 C 
HETATM   26  N   UNL     1       2.710  24.905  46.478  1.00  0.00    -0.365 N 
HETATM   27  H   UNL     1       2.784  25.718  45.881  1.00  0.00     0.159 HD
HETATM   28  H   UNL     1       2.392  24.016  46.126  1.00  0.00     0.159 HD
HETATM   29  O   UNL     1       3.001  24.063  48.556  1.00  0.00    -0.266 OA
ENDBRANCH   8  25
TORSDOF 4
ENDMDL
MODEL 5
REMARK VINA RESULT:      -9.6      3.678      8.953
REMARK  4 active torsions:
REMARK  status: ('A' for Active; 'I' for Inactive)
REMARK    1  A    between atoms: C_3  and  C_4 
REMARK    2  A    between atoms: C_5  and  C_6 
REMARK       I    between atoms: C_6  and  N_7 
REMARK    3  A    between atoms: N_7  and  C_8 
REMARK    4  A    between atoms: C_15  and  C_16 
REMARK       I    between atoms: C_16  and  N_17 
ROOT
HETATM    1  C   UNL     1       7.300  25.108  54.917  1.00  0.00     0.035 A 
HETATM    2  C   UNL     1       7.750  23.921  55.510  1.00  0.00     0.046 A 
HETATM    3  C   UNL     1       7.927  22.766  54.717  1.00  0.00     0.030 A 
HETATM    4  C   UNL     1       7.651  22.837  53.358  1.00  0.00     0.063 A 
HETATM    5  N   UNL     1       7.905  21.586  52.870  1.00  0.00    -0.277 N 
HETATM    6  H   UNL     1       7.808  21.269  51.912  1.00  0.00     0.189 HD
HETATM    7  N   UNL     1       8.329  20.704  53.790  1.00  0.00    -0.168 NA
HETATM    8  C   UNL     1       8.349  21.420  54.939  1.00  0.00     0.156 A 
HETATM    9  C   UNL     1       7.208  24.003  52.730  1.00  0.00     0.034 A 
HETATM   10  C   UNL     1       7.043  25.136  53.539  1.00  0.00     0.032 A 
ENDROOT
BRANCH   1  11
HETATM   11  N   UNL     1       7.075  26.306  55.629  1.00  0.00    -0.327 N 
HETATM   12  C   UNL     1       7.493  27.575  55.286  1.00  0.00     0.227 C 
HETATM   13  O   UNL     1       8.113  27.896  54.284  1.00  0.00    -0.273 OA
HETATM   14  H   UNL     1       6.592  26.209  56.510  1.00  0.00     0.169 HD
BRANCH  12  15
HETATM   15  C   UNL     1       7.180  28.656  56.267  1.00  0.00     0.087 A 
HETATM   16  C   UNL     1       7.732  28.572  57.687  1.00  0.00     0.034 A 
HETATM   17  C   UNL     1       6.242  28.549  57.434  1.00  0.00     0.025 A 
BRANCH  16  18
HETATM   18  C   UNL     1       8.437  29.787  58.261  1.00  0.00    -0.031 A 
HETATM   19  C   UNL     1       7.769  30.589  59.209  1.00  0.00     0.009 A 
HETATM   20  C   UNL     1       8.356  31.734  59.753  1.00  0.00     0.001 A 
HETATM   21  C   UNL     1       9.634  32.114  59.357  1.00  0.00     0.002 A 
HETATM   22  C   UNL     1      10.315  31.352  58.410  1.00  0.00     0.024 A 
HETATM   23  C   UNL     1       9.721  30.209  57.863  1.00  0.00     0.040 A 
HETATM   24 CL   UNL     1      10.612  29.348  56.656  1.00  0.00    -0.084 Cl
ENDBRANCH  16  18
ENDBRANCH  12  15
ENDBRANCH   1  11
BRANCH   8  25
HETATM   25  C   UNL     1       8.767  20.808  56.208  1.00  0.00     0.270 C 
HETATM   26  N   UNL     1       9.779  19.896  56.082  1.00  0.00    -0.365 N 
HETATM   27  H   UNL     1      10.159  19.716  55.161  1.00  0.00     0.159 HD
HETATM   28  H   UNL     1      10.135  19.430  56.901  1.00  0.00     0.159 HD
HETATM   29  O   UNL     1       8.280  21.066  57.303  1.00  0.00    -0.266 OA
ENDBRANCH   8  25
TORSDOF 4
ENDMDL
MODEL 6
REMARK VINA RESULT:      -9.4      5.083      9.533
REMARK  4 active torsions:
REMARK  status: ('A' for Active; 'I' for Inactive)
REMARK    1  A    between atoms: C_3  and  C_4 
REMARK    2  A    between atoms: C_5  and  C_6 
REMARK       I    between atoms: C_6  and  N_7 
REMARK    3  A    between atoms: N_7  and  C_8 
REMARK    4  A    between atoms: C_15  and  C_16 
REMARK       I    between atoms: C_16  and  N_17 
ROOT
HETATM    1  C   UNL     1       8.052  29.638  58.198  1.00  0.00     0.035 A 
HETATM    2  C   UNL     1       6.919  29.179  57.514  1.00  0.00     0.046 A 
HETATM    3  C   UNL     1       7.026  28.801  56.157  1.00  0.00     0.030 A 
HETATM    4  C   UNL     1       8.262  28.893  55.532  1.00  0.00     0.063 A 
HETATM    5  N   UNL     1       8.051  28.474  54.248  1.00  0.00    -0.277 N 
HETATM    6  H   UNL     1       8.734  28.412  53.502  1.00  0.00     0.189 HD
HETATM    7  N   UNL     1       6.786  28.109  53.982  1.00  0.00    -0.168 NA
HETATM    8  C   UNL     1       6.139  28.306  55.154  1.00  0.00     0.156 A 
HETATM    9  C   UNL     1       9.414  29.339  56.182  1.00  0.00     0.034 A 
HETATM   10  C   UNL     1       9.282  29.705  57.528  1.00  0.00     0.032 A 
ENDROOT
BRANCH   1  11
HETATM   11  N   UNL     1       8.040  30.056  59.547  1.00  0.00    -0.327 N 
HETATM   12  C   UNL     1       7.715  31.304  60.033  1.00  0.00     0.227 C 
HETATM   13  O   UNL     1       7.351  32.272  59.383  1.00  0.00    -0.273 OA
HETATM   14  H   UNL     1       8.348  29.371  60.222  1.00  0.00     0.169 HD
BRANCH  12  15
HETATM   15  C   UNL     1       7.862  31.493  61.508  1.00  0.00     0.087 A 
HETATM   16  C   UNL     1       7.917  32.903  62.088  1.00  0.00     0.034 A 
HETATM   17  C   UNL     1       9.095  31.966  62.221  1.00  0.00     0.025 A 
BRANCH  16  18
HETATM   18  C   UNL     1       7.012  33.238  63.258  1.00  0.00    -0.031 A 
HETATM   19  C   UNL     1       7.575  33.406  64.540  1.00  0.00     0.009 A 
HETATM   20  C   UNL     1       6.791  33.689  65.660  1.00  0.00     0.001 A 
HETATM   21  C   UNL     1       5.411  33.807  65.530  1.00  0.00     0.002 A 
HETATM   22  C   UNL     1       4.821  33.632  64.281  1.00  0.00     0.024 A 
HETATM   23  C   UNL     1       5.611  33.342  63.161  1.00  0.00     0.040 A 
HETATM   24 CL   UNL     1       4.796  33.088  61.656  1.00  0.00    -0.084 Cl
ENDBRANCH  16  18
ENDBRANCH  12  15
ENDBRANCH   1  11
BRANCH   8  25
HETATM   25  C   UNL     1       4.704  28.018  55.288  1.00  0.00     0.270 C 
HETATM   26  N   UNL     1       4.403  27.125  56.280  1.00  0.00    -0.365 N 
HETATM   27  H   UNL     1       5.159  26.743  56.835  1.00  0.00     0.159 HD
HETATM   28  H   UNL     1       3.443  26.872  56.448  1.00  0.00     0.159 HD
HETATM   29  O   UNL     1       3.823  28.513  54.593  1.00  0.00    -0.266 OA
ENDBRANCH   8  25
TORSDOF 4
ENDMDL
MODEL 7
REMARK VINA RESULT:      -9.3      2.056      2.631
REMARK  4 active torsions:
REMARK  status: ('A' for Active; 'I' for Inactive)
REMARK    1  A    between atoms: C_3  and  C_4 
REMARK    2  A    between atoms: C_5  and  C_6 
REMARK       I    between atoms: C_6  and  N_7 
REMARK    3  A    between atoms: N_7  and  C_8 
REMARK    4  A    between atoms: C_15  and  C_16 
REMARK       I    between atoms: C_16  and  N_17 
ROOT
HETATM    1  C   UNL     1       6.976  28.510  56.624  1.00  0.00     0.035 A 
HETATM    2  C   UNL     1       7.381  29.378  57.647  1.00  0.00     0.046 A 
HETATM    3  C   UNL     1       6.745  30.631  57.794  1.00  0.00     0.030 A 
HETATM    4  C   UNL     1       5.725  30.972  56.915  1.00  0.00     0.063 A 
HETATM    5  N   UNL     1       5.320  32.220  57.297  1.00  0.00    -0.277 N 
HETATM    6  H   UNL     1       4.592  32.785  56.875  1.00  0.00     0.189 HD
HETATM    7  N   UNL     1       5.981  32.722  58.353  1.00  0.00    -0.168 NA
HETATM    8  C   UNL     1       6.867  31.749  58.673  1.00  0.00     0.156 A 
HETATM    9  C   UNL     1       5.290  30.130  55.890  1.00  0.00     0.034 A 
HETATM   10  C   UNL     1       5.935  28.893  55.767  1.00  0.00     0.032 A 
ENDROOT
BRANCH   1  11
HETATM   11  N   UNL     1       7.563  27.248  56.387  1.00  0.00    -0.327 N 
HETATM   12  C   UNL     1       7.851  26.270  57.316  1.00  0.00     0.227 C 
HETATM   13  O   UNL     1       7.622  26.309  58.515  1.00  0.00    -0.273 OA
HETATM   14  H   UNL     1       7.842  27.066  55.434  1.00  0.00     0.169 HD
BRANCH  12  15
HETATM   15  C   UNL     1       8.546  25.055  56.796  1.00  0.00     0.087 A 
HETATM   16  C   UNL     1       7.774  23.747  56.647  1.00  0.00     0.034 A 
HETATM   17  C   UNL     1       8.944  23.852  57.599  1.00  0.00     0.025 A 
BRANCH  16  18
HETATM   18  C   UNL     1       7.866  23.001  55.330  1.00  0.00    -0.031 A 
HETATM   19  C   UNL     1       8.699  21.867  55.236  1.00  0.00     0.009 A 
HETATM   20  C   UNL     1       8.844  21.154  54.044  1.00  0.00     0.001 A 
HETATM   21  C   UNL     1       8.161  21.562  52.903  1.00  0.00     0.002 A 
HETATM   22  C   UNL     1       7.343  22.687  52.957  1.00  0.00     0.024 A 
HETATM   23  C   UNL     1       7.204  23.402  54.153  1.00  0.00     0.040 A 
HETATM   24 CL   UNL     1       6.210  24.818  54.124  1.00  0.00    -0.084 Cl
ENDBRANCH  16  18
ENDBRANCH  12  15
ENDBRANCH   1  11
BRANCH   8  25
HETATM   25  C   UNL     1       7.798  31.909  59.798  1.00  0.00     0.270 C 
HETATM   26  N   UNL     1       7.552  31.071  60.851  1.00  0.00    -0.365 N 
HETATM   27  H   UNL     1       6.779  30.420  60.782  1.00  0.00     0.159 HD
HETATM   28  H   UNL     1       8.144  31.106  61.665  1.00  0.00     0.159 HD
HETATM   29  O   UNL     1       8.726  32.710  59.831  1.00  0.00    -0.266 OA
ENDBRANCH   8  25
TORSDOF 4
ENDMDL
MODEL 8
REMARK VINA RESULT:      -9.2      5.679      8.014
REMARK  4 active torsions:
REMARK  status: ('A' for Active; 'I' for Inactive)
REMARK    1  A    between atoms: C_3  and  C_4 
REMARK    2  A    between atoms: C_5  and  C_6 
REMARK       I    between atoms: C_6  and  N_7 
REMARK    3  A    between atoms: N_7  and  C_8 
REMARK    4  A    between atoms: C_15  and  C_16 
REMARK       I    between atoms: C_16  and  N_17 
ROOT
HETATM    1  C   UNL     1       5.843  27.181  51.716  1.00  0.00     0.035 A 
HETATM    2  C   UNL     1       5.073  26.826  50.600  1.00  0.00     0.046 A 
HETATM    3  C   UNL     1       4.293  27.807  49.948  1.00  0.00     0.030 A 
HETATM    4  C   UNL     1       4.311  29.108  50.432  1.00  0.00     0.063 A 
HETATM    5  N   UNL     1       3.469  29.810  49.615  1.00  0.00    -0.277 N 
HETATM    6  H   UNL     1       3.236  30.795  49.675  1.00  0.00     0.189 HD
HETATM    7  N   UNL     1       2.909  29.083  48.635  1.00  0.00    -0.168 NA
HETATM    8  C   UNL     1       3.409  27.840  48.827  1.00  0.00     0.156 A 
HETATM    9  C   UNL     1       5.070  29.500  51.536  1.00  0.00     0.034 A 
HETATM   10  C   UNL     1       5.837  28.510  52.164  1.00  0.00     0.032 A 
ENDROOT
BRANCH   1  11
HETATM   11  N   UNL     1       6.638  26.269  52.444  1.00  0.00    -0.327 N 
HETATM   12  C   UNL     1       6.444  25.840  53.740  1.00  0.00     0.227 C 
HETATM   13  O   UNL     1       5.529  26.151  54.486  1.00  0.00    -0.273 OA
HETATM   14  H   UNL     1       7.464  25.932  51.972  1.00  0.00     0.169 HD
BRANCH  12  15
HETATM   15  C   UNL     1       7.488  24.925  54.291  1.00  0.00     0.087 A 
HETATM   16  C   UNL     1       7.070  23.649  55.015  1.00  0.00     0.034 A 
HETATM   17  C   UNL     1       7.825  24.738  55.742  1.00  0.00     0.025 A 
BRANCH  16  18
HETATM   18  C   UNL     1       7.723  22.341  54.611  1.00  0.00    -0.031 A 
HETATM   19  C   UNL     1       7.745  21.973  53.250  1.00  0.00     0.009 A 
HETATM   20  C   UNL     1       8.308  20.770  52.819  1.00  0.00     0.001 A 
HETATM   21  C   UNL     1       8.865  19.893  53.744  1.00  0.00     0.002 A 
HETATM   22  C   UNL     1       8.846  20.219  55.098  1.00  0.00     0.024 A 
HETATM   23  C   UNL     1       8.275  21.424  55.526  1.00  0.00     0.040 A 
HETATM   24 CL   UNL     1       8.245  21.730  57.228  1.00  0.00    -0.084 Cl
ENDBRANCH  16  18
ENDBRANCH  12  15
ENDBRANCH   1  11
BRANCH   8  25
HETATM   25  C   UNL     1       3.036  26.726  47.945  1.00  0.00     0.270 C 
HETATM   26  N   UNL     1       1.765  26.259  48.141  1.00  0.00    -0.365 N 
HETATM   27  H   UNL     1       1.190  26.699  48.849  1.00  0.00     0.159 HD
HETATM   28  H   UNL     1       1.421  25.499  47.576  1.00  0.00     0.159 HD
HETATM   29  O   UNL     1       3.769  26.231  47.094  1.00  0.00    -0.266 OA
ENDBRANCH   8  25
TORSDOF 4
ENDMDL
MODEL 9
REMARK VINA RESULT:      -8.9      2.553      3.416
REMARK  4 active torsions:
REMARK  status: ('A' for Active; 'I' for Inactive)
REMARK    1  A    between atoms: C_3  and  C_4 
REMARK    2  A    between atoms: C_5  and  C_6 
REMARK       I    between atoms: C_6  and  N_7 
REMARK    3  A    between atoms: N_7  and  C_8 
REMARK    4  A    between atoms: C_15  and  C_16 
REMARK       I    between atoms: C_16  and  N_17 
ROOT
HETATM    1  C   UNL     1       8.499  28.985  57.247  1.00  0.00     0.035 A 
HETATM    2  C   UNL     1       7.918  29.694  58.306  1.00  0.00     0.046 A 
HETATM    3  C   UNL     1       8.652  30.713  58.952  1.00  0.00     0.030 A 
HETATM    4  C   UNL     1       9.941  30.990  58.516  1.00  0.00     0.063 A 
HETATM    5  N   UNL     1      10.389  31.998  59.323  1.00  0.00    -0.277 N 
HETATM    6  H   UNL     1      11.295  32.451  59.294  1.00  0.00     0.189 HD
HETATM    7  N   UNL     1       9.503  32.409  60.245  1.00  0.00    -0.168 NA
HETATM    8  C   UNL     1       8.422  31.623  60.028  1.00  0.00     0.156 A 
HETATM    9  C   UNL     1      10.550  30.310  57.459  1.00  0.00     0.034 A 
HETATM   10  C   UNL     1       9.800  29.305  56.834  1.00  0.00     0.032 A 
ENDROOT
BRANCH   1  11
HETATM   11  N   UNL     1       7.852  27.939  56.553  1.00  0.00    -0.327 N 
HETATM   12  C   UNL     1       7.729  26.623  56.949  1.00  0.00     0.227 C 
HETATM   13  O   UNL     1       8.135  26.130  57.990  1.00  0.00    -0.273 OA
HETATM   14  H   UNL     1       7.480  28.177  55.646  1.00  0.00     0.169 HD
BRANCH  12  15
HETATM   15  C   UNL     1       7.057  25.707  55.980  1.00  0.00     0.087 A 
HETATM   16  C   UNL     1       5.705  26.092  55.387  1.00  0.00     0.034 A 
HETATM   17  C   UNL     1       5.847  24.862  56.254  1.00  0.00     0.025 A 
BRANCH  16  18
HETATM   18  C   UNL     1       5.525  26.007  53.883  1.00  0.00    -0.031 A 
HETATM   19  C   UNL     1       4.997  24.829  53.317  1.00  0.00     0.009 A 
HETATM   20  C   UNL     1       4.833  24.682  51.938  1.00  0.00     0.001 A 
HETATM   21  C   UNL     1       5.201  25.713  51.081  1.00  0.00     0.002 A 
HETATM   22  C   UNL     1       5.741  26.885  51.606  1.00  0.00     0.024 A 
HETATM   23  C   UNL     1       5.909  27.025  52.989  1.00  0.00     0.040 A 
HETATM   24 CL   UNL     1       6.634  28.490  53.558  1.00  0.00    -0.084 Cl
ENDBRANCH  16  18
ENDBRANCH  12  15
ENDBRANCH   1  11
BRANCH   8  25
HETATM   25  C   UNL     1       7.207  31.760  60.843  1.00  0.00     0.270 C 
HETATM   26  N   UNL     1       7.227  31.032  62.002  1.00  0.00    -0.365 N 
HETATM   27  H   UNL     1       8.046  30.475  62.211  1.00  0.00     0.159 HD
HETATM   28  H   UNL     1       6.438  31.069  62.627  1.00  0.00     0.159 HD
HETATM   29  O   UNL     1       6.240  32.455  60.549  1.00  0.00    -0.266 OA
ENDBRANCH   8  25
TORSDOF 4
ENDMDL
MODEL 10
REMARK VINA RESULT:      -8.7      3.972      4.652
REMARK  4 active torsions:
REMARK  status: ('A' for Active; 'I' for Inactive)
REMARK    1  A    between atoms: C_3  and  C_4 
REMARK    2  A    between atoms: C_5  and  C_6 
REMARK       I    between atoms: C_6  and  N_7 
REMARK    3  A    between atoms: N_7  and  C_8 
REMARK    4  A    between atoms: C_15  and  C_16 
REMARK       I    between atoms: C_16  and  N_17 
ROOT
HETATM    1  C   UNL     1       4.032  28.534  54.578  1.00  0.00     0.035 A 
HETATM    2  C   UNL     1       4.023  29.099  55.860  1.00  0.00     0.046 A 
HETATM    3  C   UNL     1       3.659  30.454  56.025  1.00  0.00     0.030 A 
HETATM    4  C   UNL     1       3.315  31.196  54.903  1.00  0.00     0.063 A 
HETATM    5  N   UNL     1       3.025  32.447  55.371  1.00  0.00    -0.277 N 
HETATM    6  H   UNL     1       2.738  33.254  54.829  1.00  0.00     0.189 HD
HETATM    7  N   UNL     1       3.143  32.585  56.702  1.00  0.00    -0.168 NA
HETATM    8  C   UNL     1       3.534  31.359  57.121  1.00  0.00     0.156 A 
HETATM    9  C   UNL     1       3.306  30.666  53.611  1.00  0.00     0.034 A 
HETATM   10  C   UNL     1       3.668  29.319  53.475  1.00  0.00     0.032 A 
ENDROOT
BRANCH   1  11
HETATM   11  N   UNL     1       4.399  27.196  54.311  1.00  0.00    -0.327 N 
HETATM   12  C   UNL     1       5.671  26.662  54.311  1.00  0.00     0.227 C 
HETATM   13  O   UNL     1       6.711  27.246  54.570  1.00  0.00    -0.273 OA
HETATM   14  H   UNL     1       3.646  26.578  54.048  1.00  0.00     0.169 HD
BRANCH  12  15
HETATM   15  C   UNL     1       5.778  25.225  53.916  1.00  0.00     0.087 A 
HETATM   16  C   UNL     1       7.047  24.722  53.234  1.00  0.00     0.034 A 
HETATM   17  C   UNL     1       5.716  24.684  52.518  1.00  0.00     0.025 A 
BRANCH  16  18
HETATM   18  C   UNL     1       7.710  23.470  53.776  1.00  0.00    -0.031 A 
HETATM   19  C   UNL     1       7.736  22.304  52.984  1.00  0.00     0.009 A 
HETATM   20  C   UNL     1       8.309  21.114  53.439  1.00  0.00     0.001 A 
HETATM   21  C   UNL     1       8.870  21.056  54.709  1.00  0.00     0.002 A 
HETATM   22  C   UNL     1       8.848  22.185  55.524  1.00  0.00     0.024 A 
HETATM   23  C   UNL     1       8.267  23.374  55.066  1.00  0.00     0.040 A 
HETATM   24 CL   UNL     1       8.233  24.716  56.158  1.00  0.00    -0.084 Cl
ENDBRANCH  16  18
ENDBRANCH  12  15
ENDBRANCH   1  11
BRANCH   8  25
HETATM   25  C   UNL     1       3.776  31.084  58.544  1.00  0.00     0.270 C 
HETATM   26  N   UNL     1       5.100  31.019  58.884  1.00  0.00    -0.365 N 
HETATM   27  H   UNL     1       5.794  31.165  58.161  1.00  0.00     0.159 HD
HETATM   28  H   UNL     1       5.360  30.841  59.840  1.00  0.00     0.159 HD
HETATM   29  O   UNL     1       2.898  30.922  59.385  1.00  0.00    -0.266 OA
ENDBRANCH   8  25
TORSDOF 4
ENDMDL
