MODEL 1
REMARK VINA RESULT:      -8.6      0.000      0.000
REMARK  5 active torsions:
REMARK  status: ('A' for Active; 'I' for Inactive)
REMARK    1  A    between atoms: C_6  and  C_7 
REMARK    2  A    between atoms: C_7  and  C_8 
REMARK    3  A    between atoms: C_8  and  C_9 
REMARK    4  A    between atoms: C_9  and  N_10 
REMARK    5  A    between atoms: C_9  and  C_14 
ROOT
HETATM    1  C   UNL     1       6.022  26.861  52.199  1.00  0.00     0.253 C 
ENDROOT
BRANCH   1   2
HETATM    2  C   UNL     1       6.364  25.398  51.851  1.00  0.00     0.048 C 
BRANCH   2   3
HETATM    3  C   UNL     1       7.802  24.936  52.129  1.00  0.00     0.081 C 
BRANCH   3   4
HETATM    4  C   UNL     1       7.847  23.858  53.153  1.00  0.00     0.105 A 
HETATM    5  N   UNL     1       7.740  22.569  52.888  1.00  0.00    -0.233 NA
HETATM    6  C   UNL     1       7.942  21.937  54.096  1.00  0.00     0.085 A 
HETATM    7  C   UNL     1       8.159  22.865  55.109  1.00  0.00     0.062 A 
HETATM    8  C   UNL     1       7.979  20.568  54.399  1.00  0.00     0.034 A 
HETATM    9  C   UNL     1       8.417  22.508  56.433  1.00  0.00     0.032 A 
HETATM   10  N   UNL     1       8.053  24.084  54.491  1.00  0.00    -0.343 N 
HETATM   11  C   UNL     1       8.461  21.138  56.715  1.00  0.00     0.002 A 
HETATM   12  C   UNL     1       8.244  20.183  55.720  1.00  0.00     0.002 A 
HETATM   13  H   UNL     1       8.147  24.983  54.945  1.00  0.00     0.167 HD
ENDBRANCH   3   4
ENDBRANCH   2   3
ENDBRANCH   1   2
BRANCH   1  14
HETATM   14  N   UNL     1       4.553  27.069  52.221  1.00  0.00    -0.068 N 
HETATM   15  H   UNL     1       4.300  27.981  51.826  1.00  0.00     0.275 HD
HETATM   16  H   UNL     1       4.092  26.364  51.636  1.00  0.00     0.275 HD
HETATM   17  H   UNL     1       4.203  26.961  53.191  1.00  0.00     0.275 HD
ENDBRANCH   1  14
BRANCH   1  18
HETATM   18  C   UNL     1       6.577  27.237  53.533  1.00  0.00     0.136 A 
HETATM   19  N   UNL     1       6.204  26.709  54.681  1.00  0.00    -0.231 NA
HETATM   20  C   UNL     1       6.935  27.369  55.642  1.00  0.00     0.085 A 
HETATM   21  C   UNL     1       7.744  28.341  55.062  1.00  0.00     0.062 A 
HETATM   22  C   UNL     1       6.956  27.200  57.033  1.00  0.00     0.034 A 
HETATM   23  N   UNL     1       7.504  28.235  53.718  1.00  0.00    -0.341 N 
HETATM   24  C   UNL     1       8.578  29.184  55.798  1.00  0.00     0.032 A 
HETATM   25  H   UNL     1       7.935  28.811  53.006  1.00  0.00     0.167 HD
HETATM   26  C   UNL     1       8.582  29.005  57.186  1.00  0.00     0.002 A 
HETATM   27  C   UNL     1       7.789  28.029  57.795  1.00  0.00     0.002 A 
ENDBRANCH   1  18
TORSDOF 5
ENDMDL
MODEL 2
REMARK VINA RESULT:      -8.5      2.153      3.049
REMARK  5 active torsions:
REMARK  status: ('A' for Active; 'I' for Inactive)
REMARK    1  A    between atoms: C_6  and  C_7 
REMARK    2  A    between atoms: C_7  and  C_8 
REMARK    3  A    between atoms: C_8  and  C_9 
REMARK    4  A    between atoms: C_9  and  N_10 
REMARK    5  A    between atoms: C_9  and  C_14 
ROOT
HETATM    1  C   UNL     1       5.724  26.925  56.164  1.00  0.00     0.253 C 
ENDROOT
BRANCH   1   2
HETATM    2  C   UNL     1       5.814  25.533  56.821  1.00  0.00     0.048 C 
BRANCH   2   3
HETATM    3  C   UNL     1       7.220  24.948  57.020  1.00  0.00     0.081 C 
BRANCH   3   4
HETATM    4  C   UNL     1       7.458  23.773  56.140  1.00  0.00     0.105 A 
HETATM    5  N   UNL     1       7.212  23.746  54.844  1.00  0.00    -0.233 NA
HETATM    6  C   UNL     1       7.675  22.519  54.416  1.00  0.00     0.085 A 
HETATM    7  C   UNL     1       8.195  21.790  55.479  1.00  0.00     0.062 A 
HETATM    8  C   UNL     1       7.706  21.972  53.126  1.00  0.00     0.034 A 
HETATM    9  C   UNL     1       8.759  20.522  55.336  1.00  0.00     0.032 A 
HETATM   10  N   UNL     1       8.008  22.593  56.575  1.00  0.00    -0.343 N 
HETATM   11  C   UNL     1       8.791  19.994  54.040  1.00  0.00     0.002 A 
HETATM   12  C   UNL     1       8.273  20.702  52.953  1.00  0.00     0.002 A 
HETATM   13  H   UNL     1       8.267  22.359  57.525  1.00  0.00     0.167 HD
ENDBRANCH   3   4
ENDBRANCH   2   3
ENDBRANCH   1   2
BRANCH   1  14
HETATM   14  N   UNL     1       4.444  27.591  56.509  1.00  0.00    -0.068 N 
HETATM   15  H   UNL     1       4.143  27.350  57.459  1.00  0.00     0.275 HD
HETATM   16  H   UNL     1       4.567  28.610  56.496  1.00  0.00     0.275 HD
HETATM   17  H   UNL     1       3.725  27.345  55.804  1.00  0.00     0.275 HD
ENDBRANCH   1  14
BRANCH   1  18
HETATM   18  C   UNL     1       6.850  27.799  56.606  1.00  0.00     0.136 A 
HETATM   19  N   UNL     1       6.903  28.436  57.758  1.00  0.00    -0.231 NA
HETATM   20  C   UNL     1       8.083  29.145  57.730  1.00  0.00     0.085 A 
HETATM   21  C   UNL     1       8.741  28.956  56.520  1.00  0.00     0.062 A 
HETATM   22  C   UNL     1       8.656  29.980  58.699  1.00  0.00     0.034 A 
HETATM   23  N   UNL     1       7.941  28.090  55.822  1.00  0.00    -0.341 N 
HETATM   24  C   UNL     1       9.952  29.571  56.201  1.00  0.00     0.032 A 
HETATM   25  H   UNL     1       8.133  27.750  54.888  1.00  0.00     0.167 HD
HETATM   26  C   UNL     1      10.507  30.406  57.177  1.00  0.00     0.002 A 
HETATM   27  C   UNL     1       9.874  30.605  58.407  1.00  0.00     0.002 A 
ENDBRANCH   1  18
TORSDOF 5
ENDMDL
MODEL 3
REMARK VINA RESULT:      -8.5      2.120      3.255
REMARK  5 active torsions:
REMARK  status: ('A' for Active; 'I' for Inactive)
REMARK    1  A    between atoms: C_6  and  C_7 
REMARK    2  A    between atoms: C_7  and  C_8 
REMARK    3  A    between atoms: C_8  and  C_9 
REMARK    4  A    between atoms: C_9  and  N_10 
REMARK    5  A    between atoms: C_9  and  C_14 
ROOT
HETATM    1  C   UNL     1       5.543  26.980  56.157  1.00  0.00     0.253 C 
ENDROOT
BRANCH   1   2
HETATM    2  C   UNL     1       5.649  25.600  56.837  1.00  0.00     0.048 C 
BRANCH   2   3
HETATM    3  C   UNL     1       7.060  25.097  57.173  1.00  0.00     0.081 C 
BRANCH   3   4
HETATM    4  C   UNL     1       7.476  23.981  56.282  1.00  0.00     0.105 A 
HETATM    5  N   UNL     1       8.001  22.845  56.701  1.00  0.00    -0.233 NA
HETATM    6  C   UNL     1       8.130  22.069  55.568  1.00  0.00     0.085 A 
HETATM    7  C   UNL     1       7.688  22.760  54.445  1.00  0.00     0.062 A 
HETATM    8  C   UNL     1       8.594  20.754  55.428  1.00  0.00     0.034 A 
HETATM    9  C   UNL     1       7.677  22.211  53.163  1.00  0.00     0.032 A 
HETATM   10  N   UNL     1       7.314  23.991  54.920  1.00  0.00    -0.343 N 
HETATM   11  C   UNL     1       8.135  20.894  53.042  1.00  0.00     0.002 A 
HETATM   12  C   UNL     1       8.588  20.177  54.151  1.00  0.00     0.002 A 
HETATM   13  H   UNL     1       6.951  24.751  54.359  1.00  0.00     0.167 HD
ENDBRANCH   3   4
ENDBRANCH   2   3
ENDBRANCH   1   2
BRANCH   1  14
HETATM   14  N   UNL     1       4.248  27.629  56.477  1.00  0.00    -0.068 N 
HETATM   15  H   UNL     1       4.271  28.070  57.402  1.00  0.00     0.275 HD
HETATM   16  H   UNL     1       4.060  28.381  55.804  1.00  0.00     0.275 HD
HETATM   17  H   UNL     1       3.484  26.933  56.402  1.00  0.00     0.275 HD
ENDBRANCH   1  14
BRANCH   1  18
HETATM   18  C   UNL     1       6.649  27.880  56.599  1.00  0.00     0.136 A 
HETATM   19  N   UNL     1       7.753  28.109  55.917  1.00  0.00    -0.231 NA
HETATM   20  C   UNL     1       8.500  28.956  56.704  1.00  0.00     0.085 A 
HETATM   21  C   UNL     1       7.846  29.218  57.903  1.00  0.00     0.062 A 
HETATM   22  C   UNL     1       9.753  29.537  56.466  1.00  0.00     0.034 A 
HETATM   23  N   UNL     1       6.666  28.527  57.812  1.00  0.00    -0.341 N 
HETATM   24  C   UNL     1       8.379  30.027  58.907  1.00  0.00     0.032 A 
HETATM   25  H   UNL     1       5.954  28.501  58.530  1.00  0.00     0.167 HD
HETATM   26  C   UNL     1       9.633  30.594  58.655  1.00  0.00     0.002 A 
HETATM   27  C   UNL     1      10.309  30.358  57.455  1.00  0.00     0.002 A 
ENDBRANCH   1  18
TORSDOF 5
ENDMDL
MODEL 4
REMARK VINA RESULT:      -8.4      1.840      6.864
REMARK  5 active torsions:
REMARK  status: ('A' for Active; 'I' for Inactive)
REMARK    1  A    between atoms: C_6  and  C_7 
REMARK    2  A    between atoms: C_7  and  C_8 
REMARK    3  A    between atoms: C_8  and  C_9 
REMARK    4  A    between atoms: C_9  and  N_10 
REMARK    5  A    between atoms: C_9  and  C_14 
ROOT
HETATM    1  C   UNL     1       6.289  25.634  55.626  1.00  0.00     0.253 C 
ENDROOT
BRANCH   1   2
HETATM    2  C   UNL     1       6.081  26.576  54.423  1.00  0.00     0.048 C 
BRANCH   2   3
HETATM    3  C   UNL     1       5.768  28.046  54.737  1.00  0.00     0.081 C 
BRANCH   3   4
HETATM    4  C   UNL     1       6.878  28.700  55.480  1.00  0.00     0.105 A 
HETATM    5  N   UNL     1       6.781  29.167  56.711  1.00  0.00    -0.233 NA
HETATM    6  C   UNL     1       8.055  29.582  57.039  1.00  0.00     0.085 A 
HETATM    7  C   UNL     1       8.929  29.374  55.978  1.00  0.00     0.062 A 
HETATM    8  C   UNL     1       8.542  30.124  58.236  1.00  0.00     0.034 A 
HETATM    9  C   UNL     1      10.290  29.676  56.036  1.00  0.00     0.032 A 
HETATM   10  N   UNL     1       8.147  28.848  54.981  1.00  0.00    -0.343 N 
HETATM   11  C   UNL     1      10.762  30.208  57.241  1.00  0.00     0.002 A 
HETATM   12  C   UNL     1       9.907  30.431  58.323  1.00  0.00     0.002 A 
HETATM   13  H   UNL     1       8.469  28.588  54.058  1.00  0.00     0.167 HD
ENDBRANCH   3   4
ENDBRANCH   2   3
ENDBRANCH   1   2
BRANCH   1  14
HETATM   14  N   UNL     1       5.008  25.383  56.330  1.00  0.00    -0.068 N 
HETATM   15  H   UNL     1       5.120  25.463  57.346  1.00  0.00     0.275 HD
HETATM   16  H   UNL     1       4.317  26.092  56.060  1.00  0.00     0.275 HD
HETATM   17  H   UNL     1       4.638  24.454  56.056  1.00  0.00     0.275 HD
ENDBRANCH   1  14
BRANCH   1  18
HETATM   18  C   UNL     1       6.856  24.324  55.187  1.00  0.00     0.136 A 
HETATM   19  N   UNL     1       7.023  23.957  53.933  1.00  0.00    -0.231 NA
HETATM   20  C   UNL     1       7.530  22.678  53.991  1.00  0.00     0.085 A 
HETATM   21  C   UNL     1       7.640  22.252  55.310  1.00  0.00     0.062 A 
HETATM   22  C   UNL     1       7.911  21.812  52.957  1.00  0.00     0.034 A 
HETATM   23  N   UNL     1       7.212  23.319  56.055  1.00  0.00    -0.341 N 
HETATM   24  C   UNL     1       8.102  20.986  55.671  1.00  0.00     0.032 A 
HETATM   25  H   UNL     1       7.160  23.336  57.066  1.00  0.00     0.167 HD
HETATM   26  C   UNL     1       8.473  20.133  54.627  1.00  0.00     0.002 A 
HETATM   27  C   UNL     1       8.384  20.537  53.292  1.00  0.00     0.002 A 
ENDBRANCH   1  18
TORSDOF 5
ENDMDL
MODEL 5
REMARK VINA RESULT:      -8.3      3.124      4.547
REMARK  5 active torsions:
REMARK  status: ('A' for Active; 'I' for Inactive)
REMARK    1  A    between atoms: C_6  and  C_7 
REMARK    2  A    between atoms: C_7  and  C_8 
REMARK    3  A    between atoms: C_8  and  C_9 
REMARK    4  A    between atoms: C_9  and  N_10 
REMARK    5  A    between atoms: C_9  and  C_14 
ROOT
HETATM    1  C   UNL     1       7.057  28.610  57.006  1.00  0.00     0.253 C 
ENDROOT
BRANCH   1   2
HETATM    2  C   UNL     1       8.064  27.447  56.897  1.00  0.00     0.048 C 
BRANCH   2   3
HETATM    3  C   UNL     1       7.670  26.121  57.563  1.00  0.00     0.081 C 
BRANCH   3   4
HETATM    4  C   UNL     1       7.636  25.000  56.586  1.00  0.00     0.105 A 
HETATM    5  N   UNL     1       7.634  25.150  55.275  1.00  0.00    -0.233 NA
HETATM    6  C   UNL     1       7.707  23.871  54.767  1.00  0.00     0.085 A 
HETATM    7  C   UNL     1       7.736  22.934  55.793  1.00  0.00     0.062 A 
HETATM    8  C   UNL     1       7.776  23.435  53.436  1.00  0.00     0.034 A 
HETATM    9  C   UNL     1       7.835  21.559  55.574  1.00  0.00     0.032 A 
HETATM   10  N   UNL     1       7.649  23.675  56.944  1.00  0.00    -0.343 N 
HETATM   11  C   UNL     1       7.913  21.142  54.240  1.00  0.00     0.002 A 
HETATM   12  C   UNL     1       7.883  22.060  53.188  1.00  0.00     0.002 A 
HETATM   13  H   UNL     1       7.633  23.301  57.884  1.00  0.00     0.167 HD
ENDBRANCH   3   4
ENDBRANCH   2   3
ENDBRANCH   1   2
BRANCH   1  14
HETATM   14  N   UNL     1       5.686  28.101  57.257  1.00  0.00    -0.068 N 
HETATM   15  H   UNL     1       5.632  27.088  57.107  1.00  0.00     0.275 HD
HETATM   16  H   UNL     1       5.428  28.261  58.237  1.00  0.00     0.275 HD
HETATM   17  H   UNL     1       5.012  28.614  56.659  1.00  0.00     0.275 HD
ENDBRANCH   1  14
BRANCH   1  18
HETATM   18  C   UNL     1       7.430  29.538  58.115  1.00  0.00     0.136 A 
HETATM   19  N   UNL     1       8.471  29.385  58.908  1.00  0.00    -0.231 NA
HETATM   20  C   UNL     1       8.411  30.434  59.797  1.00  0.00     0.085 A 
HETATM   21  C   UNL     1       7.289  31.219  59.555  1.00  0.00     0.062 A 
HETATM   22  C   UNL     1       9.274  30.776  60.846  1.00  0.00     0.034 A 
HETATM   23  N   UNL     1       6.683  30.634  58.475  1.00  0.00    -0.341 N 
HETATM   24  C   UNL     1       6.958  32.340  60.318  1.00  0.00     0.032 A 
HETATM   25  H   UNL     1       5.827  30.960  58.044  1.00  0.00     0.167 HD
HETATM   26  C   UNL     1       7.828  32.664  61.364  1.00  0.00     0.002 A 
HETATM   27  C   UNL     1       8.968  31.900  61.624  1.00  0.00     0.002 A 
ENDBRANCH   1  18
TORSDOF 5
ENDMDL
MODEL 6
REMARK VINA RESULT:      -8.3      2.813      5.189
REMARK  5 active torsions:
REMARK  status: ('A' for Active; 'I' for Inactive)
REMARK    1  A    between atoms: C_6  and  C_7 
REMARK    2  A    between atoms: C_7  and  C_8 
REMARK    3  A    between atoms: C_8  and  C_9 
REMARK    4  A    between atoms: C_9  and  N_10 
REMARK    5  A    between atoms: C_9  and  C_14 
ROOT
HETATM    1  C   UNL     1       5.440  25.441  51.895  1.00  0.00     0.253 C 
ENDROOT
BRANCH   1   2
HETATM    2  C   UNL     1       6.807  25.894  52.445  1.00  0.00     0.048 C 
BRANCH   2   3
HETATM    3  C   UNL     1       7.988  24.932  52.251  1.00  0.00     0.081 C 
BRANCH   3   4
HETATM    4  C   UNL     1       7.980  23.837  53.257  1.00  0.00     0.105 A 
HETATM    5  N   UNL     1       7.866  22.554  52.967  1.00  0.00    -0.233 NA
HETATM    6  C   UNL     1       8.013  21.899  54.171  1.00  0.00     0.085 A 
HETATM    7  C   UNL     1       8.203  22.807  55.207  1.00  0.00     0.062 A 
HETATM    8  C   UNL     1       8.021  20.526  54.451  1.00  0.00     0.034 A 
HETATM    9  C   UNL     1       8.406  22.426  56.533  1.00  0.00     0.032 A 
HETATM   10  N   UNL     1       8.137  24.038  54.606  1.00  0.00    -0.343 N 
HETATM   11  C   UNL     1       8.420  21.051  56.794  1.00  0.00     0.002 A 
HETATM   12  C   UNL     1       8.229  20.115  55.774  1.00  0.00     0.002 A 
HETATM   13  H   UNL     1       8.225  24.928  55.079  1.00  0.00     0.167 HD
ENDBRANCH   3   4
ENDBRANCH   2   3
ENDBRANCH   1   2
BRANCH   1  14
HETATM   14  N   UNL     1       4.397  25.507  52.949  1.00  0.00    -0.068 N 
HETATM   15  H   UNL     1       4.790  25.303  53.874  1.00  0.00     0.275 HD
HETATM   16  H   UNL     1       4.015  26.458  53.002  1.00  0.00     0.275 HD
HETATM   17  H   UNL     1       3.622  24.862  52.710  1.00  0.00     0.275 HD
ENDBRANCH   1  14
BRANCH   1  18
HETATM   18  C   UNL     1       5.013  26.298  50.749  1.00  0.00     0.136 A 
HETATM   19  N   UNL     1       5.437  27.527  50.529  1.00  0.00    -0.231 NA
HETATM   20  C   UNL     1       4.765  27.948  49.403  1.00  0.00     0.085 A 
HETATM   21  C   UNL     1       3.892  26.962  48.954  1.00  0.00     0.062 A 
HETATM   22  C   UNL     1       4.841  29.164  48.711  1.00  0.00     0.034 A 
HETATM   23  N   UNL     1       4.072  25.918  49.823  1.00  0.00    -0.341 N 
HETATM   24  C   UNL     1       3.062  27.121  47.844  1.00  0.00     0.032 A 
HETATM   25  H   UNL     1       3.576  25.037  49.779  1.00  0.00     0.167 HD
HETATM   26  C   UNL     1       3.146  28.343  47.168  1.00  0.00     0.002 A 
HETATM   27  C   UNL     1       4.022  29.347  47.589  1.00  0.00     0.002 A 
ENDBRANCH   1  18
TORSDOF 5
ENDMDL
MODEL 7
REMARK VINA RESULT:      -8.1      1.758      4.138
REMARK  5 active torsions:
REMARK  status: ('A' for Active; 'I' for Inactive)
REMARK    1  A    between atoms: C_6  and  C_7 
REMARK    2  A    between atoms: C_7  and  C_8 
REMARK    3  A    between atoms: C_8  and  C_9 
REMARK    4  A    between atoms: C_9  and  N_10 
REMARK    5  A    between atoms: C_9  and  C_14 
ROOT
HETATM    1  C   UNL     1       5.758  26.564  56.508  1.00  0.00     0.253 C 
ENDROOT
BRANCH   1   2
HETATM    2  C   UNL     1       7.263  26.603  56.845  1.00  0.00     0.048 C 
BRANCH   2   3
HETATM    3  C   UNL     1       7.853  25.363  57.533  1.00  0.00     0.081 C 
BRANCH   3   4
HETATM    4  C   UNL     1       8.016  24.230  56.584  1.00  0.00     0.105 A 
HETATM    5  N   UNL     1       8.034  22.957  56.933  1.00  0.00    -0.233 NA
HETATM    6  C   UNL     1       8.095  22.259  55.746  1.00  0.00     0.085 A 
HETATM    7  C   UNL     1       8.131  23.131  54.663  1.00  0.00     0.062 A 
HETATM    8  C   UNL     1       8.098  20.877  55.515  1.00  0.00     0.034 A 
HETATM    9  C   UNL     1       8.169  22.703  53.335  1.00  0.00     0.032 A 
HETATM   10  N   UNL     1       8.121  24.382  55.224  1.00  0.00    -0.343 N 
HETATM   11  C   UNL     1       8.162  21.320  53.123  1.00  0.00     0.002 A 
HETATM   12  C   UNL     1       8.129  20.420  54.191  1.00  0.00     0.002 A 
HETATM   13  H   UNL     1       8.151  25.255  54.713  1.00  0.00     0.167 HD
ENDBRANCH   3   4
ENDBRANCH   2   3
ENDBRANCH   1   2
BRANCH   1  14
HETATM   14  N   UNL     1       5.053  27.726  57.102  1.00  0.00    -0.068 N 
HETATM   15  H   UNL     1       4.044  27.680  56.926  1.00  0.00     0.275 HD
HETATM   16  H   UNL     1       5.167  27.719  58.122  1.00  0.00     0.275 HD
HETATM   17  H   UNL     1       5.467  28.605  56.739  1.00  0.00     0.275 HD
ENDBRANCH   1  14
BRANCH   1  18
HETATM   18  C   UNL     1       5.540  26.579  55.031  1.00  0.00     0.136 A 
HETATM   19  N   UNL     1       5.414  25.506  54.277  1.00  0.00    -0.231 NA
HETATM   20  C   UNL     1       5.271  25.978  52.991  1.00  0.00     0.085 A 
HETATM   21  C   UNL     1       5.346  27.366  52.966  1.00  0.00     0.062 A 
HETATM   22  C   UNL     1       5.083  25.279  51.791  1.00  0.00     0.034 A 
HETATM   23  N   UNL     1       5.511  27.728  54.277  1.00  0.00    -0.341 N 
HETATM   24  C   UNL     1       5.259  28.118  51.794  1.00  0.00     0.032 A 
HETATM   25  H   UNL     1       5.608  28.680  54.607  1.00  0.00     0.167 HD
HETATM   26  C   UNL     1       5.076  27.405  50.604  1.00  0.00     0.002 A 
HETATM   27  C   UNL     1       4.986  26.010  50.600  1.00  0.00     0.002 A 
ENDBRANCH   1  18
TORSDOF 5
ENDMDL
MODEL 8
REMARK VINA RESULT:      -8.1      1.713      6.486
REMARK  5 active torsions:
REMARK  status: ('A' for Active; 'I' for Inactive)
REMARK    1  A    between atoms: C_6  and  C_7 
REMARK    2  A    between atoms: C_7  and  C_8 
REMARK    3  A    between atoms: C_8  and  C_9 
REMARK    4  A    between atoms: C_9  and  N_10 
REMARK    5  A    between atoms: C_9  and  C_14 
ROOT
HETATM    1  C   UNL     1       7.919  25.793  56.701  1.00  0.00     0.253 C 
ENDROOT
BRANCH   1   2
HETATM    2  C   UNL     1       6.909  26.775  56.074  1.00  0.00     0.048 C 
BRANCH   2   3
HETATM    3  C   UNL     1       7.464  27.795  55.069  1.00  0.00     0.081 C 
BRANCH   3   4
HETATM    4  C   UNL     1       6.824  27.660  53.734  1.00  0.00     0.105 A 
HETATM    5  N   UNL     1       6.672  26.519  53.088  1.00  0.00    -0.233 NA
HETATM    6  C   UNL     1       5.945  26.838  51.961  1.00  0.00     0.085 A 
HETATM    7  C   UNL     1       5.668  28.200  51.922  1.00  0.00     0.062 A 
HETATM    8  C   UNL     1       5.463  26.008  50.939  1.00  0.00     0.034 A 
HETATM    9  C   UNL     1       4.924  28.801  50.906  1.00  0.00     0.032 A 
HETATM   10  N   UNL     1       6.274  28.710  53.041  1.00  0.00    -0.343 N 
HETATM   11  C   UNL     1       4.442  27.958  49.899  1.00  0.00     0.002 A 
HETATM   12  C   UNL     1       4.707  26.586  49.911  1.00  0.00     0.002 A 
HETATM   13  H   UNL     1       6.277  29.684  53.315  1.00  0.00     0.167 HD
ENDBRANCH   3   4
ENDBRANCH   2   3
ENDBRANCH   1   2
BRANCH   1  14
HETATM   14  N   UNL     1       7.604  25.551  58.131  1.00  0.00    -0.068 N 
HETATM   15  H   UNL     1       8.359  25.884  58.739  1.00  0.00     0.275 HD
HETATM   16  H   UNL     1       6.766  26.080  58.397  1.00  0.00     0.275 HD
HETATM   17  H   UNL     1       7.409  24.544  58.276  1.00  0.00     0.275 HD
ENDBRANCH   1  14
BRANCH   1  18
HETATM   18  C   UNL     1       7.909  24.483  55.983  1.00  0.00     0.136 A 
HETATM   19  N   UNL     1       7.963  23.303  56.567  1.00  0.00    -0.231 NA
HETATM   20  C   UNL     1       7.969  22.387  55.539  1.00  0.00     0.085 A 
HETATM   21  C   UNL     1       7.951  23.031  54.307  1.00  0.00     0.062 A 
HETATM   22  C   UNL     1       7.999  20.987  55.580  1.00  0.00     0.034 A 
HETATM   23  N   UNL     1       7.906  24.366  54.614  1.00  0.00    -0.341 N 
HETATM   24  C   UNL     1       7.976  22.354  53.087  1.00  0.00     0.032 A 
HETATM   25  H   UNL     1       7.889  25.116  53.935  1.00  0.00     0.167 HD
HETATM   26  C   UNL     1       8.011  20.957  53.146  1.00  0.00     0.002 A 
HETATM   27  C   UNL     1       8.018  20.282  54.370  1.00  0.00     0.002 A 
ENDBRANCH   1  18
TORSDOF 5
ENDMDL
MODEL 9
REMARK VINA RESULT:      -8.0      2.247      7.495
REMARK  5 active torsions:
REMARK  status: ('A' for Active; 'I' for Inactive)
REMARK    1  A    between atoms: C_6  and  C_7 
REMARK    2  A    between atoms: C_7  and  C_8 
REMARK    3  A    between atoms: C_8  and  C_9 
REMARK    4  A    between atoms: C_9  and  N_10 
REMARK    5  A    between atoms: C_9  and  C_14 
ROOT
HETATM    1  C   UNL     1       6.292  25.173  56.269  1.00  0.00     0.253 C 
ENDROOT
BRANCH   1   2
HETATM    2  C   UNL     1       7.412  26.140  56.705  1.00  0.00     0.048 C 
BRANCH   2   3
HETATM    3  C   UNL     1       7.378  27.555  56.111  1.00  0.00     0.081 C 
BRANCH   3   4
HETATM    4  C   UNL     1       8.000  28.552  57.023  1.00  0.00     0.105 A 
HETATM    5  N   UNL     1       9.093  29.239  56.748  1.00  0.00    -0.233 NA
HETATM    6  C   UNL     1       9.246  30.109  57.807  1.00  0.00     0.085 A 
HETATM    7  C   UNL     1       8.234  29.929  58.743  1.00  0.00     0.062 A 
HETATM    8  C   UNL     1      10.215  31.099  58.023  1.00  0.00     0.034 A 
HETATM    9  C   UNL     1       8.122  30.692  59.906  1.00  0.00     0.032 A 
HETATM   10  N   UNL     1       7.474  28.904  58.241  1.00  0.00    -0.343 N 
HETATM   11  C   UNL     1       9.091  31.682  60.102  1.00  0.00     0.002 A 
HETATM   12  C   UNL     1      10.122  31.883  59.181  1.00  0.00     0.002 A 
HETATM   13  H   UNL     1       6.654  28.509  58.684  1.00  0.00     0.167 HD
ENDBRANCH   3   4
ENDBRANCH   2   3
ENDBRANCH   1   2
BRANCH   1  14
HETATM   14  N   UNL     1       5.398  25.813  55.273  1.00  0.00    -0.068 N 
HETATM   15  H   UNL     1       4.847  26.566  55.697  1.00  0.00     0.275 HD
HETATM   16  H   UNL     1       5.959  26.250  54.532  1.00  0.00     0.275 HD
HETATM   17  H   UNL     1       4.795  25.093  54.837  1.00  0.00     0.275 HD
ENDBRANCH   1  14
BRANCH   1  18
HETATM   18  C   UNL     1       6.862  23.930  55.669  1.00  0.00     0.136 A 
HETATM   19  N   UNL     1       7.428  22.955  56.351  1.00  0.00    -0.231 NA
HETATM   20  C   UNL     1       7.840  22.041  55.408  1.00  0.00     0.085 A 
HETATM   21  C   UNL     1       7.546  22.491  54.126  1.00  0.00     0.062 A 
HETATM   22  C   UNL     1       8.483  20.806  55.570  1.00  0.00     0.034 A 
HETATM   23  N   UNL     1       6.917  23.694  54.317  1.00  0.00    -0.341 N 
HETATM   24  C   UNL     1       7.871  21.781  52.970  1.00  0.00     0.032 A 
HETATM   25  H   UNL     1       6.575  24.292  53.576  1.00  0.00     0.167 HD
HETATM   26  C   UNL     1       8.517  20.554  53.150  1.00  0.00     0.002 A 
HETATM   27  C   UNL     1       8.816  20.070  54.426  1.00  0.00     0.002 A 
ENDBRANCH   1  18
TORSDOF 5
ENDMDL
MODEL 10
REMARK VINA RESULT:      -8.0      3.374      7.889
REMARK  5 active torsions:
REMARK  status: ('A' for Active; 'I' for Inactive)
REMARK    1  A    between atoms: C_6  and  C_7 
REMARK    2  A    between atoms: C_7  and  C_8 
REMARK    3  A    between atoms: C_8  and  C_9 
REMARK    4  A    between atoms: C_9  and  N_10 
REMARK    5  A    between atoms: C_9  and  C_14 
ROOT
HETATM    1  C   UNL     1       5.704  27.531  56.825  1.00  0.00     0.253 C 
ENDROOT
BRANCH   1   2
HETATM    2  C   UNL     1       6.336  28.926  56.646  1.00  0.00     0.048 C 
BRANCH   2   3
HETATM    3  C   UNL     1       7.780  29.103  57.136  1.00  0.00     0.081 C 
BRANCH   3   4
HETATM    4  C   UNL     1       7.840  29.839  58.427  1.00  0.00     0.105 A 
HETATM    5  N   UNL     1       8.806  29.711  59.317  1.00  0.00    -0.233 NA
HETATM    6  C   UNL     1       8.520  30.642  60.293  1.00  0.00     0.085 A 
HETATM    7  C   UNL     1       7.351  31.331  59.990  1.00  0.00     0.062 A 
HETATM    8  C   UNL     1       9.230  30.971  61.456  1.00  0.00     0.034 A 
HETATM    9  C   UNL     1       6.833  32.351  60.789  1.00  0.00     0.032 A 
HETATM   10  N   UNL     1       6.913  30.773  58.816  1.00  0.00    -0.343 N 
HETATM   11  C   UNL     1       7.560  32.674  61.941  1.00  0.00     0.002 A 
HETATM   12  C   UNL     1       8.736  31.997  62.273  1.00  0.00     0.002 A 
HETATM   13  H   UNL     1       6.073  31.037  58.318  1.00  0.00     0.167 HD
ENDBRANCH   3   4
ENDBRANCH   2   3
ENDBRANCH   1   2
BRANCH   1  14
HETATM   14  N   UNL     1       4.236  27.583  56.617  1.00  0.00    -0.068 N 
HETATM   15  H   UNL     1       3.745  26.972  57.277  1.00  0.00     0.275 HD
HETATM   16  H   UNL     1       3.893  28.534  56.796  1.00  0.00     0.275 HD
HETATM   17  H   UNL     1       4.017  27.342  55.633  1.00  0.00     0.275 HD
ENDBRANCH   1  14
BRANCH   1  18
HETATM   18  C   UNL     1       6.287  26.552  55.860  1.00  0.00     0.136 A 
HETATM   19  N   UNL     1       6.680  26.843  54.636  1.00  0.00    -0.231 NA
HETATM   20  C   UNL     1       7.108  25.651  54.097  1.00  0.00     0.085 A 
HETATM   21  C   UNL     1       6.938  24.611  55.005  1.00  0.00     0.062 A 
HETATM   22  C   UNL     1       7.645  25.376  52.832  1.00  0.00     0.034 A 
HETATM   23  N   UNL     1       6.420  25.210  56.123  1.00  0.00    -0.341 N 
HETATM   24  C   UNL     1       7.263  23.284  54.721  1.00  0.00     0.032 A 
HETATM   25  H   UNL     1       6.172  24.725  56.977  1.00  0.00     0.167 HD
HETATM   26  C   UNL     1       7.793  23.026  53.453  1.00  0.00     0.002 A 
HETATM   27  C   UNL     1       7.986  24.052  52.524  1.00  0.00     0.002 A 
ENDBRANCH   1  18
TORSDOF 5
ENDMDL
