MODEL 1
REMARK VINA RESULT:     -10.6      0.000      0.000
REMARK  7 active torsions:
REMARK  status: ('A' for Active; 'I' for Inactive)
REMARK    1  A    between atoms: N_7  and  C_8 
REMARK    2  A    between atoms: C_8  and  C_9 
REMARK       I    between atoms: C_9  and  N_10 
REMARK    3  A    between atoms: N_10  and  C_11 
REMARK    4  A    between atoms: C_11  and  C_12 
REMARK    5  A    between atoms: C_12  and  C_13 
REMARK    6  A    between atoms: C_12  and  C_23 
REMARK    7  A    between atoms: C_26  and  O_27 
ROOT
HETATM    1  C   UNL     1       6.290  28.146  54.607  1.00  0.00     0.136 C 
ENDROOT
BRANCH   1   2
HETATM    2  N   UNL     1       6.460  28.621  53.240  1.00  0.00    -0.359 N 
HETATM    3  C   UNL     1       5.737  27.960  52.254  1.00  0.00     0.236 C 
HETATM    4  O   UNL     1       5.196  26.873  52.454  1.00  0.00    -0.272 OA
HETATM    5  H   UNL     1       6.597  29.617  53.100  1.00  0.00     0.162 HD
BRANCH   3   6
HETATM    6  C   UNL     1       5.450  28.753  50.986  1.00  0.00     0.239 C 
BRANCH   6   7
HETATM    7  N   UNL     1       4.212  28.434  50.312  1.00  0.00    -0.259 N 
HETATM    8  C   UNL     1       3.004  28.928  50.693  1.00  0.00     0.326 C 
HETATM    9  N   UNL     1       2.078  28.602  49.732  1.00  0.00    -0.324 N 
HETATM   10  O   UNL     1       2.743  29.592  51.681  1.00  0.00    -0.247 OA
HETATM   11  C   UNL     1       2.692  28.069  48.526  1.00  0.00     0.119 C 
HETATM   12  H   UNL     1       1.149  29.000  49.791  1.00  0.00     0.165 HD
HETATM   13  C   UNL     1       1.934  26.816  48.043  1.00  0.00     0.019 C 
HETATM   14  C   UNL     1       4.118  27.836  49.088  1.00  0.00     0.257 C 
HETATM   15  C   UNL     1       2.785  29.167  47.448  1.00  0.00     0.041 C 
HETATM   16  C   UNL     1       2.713  25.976  47.024  1.00  0.00     0.013 C 
HETATM   17  C   UNL     1       0.564  27.221  47.454  1.00  0.00     0.007 C 
HETATM   18  C   UNL     1       0.670  28.295  46.370  1.00  0.00     0.001 C 
HETATM   19  C   UNL     1       1.423  29.527  46.861  1.00  0.00     0.003 C 
HETATM   20  O   UNL     1       5.053  27.311  48.496  1.00  0.00    -0.270 OA
ENDBRANCH   6   7
ENDBRANCH   3   6
ENDBRANCH   1   2
BRANCH   1  21
HETATM   21  C   UNL     1       7.505  27.654  55.415  1.00  0.00     0.071 C 
BRANCH  21  22
HETATM   22  C   UNL     1       7.491  26.231  55.922  1.00  0.00    -0.020 A 
HETATM   23  C   UNL     1       7.602  25.056  55.087  1.00  0.00    -0.001 A 
HETATM   24  C   UNL     1       7.519  23.935  55.912  1.00  0.00     0.042 A 
HETATM   25  C   UNL     1       7.766  24.848  53.700  1.00  0.00     0.014 A 
HETATM   26  C   UNL     1       7.582  22.623  55.424  1.00  0.00     0.030 A 
HETATM   27  N   UNL     1       7.380  24.392  57.197  1.00  0.00    -0.365 N 
HETATM   28  C   UNL     1       7.743  22.450  54.047  1.00  0.00     0.002 A 
HETATM   29  C   UNL     1       7.836  23.545  53.195  1.00  0.00     0.001 A 
HETATM   30  H   UNL     1       7.303  23.798  58.012  1.00  0.00     0.165 HD
HETATM   31  C   UNL     1       7.373  25.762  57.218  1.00  0.00     0.097 A 
ENDBRANCH  21  22
BRANCH  21  32
HETATM   32  C   UNL     1       7.960  28.549  56.553  1.00  0.00    -0.048 A 
HETATM   33  C   UNL     1       9.332  28.821  56.696  1.00  0.00     0.011 A 
HETATM   34  C   UNL     1       9.800  29.650  57.715  1.00  0.00     0.037 A 
HETATM   35  C   UNL     1       8.913  30.232  58.618  1.00  0.00     0.068 A 
HETATM   36  C   UNL     1       7.549  29.971  58.493  1.00  0.00     0.037 A 
HETATM   37  C   UNL     1       7.075  29.142  57.464  1.00  0.00     0.011 A 
BRANCH  35  38
HETATM   38  O   UNL     1       9.505  31.022  59.564  1.00  0.00    -0.356 OA
HETATM   39  C   UNL     1       9.180  30.752  60.920  1.00  0.00     0.210 C 
ENDBRANCH  35  38
ENDBRANCH  21  32
ENDBRANCH   1  21
TORSDOF 7
ENDMDL
MODEL 2
REMARK VINA RESULT:     -10.5      2.899      9.789
REMARK  7 active torsions:
REMARK  status: ('A' for Active; 'I' for Inactive)
REMARK    1  A    between atoms: N_7  and  C_8 
REMARK    2  A    between atoms: C_8  and  C_9 
REMARK       I    between atoms: C_9  and  N_10 
REMARK    3  A    between atoms: N_10  and  C_11 
REMARK    4  A    between atoms: C_11  and  C_12 
REMARK    5  A    between atoms: C_12  and  C_13 
REMARK    6  A    between atoms: C_12  and  C_23 
REMARK    7  A    between atoms: C_26  and  O_27 
ROOT
HETATM    1  C   UNL     1       5.301  27.775  53.910  1.00  0.00     0.136 C 
ENDROOT
BRANCH   1   2
HETATM    2  N   UNL     1       5.859  29.023  54.413  1.00  0.00    -0.359 N 
HETATM    3  C   UNL     1       6.022  29.126  55.789  1.00  0.00     0.236 C 
HETATM    4  O   UNL     1       5.487  28.342  56.574  1.00  0.00    -0.272 OA
HETATM    5  H   UNL     1       6.560  29.489  53.846  1.00  0.00     0.162 HD
BRANCH   3   6
HETATM    6  C   UNL     1       7.080  30.110  56.270  1.00  0.00     0.239 C 
BRANCH   6   7
HETATM    7  N   UNL     1       7.220  30.232  57.704  1.00  0.00    -0.259 N 
HETATM    8  C   UNL     1       7.900  29.336  58.468  1.00  0.00     0.326 C 
HETATM    9  N   UNL     1       8.019  29.849  59.737  1.00  0.00    -0.324 N 
HETATM   10  O   UNL     1       8.384  28.272  58.124  1.00  0.00    -0.247 OA
HETATM   11  C   UNL     1       7.620  31.245  59.812  1.00  0.00     0.119 C 
HETATM   12  H   UNL     1       8.609  29.370  60.406  1.00  0.00     0.165 HD
HETATM   13  C   UNL     1       6.718  31.484  61.040  1.00  0.00     0.019 C 
HETATM   14  C   UNL     1       6.935  31.355  58.425  1.00  0.00     0.257 C 
HETATM   15  C   UNL     1       8.864  32.155  59.795  1.00  0.00     0.041 C 
HETATM   16  C   UNL     1       5.949  32.809  60.996  1.00  0.00     0.013 C 
HETATM   17  C   UNL     1       7.558  31.406  62.335  1.00  0.00     0.007 C 
HETATM   18  C   UNL     1       8.778  32.328  62.316  1.00  0.00     0.001 C 
HETATM   19  C   UNL     1       9.659  32.083  61.096  1.00  0.00     0.003 C 
HETATM   20  O   UNL     1       6.336  32.330  57.988  1.00  0.00    -0.270 OA
ENDBRANCH   6   7
ENDBRANCH   3   6
ENDBRANCH   1   2
BRANCH   1  21
HETATM   21  C   UNL     1       6.044  26.973  52.826  1.00  0.00     0.071 C 
BRANCH  21  22
HETATM   22  C   UNL     1       5.364  26.788  51.489  1.00  0.00    -0.020 A 
HETATM   23  C   UNL     1       5.252  27.809  50.472  1.00  0.00    -0.001 A 
HETATM   24  C   UNL     1       4.537  27.271  49.402  1.00  0.00     0.042 A 
HETATM   25  C   UNL     1       5.698  29.144  50.366  1.00  0.00     0.014 A 
HETATM   26  C   UNL     1       4.238  27.998  48.243  1.00  0.00     0.030 A 
HETATM   27  N   UNL     1       4.234  25.975  49.733  1.00  0.00    -0.365 N 
HETATM   28  C   UNL     1       4.690  29.318  48.169  1.00  0.00     0.002 A 
HETATM   29  C   UNL     1       5.412  29.885  49.214  1.00  0.00     0.001 A 
HETATM   30  H   UNL     1       3.723  25.336  49.139  1.00  0.00     0.165 HD
HETATM   31  C   UNL     1       4.732  25.670  50.973  1.00  0.00     0.097 A 
ENDBRANCH  21  22
BRANCH  21  32
HETATM   32  C   UNL     1       6.605  25.629  53.252  1.00  0.00    -0.048 A 
HETATM   33  C   UNL     1       7.510  24.971  52.400  1.00  0.00     0.011 A 
HETATM   34  C   UNL     1       8.067  23.742  52.752  1.00  0.00     0.037 A 
HETATM   35  C   UNL     1       7.740  23.137  53.964  1.00  0.00     0.068 A 
HETATM   36  C   UNL     1       6.841  23.774  54.819  1.00  0.00     0.037 A 
HETATM   37  C   UNL     1       6.285  25.014  54.470  1.00  0.00     0.011 A 
BRANCH  35  38
HETATM   38  O   UNL     1       8.358  21.937  54.183  1.00  0.00    -0.356 OA
HETATM   39  C   UNL     1       8.334  20.999  53.117  1.00  0.00     0.210 C 
ENDBRANCH  35  38
ENDBRANCH  21  32
ENDBRANCH   1  21
TORSDOF 7
ENDMDL
MODEL 3
REMARK VINA RESULT:     -10.3      1.589      2.394
REMARK  7 active torsions:
REMARK  status: ('A' for Active; 'I' for Inactive)
REMARK    1  A    between atoms: N_7  and  C_8 
REMARK    2  A    between atoms: C_8  and  C_9 
REMARK       I    between atoms: C_9  and  N_10 
REMARK    3  A    between atoms: N_10  and  C_11 
REMARK    4  A    between atoms: C_11  and  C_12 
REMARK    5  A    between atoms: C_12  and  C_13 
REMARK    6  A    between atoms: C_12  and  C_23 
REMARK    7  A    between atoms: C_26  and  O_27 
ROOT
HETATM    1  C   UNL     1       5.637  24.739  53.653  1.00  0.00     0.136 C 
ENDROOT
BRANCH   1   2
HETATM    2  N   UNL     1       5.537  25.277  52.302  1.00  0.00    -0.359 N 
HETATM    3  C   UNL     1       4.970  26.539  52.171  1.00  0.00     0.236 C 
HETATM    4  O   UNL     1       4.337  27.071  53.084  1.00  0.00    -0.272 OA
HETATM    5  H   UNL     1       6.282  25.054  51.649  1.00  0.00     0.162 HD
BRANCH   3   6
HETATM    6  C   UNL     1       5.365  27.329  50.931  1.00  0.00     0.239 C 
BRANCH   6   7
HETATM    7  N   UNL     1       4.296  28.052  50.279  1.00  0.00    -0.259 N 
HETATM    8  C   UNL     1       4.067  29.379  50.467  1.00  0.00     0.326 C 
HETATM    9  N   UNL     1       3.126  29.791  49.556  1.00  0.00    -0.324 N 
HETATM   10  O   UNL     1       4.611  30.128  51.259  1.00  0.00    -0.247 OA
HETATM   11  C   UNL     1       2.854  28.784  48.542  1.00  0.00     0.119 C 
HETATM   12  H   UNL     1       2.928  30.780  49.470  1.00  0.00     0.165 HD
HETATM   13  C   UNL     1       1.336  28.639  48.318  1.00  0.00     0.019 C 
HETATM   14  C   UNL     1       3.567  27.588  49.223  1.00  0.00     0.257 C 
HETATM   15  C   UNL     1       3.623  29.115  47.248  1.00  0.00     0.041 C 
HETATM   16  C   UNL     1       0.940  27.363  47.565  1.00  0.00     0.013 C 
HETATM   17  C   UNL     1       0.790  29.879  47.575  1.00  0.00     0.007 C 
HETATM   18  C   UNL     1       1.546  30.185  46.281  1.00  0.00     0.001 C 
HETATM   19  C   UNL     1       3.045  30.324  46.517  1.00  0.00     0.003 C 
HETATM   20  O   UNL     1       3.582  26.430  48.822  1.00  0.00    -0.270 OA
ENDBRANCH   6   7
ENDBRANCH   3   6
ENDBRANCH   1   2
BRANCH   1  21
HETATM   21  C   UNL     1       6.877  25.032  54.516  1.00  0.00     0.071 C 
BRANCH  21  22
HETATM   22  C   UNL     1       7.496  23.885  55.281  1.00  0.00    -0.020 A 
HETATM   23  C   UNL     1       7.864  22.612  54.704  1.00  0.00    -0.001 A 
HETATM   24  C   UNL     1       8.373  21.810  55.725  1.00  0.00     0.042 A 
HETATM   25  C   UNL     1       7.809  22.070  53.401  1.00  0.00     0.014 A 
HETATM   26  C   UNL     1       8.819  20.499  55.515  1.00  0.00     0.030 A 
HETATM   27  N   UNL     1       8.337  22.556  56.876  1.00  0.00    -0.365 N 
HETATM   28  C   UNL     1       8.750  19.990  54.215  1.00  0.00     0.002 A 
HETATM   29  C   UNL     1       8.255  20.764  53.171  1.00  0.00     0.001 A 
HETATM   30  H   UNL     1       8.654  22.231  57.780  1.00  0.00     0.165 HD
HETATM   31  C   UNL     1       7.826  23.801  56.622  1.00  0.00     0.097 A 
ENDBRANCH  21  22
BRANCH  21  32
HETATM   32  C   UNL     1       6.773  26.217  55.458  1.00  0.00    -0.048 A 
HETATM   33  C   UNL     1       7.820  27.155  55.486  1.00  0.00     0.011 A 
HETATM   34  C   UNL     1       7.766  28.271  56.322  1.00  0.00     0.037 A 
HETATM   35  C   UNL     1       6.666  28.482  57.151  1.00  0.00     0.068 A 
HETATM   36  C   UNL     1       5.620  27.559  57.139  1.00  0.00     0.037 A 
HETATM   37  C   UNL     1       5.670  26.440  56.293  1.00  0.00     0.011 A 
BRANCH  35  38
HETATM   38  O   UNL     1       6.742  29.613  57.916  1.00  0.00    -0.356 OA
HETATM   39  C   UNL     1       7.939  29.807  58.655  1.00  0.00     0.210 C 
ENDBRANCH  35  38
ENDBRANCH  21  32
ENDBRANCH   1  21
TORSDOF 7
ENDMDL
MODEL 4
REMARK VINA RESULT:     -10.1      3.019      6.144
REMARK  7 active torsions:
REMARK  status: ('A' for Active; 'I' for Inactive)
REMARK    1  A    between atoms: N_7  and  C_8 
REMARK    2  A    between atoms: C_8  and  C_9 
REMARK       I    between atoms: C_9  and  N_10 
REMARK    3  A    between atoms: N_10  and  C_11 
REMARK    4  A    between atoms: C_11  and  C_12 
REMARK    5  A    between atoms: C_12  and  C_13 
REMARK    6  A    between atoms: C_12  and  C_23 
REMARK    7  A    between atoms: C_26  and  O_27 
ROOT
HETATM    1  C   UNL     1       4.609  25.543  52.899  1.00  0.00     0.136 C 
ENDROOT
BRANCH   1   2
HETATM    2  N   UNL     1       4.333  26.792  52.201  1.00  0.00    -0.359 N 
HETATM    3  C   UNL     1       4.894  26.942  50.939  1.00  0.00     0.236 C 
HETATM    4  O   UNL     1       5.791  26.204  50.528  1.00  0.00    -0.272 OA
HETATM    5  H   UNL     1       3.420  27.216  52.335  1.00  0.00     0.162 HD
BRANCH   3   6
HETATM    6  C   UNL     1       4.190  27.912  50.000  1.00  0.00     0.239 C 
BRANCH   6   7
HETATM    7  N   UNL     1       3.719  29.139  50.601  1.00  0.00    -0.259 N 
HETATM    8  C   UNL     1       2.431  29.337  50.988  1.00  0.00     0.326 C 
HETATM    9  N   UNL     1       2.367  30.510  51.700  1.00  0.00    -0.324 N 
HETATM   10  O   UNL     1       1.472  28.609  50.802  1.00  0.00    -0.247 OA
HETATM   11  C   UNL     1       3.683  31.034  52.029  1.00  0.00     0.119 C 
HETATM   12  H   UNL     1       1.504  30.748  52.174  1.00  0.00     0.165 HD
HETATM   13  C   UNL     1       3.745  32.550  51.751  1.00  0.00     0.019 C 
HETATM   14  C   UNL     1       4.522  30.128  51.092  1.00  0.00     0.257 C 
HETATM   15  C   UNL     1       4.049  30.675  53.482  1.00  0.00     0.041 C 
HETATM   16  C   UNL     1       5.170  33.112  51.701  1.00  0.00     0.013 C 
HETATM   17  C   UNL     1       2.913  33.315  52.805  1.00  0.00     0.007 C 
HETATM   18  C   UNL     1       3.300  32.968  54.243  1.00  0.00     0.001 C 
HETATM   19  C   UNL     1       3.236  31.467  54.503  1.00  0.00     0.003 C 
HETATM   20  O   UNL     1       5.731  30.199  50.907  1.00  0.00    -0.270 OA
ENDBRANCH   6   7
ENDBRANCH   3   6
ENDBRANCH   1   2
BRANCH   1  21
HETATM   21  C   UNL     1       5.589  25.517  54.085  1.00  0.00     0.071 C 
BRANCH  21  22
HETATM   22  C   UNL     1       6.361  26.779  54.396  1.00  0.00    -0.020 A 
HETATM   23  C   UNL     1       6.012  27.726  55.429  1.00  0.00    -0.001 A 
HETATM   24  C   UNL     1       6.939  28.767  55.388  1.00  0.00     0.042 A 
HETATM   25  C   UNL     1       4.986  27.791  56.398  1.00  0.00     0.014 A 
HETATM   26  C   UNL     1       6.891  29.867  56.254  1.00  0.00     0.030 A 
HETATM   27  N   UNL     1       7.830  28.470  54.388  1.00  0.00    -0.365 N 
HETATM   28  C   UNL     1       5.863  29.904  57.200  1.00  0.00     0.002 A 
HETATM   29  C   UNL     1       4.924  28.880  57.275  1.00  0.00     0.001 A 
HETATM   30  H   UNL     1       8.621  29.047  54.135  1.00  0.00     0.165 HD
HETATM   31  C   UNL     1       7.503  27.279  53.795  1.00  0.00     0.097 A 
ENDBRANCH  21  22
BRANCH  21  32
HETATM   32  C   UNL     1       6.564  24.354  54.125  1.00  0.00    -0.048 A 
HETATM   33  C   UNL     1       7.022  23.896  55.373  1.00  0.00     0.011 A 
HETATM   34  C   UNL     1       7.905  22.820  55.466  1.00  0.00     0.037 A 
HETATM   35  C   UNL     1       8.353  22.171  54.317  1.00  0.00     0.068 A 
HETATM   36  C   UNL     1       7.911  22.614  53.071  1.00  0.00     0.037 A 
HETATM   37  C   UNL     1       7.017  23.692  52.976  1.00  0.00     0.011 A 
BRANCH  35  38
HETATM   38  O   UNL     1       9.213  21.134  54.552  1.00  0.00    -0.356 OA
HETATM   39  C   UNL     1       9.059  20.439  55.781  1.00  0.00     0.210 C 
ENDBRANCH  35  38
ENDBRANCH  21  32
ENDBRANCH   1  21
TORSDOF 7
ENDMDL
MODEL 5
REMARK VINA RESULT:     -10.0      2.145      3.422
REMARK  7 active torsions:
REMARK  status: ('A' for Active; 'I' for Inactive)
REMARK    1  A    between atoms: N_7  and  C_8 
REMARK    2  A    between atoms: C_8  and  C_9 
REMARK       I    between atoms: C_9  and  N_10 
REMARK    3  A    between atoms: N_10  and  C_11 
REMARK    4  A    between atoms: C_11  and  C_12 
REMARK    5  A    between atoms: C_12  and  C_13 
REMARK    6  A    between atoms: C_12  and  C_23 
REMARK    7  A    between atoms: C_26  and  O_27 
ROOT
HETATM    1  C   UNL     1       5.059  25.008  53.575  1.00  0.00     0.136 C 
ENDROOT
BRANCH   1   2
HETATM    2  N   UNL     1       4.554  25.813  52.471  1.00  0.00    -0.359 N 
HETATM    3  C   UNL     1       5.308  25.818  51.304  1.00  0.00     0.236 C 
HETATM    4  O   UNL     1       6.467  25.401  51.269  1.00  0.00    -0.272 OA
HETATM    5  H   UNL     1       3.548  25.871  52.351  1.00  0.00     0.162 HD
BRANCH   3   6
HETATM    6  C   UNL     1       4.559  26.146  50.019  1.00  0.00     0.239 C 
BRANCH   6   7
HETATM    7  N   UNL     1       4.836  27.442  49.442  1.00  0.00    -0.259 N 
HETATM    8  C   UNL     1       5.093  27.633  48.121  1.00  0.00     0.326 C 
HETATM    9  N   UNL     1       5.107  28.984  47.872  1.00  0.00    -0.324 N 
HETATM   10  O   UNL     1       5.243  26.788  47.257  1.00  0.00    -0.247 OA
HETATM   11  C   UNL     1       4.613  29.762  48.997  1.00  0.00     0.119 C 
HETATM   12  H   UNL     1       5.157  29.305  46.913  1.00  0.00     0.165 HD
HETATM   13  C   UNL     1       5.537  30.968  49.266  1.00  0.00     0.019 C 
HETATM   14  C   UNL     1       4.623  28.638  50.065  1.00  0.00     0.257 C 
HETATM   15  C   UNL     1       3.147  30.171  48.758  1.00  0.00     0.041 C 
HETATM   16  C   UNL     1       5.324  31.617  50.639  1.00  0.00     0.013 C 
HETATM   17  C   UNL     1       5.364  32.024  48.151  1.00  0.00     0.007 C 
HETATM   18  C   UNL     1       3.908  32.439  47.937  1.00  0.00     0.001 C 
HETATM   19  C   UNL     1       3.006  31.238  47.675  1.00  0.00     0.003 C 
HETATM   20  O   UNL     1       4.363  28.766  51.255  1.00  0.00    -0.270 OA
ENDBRANCH   6   7
ENDBRANCH   3   6
ENDBRANCH   1   2
BRANCH   1  21
HETATM   21  C   UNL     1       6.388  25.376  54.259  1.00  0.00     0.071 C 
BRANCH  21  22
HETATM   22  C   UNL     1       7.106  24.300  55.041  1.00  0.00    -0.020 A 
HETATM   23  C   UNL     1       7.572  23.049  54.487  1.00  0.00    -0.001 A 
HETATM   24  C   UNL     1       8.152  22.313  55.520  1.00  0.00     0.042 A 
HETATM   25  C   UNL     1       7.551  22.477  53.197  1.00  0.00     0.014 A 
HETATM   26  C   UNL     1       8.703  21.039  55.332  1.00  0.00     0.030 A 
HETATM   27  N   UNL     1       8.065  23.077  56.655  1.00  0.00    -0.365 N 
HETATM   28  C   UNL     1       8.665  20.498  54.043  1.00  0.00     0.002 A 
HETATM   29  C   UNL     1       8.099  21.206  52.988  1.00  0.00     0.001 A 
HETATM   30  H   UNL     1       8.415  22.798  57.562  1.00  0.00     0.165 HD
HETATM   31  C   UNL     1       7.452  24.271  56.381  1.00  0.00     0.097 A 
ENDBRANCH  21  22
BRANCH  21  32
HETATM   32  C   UNL     1       6.381  26.637  55.103  1.00  0.00    -0.048 A 
HETATM   33  C   UNL     1       7.454  27.538  54.984  1.00  0.00     0.011 A 
HETATM   34  C   UNL     1       7.487  28.720  55.725  1.00  0.00     0.037 A 
HETATM   35  C   UNL     1       6.452  29.036  56.602  1.00  0.00     0.068 A 
HETATM   36  C   UNL     1       5.382  28.151  56.735  1.00  0.00     0.037 A 
HETATM   37  C   UNL     1       5.343  26.965  55.986  1.00  0.00     0.011 A 
BRANCH  35  38
HETATM   38  O   UNL     1       6.611  30.223  57.263  1.00  0.00    -0.356 OA
HETATM   39  C   UNL     1       7.620  30.270  58.262  1.00  0.00     0.210 C 
ENDBRANCH  35  38
ENDBRANCH  21  32
ENDBRANCH   1  21
TORSDOF 7
ENDMDL
MODEL 6
REMARK VINA RESULT:     -10.0      1.892      2.952
REMARK  7 active torsions:
REMARK  status: ('A' for Active; 'I' for Inactive)
REMARK    1  A    between atoms: N_7  and  C_8 
REMARK    2  A    between atoms: C_8  and  C_9 
REMARK       I    between atoms: C_9  and  N_10 
REMARK    3  A    between atoms: N_10  and  C_11 
REMARK    4  A    between atoms: C_11  and  C_12 
REMARK    5  A    between atoms: C_12  and  C_13 
REMARK    6  A    between atoms: C_12  and  C_23 
REMARK    7  A    between atoms: C_26  and  O_27 
ROOT
HETATM    1  C   UNL     1       5.292  24.884  53.670  1.00  0.00     0.136 C 
ENDROOT
BRANCH   1   2
HETATM    2  N   UNL     1       5.233  24.926  52.214  1.00  0.00    -0.359 N 
HETATM    3  C   UNL     1       5.138  26.182  51.627  1.00  0.00     0.236 C 
HETATM    4  O   UNL     1       4.845  27.188  52.275  1.00  0.00    -0.272 OA
HETATM    5  H   UNL     1       5.769  24.234  51.700  1.00  0.00     0.162 HD
BRANCH   3   6
HETATM    6  C   UNL     1       5.640  26.295  50.194  1.00  0.00     0.239 C 
BRANCH   6   7
HETATM    7  N   UNL     1       4.775  27.005  49.279  1.00  0.00    -0.259 N 
HETATM    8  C   UNL     1       3.695  26.438  48.679  1.00  0.00     0.326 C 
HETATM    9  N   UNL     1       2.981  27.426  48.046  1.00  0.00    -0.324 N 
HETATM   10  O   UNL     1       3.348  25.270  48.708  1.00  0.00    -0.247 OA
HETATM   11  C   UNL     1       3.438  28.760  48.405  1.00  0.00     0.119 C 
HETATM   12  H   UNL     1       2.075  27.202  47.654  1.00  0.00     0.165 HD
HETATM   13  C   UNL     1       3.570  29.642  47.147  1.00  0.00     0.019 C 
HETATM   14  C   UNL     1       4.762  28.358  49.105  1.00  0.00     0.257 C 
HETATM   15  C   UNL     1       2.509  29.370  49.472  1.00  0.00     0.041 C 
HETATM   16  C   UNL     1       4.393  30.916  47.368  1.00  0.00     0.013 C 
HETATM   17  C   UNL     1       2.168  30.007  46.609  1.00  0.00     0.007 C 
HETATM   18  C   UNL     1       1.261  30.632  47.670  1.00  0.00     0.001 C 
HETATM   19  C   UNL     1       1.141  29.751  48.908  1.00  0.00     0.003 C 
HETATM   20  O   UNL     1       5.610  29.125  49.545  1.00  0.00    -0.270 OA
ENDBRANCH   6   7
ENDBRANCH   3   6
ENDBRANCH   1   2
BRANCH   1  21
HETATM   21  C   UNL     1       6.611  25.186  54.402  1.00  0.00     0.071 C 
BRANCH  21  22
HETATM   22  C   UNL     1       7.277  24.059  55.158  1.00  0.00    -0.020 A 
HETATM   23  C   UNL     1       7.695  22.806  54.571  1.00  0.00    -0.001 A 
HETATM   24  C   UNL     1       8.236  22.017  55.585  1.00  0.00     0.042 A 
HETATM   25  C   UNL     1       7.659  22.272  53.264  1.00  0.00     0.014 A 
HETATM   26  C   UNL     1       8.734  20.727  55.364  1.00  0.00     0.030 A 
HETATM   27  N   UNL     1       8.174  22.752  56.741  1.00  0.00    -0.365 N 
HETATM   28  C   UNL     1       8.683  20.225  54.060  1.00  0.00     0.002 A 
HETATM   29  C   UNL     1       8.155  20.986  53.023  1.00  0.00     0.001 A 
HETATM   30  H   UNL     1       8.505  22.433  57.642  1.00  0.00     0.165 HD
HETATM   31  C   UNL     1       7.613  23.978  56.498  1.00  0.00     0.097 A 
ENDBRANCH  21  22
BRANCH  21  32
HETATM   32  C   UNL     1       6.616  26.412  55.297  1.00  0.00    -0.048 A 
HETATM   33  C   UNL     1       5.510  26.646  56.132  1.00  0.00     0.011 A 
HETATM   34  C   UNL     1       5.472  27.749  56.985  1.00  0.00     0.037 A 
HETATM   35  C   UNL     1       6.537  28.646  57.031  1.00  0.00     0.068 A 
HETATM   36  C   UNL     1       7.641  28.431  56.206  1.00  0.00     0.037 A 
HETATM   37  C   UNL     1       7.684  27.318  55.353  1.00  0.00     0.011 A 
BRANCH  35  38
HETATM   38  O   UNL     1       6.370  29.680  57.910  1.00  0.00    -0.356 OA
HETATM   39  C   UNL     1       7.548  30.249  58.462  1.00  0.00     0.210 C 
ENDBRANCH  35  38
ENDBRANCH  21  32
ENDBRANCH   1  21
TORSDOF 7
ENDMDL
MODEL 7
REMARK VINA RESULT:      -9.8      4.858      9.504
REMARK  7 active torsions:
REMARK  status: ('A' for Active; 'I' for Inactive)
REMARK    1  A    between atoms: N_7  and  C_8 
REMARK    2  A    between atoms: C_8  and  C_9 
REMARK       I    between atoms: C_9  and  N_10 
REMARK    3  A    between atoms: N_10  and  C_11 
REMARK    4  A    between atoms: C_11  and  C_12 
REMARK    5  A    between atoms: C_12  and  C_13 
REMARK    6  A    between atoms: C_12  and  C_23 
REMARK    7  A    between atoms: C_26  and  O_27 
ROOT
HETATM    1  C   UNL     1       8.396  27.900  57.101  1.00  0.00     0.136 C 
ENDROOT
BRANCH   1   2
HETATM    2  N   UNL     1       8.293  28.976  58.078  1.00  0.00    -0.359 N 
HETATM    3  C   UNL     1       9.347  29.880  58.126  1.00  0.00     0.236 C 
HETATM    4  O   UNL     1      10.429  29.656  57.584  1.00  0.00    -0.272 OA
HETATM    5  H   UNL     1       7.371  29.356  58.266  1.00  0.00     0.162 HD
BRANCH   3   6
HETATM    6  C   UNL     1       9.023  31.261  58.681  1.00  0.00     0.239 C 
BRANCH   6   7
HETATM    7  N   UNL     1       8.128  31.289  59.816  1.00  0.00    -0.259 N 
HETATM    8  C   UNL     1       8.438  30.754  61.027  1.00  0.00     0.326 C 
HETATM    9  N   UNL     1       7.472  31.129  61.928  1.00  0.00    -0.324 N 
HETATM   10  O   UNL     1       9.416  30.091  61.325  1.00  0.00    -0.247 OA
HETATM   11  C   UNL     1       6.582  32.150  61.398  1.00  0.00     0.119 C 
HETATM   12  H   UNL     1       7.612  30.924  62.910  1.00  0.00     0.165 HD
HETATM   13  C   UNL     1       5.114  31.803  61.713  1.00  0.00     0.019 C 
HETATM   14  C   UNL     1       7.006  32.059  59.909  1.00  0.00     0.257 C 
HETATM   15  C   UNL     1       6.997  33.539  61.920  1.00  0.00     0.041 C 
HETATM   16  C   UNL     1       4.097  32.598  60.884  1.00  0.00     0.013 C 
HETATM   17  C   UNL     1       4.835  32.004  63.220  1.00  0.00     0.007 C 
HETATM   18  C   UNL     1       5.230  33.393  63.724  1.00  0.00     0.001 C 
HETATM   19  C   UNL     1       6.684  33.724  63.403  1.00  0.00     0.003 C 
HETATM   20  O   UNL     1       6.500  32.669  58.974  1.00  0.00    -0.270 OA
ENDBRANCH   6   7
ENDBRANCH   3   6
ENDBRANCH   1   2
BRANCH   1  21
HETATM   21  C   UNL     1       7.147  27.422  56.338  1.00  0.00     0.071 C 
BRANCH  21  22
HETATM   22  C   UNL     1       7.351  26.689  55.032  1.00  0.00    -0.020 A 
HETATM   23  C   UNL     1       7.414  25.252  54.894  1.00  0.00    -0.001 A 
HETATM   24  C   UNL     1       7.641  24.960  53.549  1.00  0.00     0.042 A 
HETATM   25  C   UNL     1       7.298  24.172  55.796  1.00  0.00     0.014 A 
HETATM   26  C   UNL     1       7.765  23.652  53.063  1.00  0.00     0.030 A 
HETATM   27  N   UNL     1       7.699  26.157  52.883  1.00  0.00    -0.365 N 
HETATM   28  C   UNL     1       7.648  22.604  53.981  1.00  0.00     0.002 A 
HETATM   29  C   UNL     1       7.416  22.857  55.328  1.00  0.00     0.001 A 
HETATM   30  H   UNL     1       7.846  26.253  51.888  1.00  0.00     0.165 HD
HETATM   31  C   UNL     1       7.516  27.198  53.756  1.00  0.00     0.097 A 
ENDBRANCH  21  22
BRANCH  21  32
HETATM   32  C   UNL     1       6.055  28.455  56.125  1.00  0.00    -0.048 A 
HETATM   33  C   UNL     1       4.714  28.035  56.136  1.00  0.00     0.011 A 
HETATM   34  C   UNL     1       3.672  28.946  55.963  1.00  0.00     0.037 A 
HETATM   35  C   UNL     1       3.939  30.300  55.776  1.00  0.00     0.068 A 
HETATM   36  C   UNL     1       5.265  30.734  55.758  1.00  0.00     0.037 A 
HETATM   37  C   UNL     1       6.314  29.819  55.940  1.00  0.00     0.011 A 
BRANCH  35  38
HETATM   38  O   UNL     1       2.828  31.081  55.619  1.00  0.00    -0.356 OA
HETATM   39  C   UNL     1       2.924  32.428  56.059  1.00  0.00     0.210 C 
ENDBRANCH  35  38
ENDBRANCH  21  32
ENDBRANCH   1  21
TORSDOF 7
ENDMDL
MODEL 8
REMARK VINA RESULT:      -9.6      2.496      5.376
REMARK  7 active torsions:
REMARK  status: ('A' for Active; 'I' for Inactive)
REMARK    1  A    between atoms: N_7  and  C_8 
REMARK    2  A    between atoms: C_8  and  C_9 
REMARK       I    between atoms: C_9  and  N_10 
REMARK    3  A    between atoms: N_10  and  C_11 
REMARK    4  A    between atoms: C_11  and  C_12 
REMARK    5  A    between atoms: C_12  and  C_13 
REMARK    6  A    between atoms: C_12  and  C_23 
REMARK    7  A    between atoms: C_26  and  O_27 
ROOT
HETATM    1  C   UNL     1       4.685  25.771  53.666  1.00  0.00     0.136 C 
ENDROOT
BRANCH   1   2
HETATM    2  N   UNL     1       4.781  25.701  52.214  1.00  0.00    -0.359 N 
HETATM    3  C   UNL     1       4.705  26.905  51.523  1.00  0.00     0.236 C 
HETATM    4  O   UNL     1       4.311  27.943  52.055  1.00  0.00    -0.272 OA
HETATM    5  H   UNL     1       5.392  24.996  51.814  1.00  0.00     0.162 HD
BRANCH   3   6
HETATM    6  C   UNL     1       5.353  26.931  50.145  1.00  0.00     0.239 C 
BRANCH   6   7
HETATM    7  N   UNL     1       4.634  27.662  49.126  1.00  0.00    -0.259 N 
HETATM    8  C   UNL     1       3.566  27.155  48.454  1.00  0.00     0.326 C 
HETATM    9  N   UNL     1       2.996  28.166  47.719  1.00  0.00    -0.324 N 
HETATM   10  O   UNL     1       3.122  26.022  48.499  1.00  0.00    -0.247 OA
HETATM   11  C   UNL     1       3.530  29.474  48.063  1.00  0.00     0.119 C 
HETATM   12  H   UNL     1       2.112  27.995  47.255  1.00  0.00     0.165 HD
HETATM   13  C   UNL     1       3.845  30.281  46.787  1.00  0.00     0.019 C 
HETATM   14  C   UNL     1       4.749  29.003  48.896  1.00  0.00     0.257 C 
HETATM   15  C   UNL     1       2.565  30.207  49.014  1.00  0.00     0.041 C 
HETATM   16  C   UNL     1       4.749  31.495  47.029  1.00  0.00     0.013 C 
HETATM   17  C   UNL     1       2.531  30.731  46.108  1.00  0.00     0.007 C 
HETATM   18  C   UNL     1       1.590  31.476  47.056  1.00  0.00     0.001 C 
HETATM   19  C   UNL     1       1.289  30.668  48.313  1.00  0.00     0.003 C 
HETATM   20  O   UNL     1       5.617  29.720  49.380  1.00  0.00    -0.270 OA
ENDBRANCH   6   7
ENDBRANCH   3   6
ENDBRANCH   1   2
BRANCH   1  21
HETATM   21  C   UNL     1       5.950  25.644  54.534  1.00  0.00     0.071 C 
BRANCH  21  22
HETATM   22  C   UNL     1       6.899  26.819  54.584  1.00  0.00    -0.020 A 
HETATM   23  C   UNL     1       7.331  27.480  55.794  1.00  0.00    -0.001 A 
HETATM   24  C   UNL     1       8.173  28.531  55.431  1.00  0.00     0.042 A 
HETATM   25  C   UNL     1       7.079  27.278  57.168  1.00  0.00     0.014 A 
HETATM   26  C   UNL     1       8.767  29.389  56.365  1.00  0.00     0.030 A 
HETATM   27  N   UNL     1       8.272  28.511  54.063  1.00  0.00    -0.365 N 
HETATM   28  C   UNL     1       8.498  29.165  57.717  1.00  0.00     0.002 A 
HETATM   29  C   UNL     1       7.667  28.123  58.117  1.00  0.00     0.001 A 
HETATM   30  H   UNL     1       8.827  29.158  53.519  1.00  0.00     0.165 HD
HETATM   31  C   UNL     1       7.524  27.487  53.545  1.00  0.00     0.097 A 
ENDBRANCH  21  22
BRANCH  21  32
HETATM   32  C   UNL     1       6.777  24.387  54.333  1.00  0.00    -0.048 A 
HETATM   33  C   UNL     1       7.287  23.723  55.463  1.00  0.00     0.011 A 
HETATM   34  C   UNL     1       8.039  22.555  55.334  1.00  0.00     0.037 A 
HETATM   35  C   UNL     1       8.301  22.017  54.076  1.00  0.00     0.068 A 
HETATM   36  C   UNL     1       7.806  22.665  52.944  1.00  0.00     0.037 A 
HETATM   37  C   UNL     1       7.044  23.836  53.073  1.00  0.00     0.011 A 
BRANCH  35  38
HETATM   38  O   UNL     1       9.048  20.872  54.094  1.00  0.00    -0.356 OA
HETATM   39  C   UNL     1       8.755  19.932  55.117  1.00  0.00     0.210 C 
ENDBRANCH  35  38
ENDBRANCH  21  32
ENDBRANCH   1  21
TORSDOF 7
ENDMDL
MODEL 9
REMARK VINA RESULT:      -9.5      2.663      5.267
REMARK  7 active torsions:
REMARK  status: ('A' for Active; 'I' for Inactive)
REMARK    1  A    between atoms: N_7  and  C_8 
REMARK    2  A    between atoms: C_8  and  C_9 
REMARK       I    between atoms: C_9  and  N_10 
REMARK    3  A    between atoms: N_10  and  C_11 
REMARK    4  A    between atoms: C_11  and  C_12 
REMARK    5  A    between atoms: C_12  and  C_13 
REMARK    6  A    between atoms: C_12  and  C_23 
REMARK    7  A    between atoms: C_26  and  O_27 
ROOT
HETATM    1  C   UNL     1       4.753  26.577  52.821  1.00  0.00     0.136 C 
ENDROOT
BRANCH   1   2
HETATM    2  N   UNL     1       5.300  27.308  51.685  1.00  0.00    -0.359 N 
HETATM    3  C   UNL     1       5.065  26.773  50.424  1.00  0.00     0.236 C 
HETATM    4  O   UNL     1       4.662  25.620  50.266  1.00  0.00    -0.272 OA
HETATM    5  H   UNL     1       5.320  28.321  51.741  1.00  0.00     0.162 HD
BRANCH   3   6
HETATM    6  C   UNL     1       5.105  27.753  49.259  1.00  0.00     0.239 C 
BRANCH   6   7
HETATM    7  N   UNL     1       3.841  28.357  48.902  1.00  0.00    -0.259 N 
HETATM    8  C   UNL     1       3.339  29.461  49.517  1.00  0.00     0.326 C 
HETATM    9  N   UNL     1       2.243  29.891  48.811  1.00  0.00    -0.324 N 
HETATM   10  O   UNL     1       3.776  30.036  50.498  1.00  0.00    -0.247 OA
HETATM   11  C   UNL     1       2.105  29.215  47.530  1.00  0.00     0.119 C 
HETATM   12  H   UNL     1       1.819  30.778  49.055  1.00  0.00     0.165 HD
HETATM   13  C   UNL     1       0.644  28.779  47.304  1.00  0.00     0.019 C 
HETATM   14  C   UNL     1       3.133  28.080  47.768  1.00  0.00     0.257 C 
HETATM   15  C   UNL     1       2.646  30.109  46.398  1.00  0.00     0.041 C 
HETATM   16  C   UNL     1       0.472  27.744  46.186  1.00  0.00     0.013 C 
HETATM   17  C   UNL     1      -0.239  30.015  47.018  1.00  0.00     0.007 C 
HETATM   18  C   UNL     1       0.295  30.883  45.878  1.00  0.00     0.001 C 
HETATM   19  C   UNL     1       1.741  31.305  46.113  1.00  0.00     0.003 C 
HETATM   20  O   UNL     1       3.369  27.145  47.012  1.00  0.00    -0.270 OA
ENDBRANCH   6   7
ENDBRANCH   3   6
ENDBRANCH   1   2
BRANCH   1  21
HETATM   21  C   UNL     1       5.639  26.258  54.038  1.00  0.00     0.071 C 
BRANCH  21  22
HETATM   22  C   UNL     1       6.486  27.370  54.610  1.00  0.00    -0.020 A 
HETATM   23  C   UNL     1       6.072  28.262  55.669  1.00  0.00    -0.001 A 
HETATM   24  C   UNL     1       7.108  29.167  55.898  1.00  0.00     0.042 A 
HETATM   25  C   UNL     1       4.904  28.380  56.454  1.00  0.00     0.014 A 
HETATM   26  C   UNL     1       7.036  30.182  56.860  1.00  0.00     0.030 A 
HETATM   27  N   UNL     1       8.123  28.841  55.034  1.00  0.00    -0.365 N 
HETATM   28  C   UNL     1       5.866  30.275  57.620  1.00  0.00     0.002 A 
HETATM   29  C   UNL     1       4.815  29.386  57.423  1.00  0.00     0.001 A 
HETATM   30  H   UNL     1       9.009  29.325  54.982  1.00  0.00     0.165 HD
HETATM   31  C   UNL     1       7.768  27.762  54.267  1.00  0.00     0.097 A 
ENDBRANCH  21  22
BRANCH  21  32
HETATM   32  C   UNL     1       6.510  25.020  53.927  1.00  0.00    -0.048 A 
HETATM   33  C   UNL     1       6.749  24.253  55.081  1.00  0.00     0.011 A 
HETATM   34  C   UNL     1       7.529  23.098  55.029  1.00  0.00     0.037 A 
HETATM   35  C   UNL     1       8.089  22.674  53.826  1.00  0.00     0.068 A 
HETATM   36  C   UNL     1       7.865  23.425  52.672  1.00  0.00     0.037 A 
HETATM   37  C   UNL     1       7.075  24.584  52.721  1.00  0.00     0.011 A 
BRANCH  35  38
HETATM   38  O   UNL     1       8.829  21.528  53.918  1.00  0.00    -0.356 OA
HETATM   39  C   UNL     1       8.293  20.368  53.297  1.00  0.00     0.210 C 
ENDBRANCH  35  38
ENDBRANCH  21  32
ENDBRANCH   1  21
TORSDOF 7
ENDMDL
MODEL 10
REMARK VINA RESULT:      -9.4      2.436      3.987
REMARK  7 active torsions:
REMARK  status: ('A' for Active; 'I' for Inactive)
REMARK    1  A    between atoms: N_7  and  C_8 
REMARK    2  A    between atoms: C_8  and  C_9 
REMARK       I    between atoms: C_9  and  N_10 
REMARK    3  A    between atoms: N_10  and  C_11 
REMARK    4  A    between atoms: C_11  and  C_12 
REMARK    5  A    between atoms: C_12  and  C_13 
REMARK    6  A    between atoms: C_12  and  C_23 
REMARK    7  A    between atoms: C_26  and  O_27 
ROOT
HETATM    1  C   UNL     1       5.555  26.372  52.967  1.00  0.00     0.136 C 
ENDROOT
BRANCH   1   2
HETATM    2  N   UNL     1       5.623  27.291  51.838  1.00  0.00    -0.359 N 
HETATM    3  C   UNL     1       5.015  26.879  50.658  1.00  0.00     0.236 C 
HETATM    4  O   UNL     1       4.675  25.711  50.468  1.00  0.00    -0.272 OA
HETATM    5  H   UNL     1       5.582  28.286  52.036  1.00  0.00     0.162 HD
BRANCH   3   6
HETATM    6  C   UNL     1       4.579  27.983  49.705  1.00  0.00     0.239 C 
BRANCH   6   7
HETATM    7  N   UNL     1       3.989  29.150  50.322  1.00  0.00    -0.259 N 
HETATM    8  C   UNL     1       2.671  29.240  50.643  1.00  0.00     0.326 C 
HETATM    9  N   UNL     1       2.483  30.376  51.392  1.00  0.00    -0.324 N 
HETATM   10  O   UNL     1       1.779  28.453  50.379  1.00  0.00    -0.247 OA
HETATM   11  C   UNL     1       3.738  30.980  51.812  1.00  0.00     0.119 C 
HETATM   12  H   UNL     1       1.582  30.534  51.826  1.00  0.00     0.165 HD
HETATM   13  C   UNL     1       3.704  32.505  51.591  1.00  0.00     0.019 C 
HETATM   14  C   UNL     1       4.690  30.173  50.891  1.00  0.00     0.257 C 
HETATM   15  C   UNL     1       4.053  30.591  53.269  1.00  0.00     0.041 C 
HETATM   16  C   UNL     1       5.084  33.170  51.640  1.00  0.00     0.013 C 
HETATM   17  C   UNL     1       2.764  33.168  52.623  1.00  0.00     0.007 C 
HETATM   18  C   UNL     1       3.098  32.793  54.068  1.00  0.00     0.001 C 
HETATM   19  C   UNL     1       3.131  31.282  54.271  1.00  0.00     0.003 C 
HETATM   20  O   UNL     1       5.898  30.338  50.776  1.00  0.00    -0.270 OA
ENDBRANCH   6   7
ENDBRANCH   3   6
ENDBRANCH   1   2
BRANCH   1  21
HETATM   21  C   UNL     1       6.558  26.493  54.128  1.00  0.00     0.071 C 
BRANCH  21  22
HETATM   22  C   UNL     1       6.859  25.253  54.937  1.00  0.00    -0.020 A 
HETATM   23  C   UNL     1       7.253  23.979  54.380  1.00  0.00    -0.001 A 
HETATM   24  C   UNL     1       7.411  23.080  55.434  1.00  0.00     0.042 A 
HETATM   25  C   UNL     1       7.488  23.510  53.069  1.00  0.00     0.014 A 
HETATM   26  C   UNL     1       7.782  21.743  55.247  1.00  0.00     0.030 A 
HETATM   27  N   UNL     1       7.145  23.768  56.591  1.00  0.00    -0.365 N 
HETATM   28  C   UNL     1       8.006  21.308  53.938  1.00  0.00     0.002 A 
HETATM   29  C   UNL     1       7.864  22.178  52.862  1.00  0.00     0.001 A 
HETATM   30  H   UNL     1       7.189  23.369  57.519  1.00  0.00     0.165 HD
HETATM   31  C   UNL     1       6.825  25.070  56.309  1.00  0.00     0.097 A 
ENDBRANCH  21  22
BRANCH  21  32
HETATM   32  C   UNL     1       6.326  27.637  55.098  1.00  0.00    -0.048 A 
HETATM   33  C   UNL     1       7.404  28.479  55.423  1.00  0.00     0.011 A 
HETATM   34  C   UNL     1       7.240  29.555  56.296  1.00  0.00     0.037 A 
HETATM   35  C   UNL     1       5.997  29.820  56.867  1.00  0.00     0.068 A 
HETATM   36  C   UNL     1       4.918  28.992  56.559  1.00  0.00     0.037 A 
HETATM   37  C   UNL     1       5.080  27.914  55.675  1.00  0.00     0.011 A 
BRANCH  35  38
HETATM   38  O   UNL     1       5.977  30.903  57.702  1.00  0.00    -0.356 OA
HETATM   39  C   UNL     1       5.291  32.057  57.238  1.00  0.00     0.210 C 
ENDBRANCH  35  38
ENDBRANCH  21  32
ENDBRANCH   1  21
TORSDOF 7
ENDMDL
