MODEL 1
REMARK VINA RESULT:     -10.3      0.000      0.000
REMARK  10 active torsions:
REMARK  status: ('A' for Active; 'I' for Inactive)
REMARK    1  A    between atoms: C_6  and  N_7 
REMARK    2  A    between atoms: C_8  and  S_9 
REMARK    3  A    between atoms: S_9  and  C_10 
REMARK    4  A    between atoms: C_10  and  C_11 
REMARK       I    between atoms: C_11  and  N_12 
REMARK    5  A    between atoms: N_12  and  C_13 
REMARK    6  A    between atoms: C_13  and  C_14 
REMARK    7  A    between atoms: C_14  and  C_15 
REMARK    8  A    between atoms: C_18  and  S_19 
REMARK    9  A    between atoms: S_19  and  N_20 
REMARK   10  A    between atoms: C_29  and  N_30 
ROOT
HETATM    1  N   UNL     1       6.187  26.786  54.011  1.00  0.00    -0.276 N 
HETATM    2  C   UNL     1       6.644  27.614  54.994  1.00  0.00     0.177 A 
HETATM    3  N   UNL     1       6.202  28.864  55.219  1.00  0.00    -0.204 NA
HETATM    4  C   UNL     1       5.192  29.192  54.414  1.00  0.00     0.162 A 
HETATM    5  C   UNL     1       4.630  28.404  53.431  1.00  0.00     0.081 A 
HETATM    6  C   UNL     1       5.163  27.129  53.180  1.00  0.00     0.124 A 
HETATM    7  N   UNL     1       4.504  30.371  54.425  1.00  0.00    -0.260 N 
HETATM    8  H   UNL     1       4.652  31.176  55.026  1.00  0.00     0.191 HD
HETATM    9  N   UNL     1       3.512  30.405  53.521  1.00  0.00    -0.177 NA
HETATM   10  C   UNL     1       3.565  29.209  52.923  1.00  0.00     0.068 A 
HETATM   11  C   UNL     1       2.563  28.876  51.877  1.00  0.00     0.073 C 
ENDROOT
BRANCH   2  12
HETATM   12  S   UNL     1       7.775  27.013  56.249  1.00  0.00    -0.082 SA
BRANCH  12  13
HETATM   13  C   UNL     1       7.704  28.377  57.453  1.00  0.00     0.185 C 
BRANCH  13  14
HETATM   14  C   UNL     1       8.923  29.261  57.281  1.00  0.00     0.227 C 
HETATM   15  N   UNL     1       9.279  30.123  58.280  1.00  0.00    -0.360 N 
HETATM   16  H   UNL     1      10.049  30.727  58.005  1.00  0.00     0.162 HD
HETATM   17  O   UNL     1       9.597  29.213  56.253  1.00  0.00    -0.273 OA
BRANCH  15  18
HETATM   18  C   UNL     1       8.493  30.516  59.441  1.00  0.00     0.127 C 
BRANCH  18  19
HETATM   19  C   UNL     1       9.164  31.602  60.291  1.00  0.00     0.058 C 
BRANCH  19  20
HETATM   20  C   UNL     1       8.258  32.140  61.376  1.00  0.00    -0.057 A 
HETATM   21  C   UNL     1       6.990  32.653  61.064  1.00  0.00     0.009 A 
HETATM   22  C   UNL     1       6.184  33.206  62.061  1.00  0.00     0.025 A 
HETATM   23  C   UNL     1       6.641  33.231  63.381  1.00  0.00     0.074 A 
HETATM   24  C   UNL     1       7.895  32.712  63.710  1.00  0.00     0.025 A 
HETATM   25  C   UNL     1       8.698  32.163  62.708  1.00  0.00     0.009 A 
BRANCH  23  26
HETATM   26  S   UNL     1       5.659  34.006  64.632  1.00  0.00     0.239 S 
HETATM   27  O   UNL     1       5.385  35.369  64.240  1.00  0.00    -0.206 OA
HETATM   28  O   UNL     1       4.616  33.093  65.040  1.00  0.00    -0.206 OA
BRANCH  26  29
HETATM   29  N   UNL     1       6.733  34.094  65.916  1.00  0.00    -0.225 NA
HETATM   30  H   UNL     1       6.391  34.762  66.608  1.00  0.00     0.136 HD
HETATM   31  H   UNL     1       6.894  33.161  66.299  1.00  0.00     0.136 HD
ENDBRANCH  26  29
ENDBRANCH  23  26
ENDBRANCH  19  20
ENDBRANCH  18  19
ENDBRANCH  15  18
ENDBRANCH  13  14
ENDBRANCH  12  13
ENDBRANCH   2  12
BRANCH   1  32
HETATM   32  C   UNL     1       6.812  25.503  53.837  1.00  0.00     0.045 A 
HETATM   33  C   UNL     1       6.711  24.556  54.853  1.00  0.00     0.054 A 
HETATM   34  C   UNL     1       7.349  23.329  54.681  1.00  0.00     0.042 A 
HETATM   35  C   UNL     1       8.076  23.051  53.507  1.00  0.00    -0.040 A 
HETATM   36 CL   UNL     1       7.217  22.175  55.955  1.00  0.00    -0.084 Cl
HETATM   37  C   UNL     1       8.779  21.734  53.306  1.00  0.00     0.050 C 
HETATM   38  C   UNL     1       8.141  24.025  52.494  1.00  0.00     0.011 A 
HETATM   39  C   UNL     1       7.507  25.256  52.651  1.00  0.00     0.031 A 
ENDBRANCH   1  32
BRANCH   6  40
HETATM   40  N   UNL     1       4.690  26.297  52.175  1.00  0.00    -0.384 N 
HETATM   41  H   UNL     1       4.142  26.697  51.421  1.00  0.00     0.157 HD
HETATM   42  H   UNL     1       5.096  25.392  51.968  1.00  0.00     0.157 HD
ENDBRANCH   6  40
TORSDOF 10
ENDMDL
MODEL 2
REMARK VINA RESULT:     -10.2      6.179     11.920
REMARK  10 active torsions:
REMARK  status: ('A' for Active; 'I' for Inactive)
REMARK    1  A    between atoms: C_6  and  N_7 
REMARK    2  A    between atoms: C_8  and  S_9 
REMARK    3  A    between atoms: S_9  and  C_10 
REMARK    4  A    between atoms: C_10  and  C_11 
REMARK       I    between atoms: C_11  and  N_12 
REMARK    5  A    between atoms: N_12  and  C_13 
REMARK    6  A    between atoms: C_13  and  C_14 
REMARK    7  A    between atoms: C_14  and  C_15 
REMARK    8  A    between atoms: C_18  and  S_19 
REMARK    9  A    between atoms: S_19  and  N_20 
REMARK   10  A    between atoms: C_29  and  N_30 
ROOT
HETATM    1  N   UNL     1       7.056  24.078  54.801  1.00  0.00    -0.276 N 
HETATM    2  C   UNL     1       6.637  23.855  53.522  1.00  0.00     0.177 A 
HETATM    3  N   UNL     1       6.966  22.785  52.776  1.00  0.00    -0.204 NA
HETATM    4  C   UNL     1       7.700  21.905  53.457  1.00  0.00     0.162 A 
HETATM    5  C   UNL     1       8.125  22.020  54.765  1.00  0.00     0.081 A 
HETATM    6  C   UNL     1       7.818  23.183  55.491  1.00  0.00     0.124 A 
HETATM    7  N   UNL     1       8.154  20.705  52.993  1.00  0.00    -0.260 N 
HETATM    8  H   UNL     1       8.020  20.300  52.070  1.00  0.00     0.191 HD
HETATM    9  N   UNL     1       8.840  20.013  53.916  1.00  0.00    -0.177 NA
HETATM   10  C   UNL     1       8.814  20.792  55.003  1.00  0.00     0.068 A 
HETATM   11  C   UNL     1       9.452  20.310  56.257  1.00  0.00     0.073 C 
ENDROOT
BRANCH   2  12
HETATM   12  S   UNL     1       5.396  24.905  52.766  1.00  0.00    -0.082 SA
BRANCH  12  13
HETATM   13  C   UNL     1       6.448  26.022  51.784  1.00  0.00     0.185 C 
BRANCH  13  14
HETATM   14  C   UNL     1       5.828  27.405  51.763  1.00  0.00     0.227 C 
HETATM   15  N   UNL     1       4.950  27.737  50.771  1.00  0.00    -0.360 N 
HETATM   16  H   UNL     1       4.683  28.717  50.810  1.00  0.00     0.162 HD
HETATM   17  O   UNL     1       6.105  28.234  52.630  1.00  0.00    -0.273 OA
BRANCH  15  18
HETATM   18  C   UNL     1       4.690  27.015  49.532  1.00  0.00     0.127 C 
BRANCH  18  19
HETATM   19  C   UNL     1       4.696  27.915  48.291  1.00  0.00     0.058 C 
BRANCH  19  20
HETATM   20  C   UNL     1       3.332  28.039  47.651  1.00  0.00    -0.057 A 
HETATM   21  C   UNL     1       2.513  26.912  47.479  1.00  0.00     0.009 A 
HETATM   22  C   UNL     1       1.282  27.022  46.830  1.00  0.00     0.025 A 
HETATM   23  C   UNL     1       0.858  28.269  46.365  1.00  0.00     0.074 A 
HETATM   24  C   UNL     1       1.654  29.403  46.540  1.00  0.00     0.025 A 
HETATM   25  C   UNL     1       2.886  29.287  47.187  1.00  0.00     0.009 A 
BRANCH  23  26
HETATM   26  S   UNL     1      -0.663  28.397  45.469  1.00  0.00     0.239 S 
HETATM   27  O   UNL     1      -1.760  28.073  46.351  1.00  0.00    -0.206 OA
HETATM   28  O   UNL     1      -0.636  29.605  44.676  1.00  0.00    -0.206 OA
BRANCH  26  29
HETATM   29  N   UNL     1      -0.539  27.124  44.386  1.00  0.00    -0.225 NA
HETATM   30  H   UNL     1       0.140  26.443  44.729  1.00  0.00     0.136 HD
HETATM   31  H   UNL     1      -1.462  26.724  44.213  1.00  0.00     0.136 HD
ENDBRANCH  26  29
ENDBRANCH  23  26
ENDBRANCH  19  20
ENDBRANCH  18  19
ENDBRANCH  15  18
ENDBRANCH  13  14
ENDBRANCH  12  13
ENDBRANCH   2  12
BRANCH   1  32
HETATM   32  C   UNL     1       6.688  25.309  55.447  1.00  0.00     0.045 A 
HETATM   33  C   UNL     1       7.521  26.417  55.318  1.00  0.00     0.054 A 
HETATM   34  C   UNL     1       7.165  27.593  55.977  1.00  0.00     0.042 A 
HETATM   35  C   UNL     1       5.991  27.661  56.750  1.00  0.00    -0.040 A 
HETATM   36 CL   UNL     1       8.215  28.950  55.809  1.00  0.00    -0.084 Cl
HETATM   37  C   UNL     1       5.594  28.920  57.477  1.00  0.00     0.050 C 
HETATM   38  C   UNL     1       5.164  26.526  56.843  1.00  0.00     0.011 A 
HETATM   39  C   UNL     1       5.506  25.344  56.190  1.00  0.00     0.031 A 
ENDBRANCH   1  32
BRANCH   6  40
HETATM   40  N   UNL     1       8.252  23.400  56.790  1.00  0.00    -0.384 N 
HETATM   41  H   UNL     1       7.584  23.332  57.551  1.00  0.00     0.157 HD
HETATM   42  H   UNL     1       9.221  23.317  57.072  1.00  0.00     0.157 HD
ENDBRANCH   6  40
TORSDOF 10
ENDMDL
MODEL 3
REMARK VINA RESULT:     -10.1      3.578      9.845
REMARK  10 active torsions:
REMARK  status: ('A' for Active; 'I' for Inactive)
REMARK    1  A    between atoms: C_6  and  N_7 
REMARK    2  A    between atoms: C_8  and  S_9 
REMARK    3  A    between atoms: S_9  and  C_10 
REMARK    4  A    between atoms: C_10  and  C_11 
REMARK       I    between atoms: C_11  and  N_12 
REMARK    5  A    between atoms: N_12  and  C_13 
REMARK    6  A    between atoms: C_13  and  C_14 
REMARK    7  A    between atoms: C_14  and  C_15 
REMARK    8  A    between atoms: C_18  and  S_19 
REMARK    9  A    between atoms: S_19  and  N_20 
REMARK   10  A    between atoms: C_29  and  N_30 
ROOT
HETATM    1  N   UNL     1       6.935  31.808  60.439  1.00  0.00    -0.276 N 
HETATM    2  C   UNL     1       5.671  32.017  59.971  1.00  0.00     0.177 A 
HETATM    3  N   UNL     1       4.626  32.415  60.719  1.00  0.00    -0.204 NA
HETATM    4  C   UNL     1       4.977  32.667  61.980  1.00  0.00     0.162 A 
HETATM    5  C   UNL     1       6.236  32.537  62.528  1.00  0.00     0.081 A 
HETATM    6  C   UNL     1       7.289  32.053  61.733  1.00  0.00     0.124 A 
HETATM    7  N   UNL     1       4.155  33.125  62.968  1.00  0.00    -0.260 N 
HETATM    8  H   UNL     1       3.162  33.333  62.910  1.00  0.00     0.191 HD
HETATM    9  N   UNL     1       4.795  33.320  64.131  1.00  0.00    -0.177 NA
HETATM   10  C   UNL     1       6.065  32.985  63.873  1.00  0.00     0.068 A 
HETATM   11  C   UNL     1       7.085  33.125  64.946  1.00  0.00     0.073 C 
ENDROOT
BRANCH   2  12
HETATM   12  S   UNL     1       5.324  31.974  58.213  1.00  0.00    -0.082 SA
BRANCH  12  13
HETATM   13  C   UNL     1       3.985  30.740  58.159  1.00  0.00     0.185 C 
BRANCH  13  14
HETATM   14  C   UNL     1       3.397  30.699  56.763  1.00  0.00     0.227 C 
HETATM   15  N   UNL     1       3.811  29.738  55.884  1.00  0.00    -0.360 N 
HETATM   16  H   UNL     1       3.419  29.876  54.956  1.00  0.00     0.162 HD
HETATM   17  O   UNL     1       2.551  31.520  56.410  1.00  0.00    -0.273 OA
BRANCH  15  18
HETATM   18  C   UNL     1       4.961  28.853  56.007  1.00  0.00     0.127 C 
BRANCH  18  19
HETATM   19  C   UNL     1       5.272  28.079  54.720  1.00  0.00     0.058 C 
BRANCH  19  20
HETATM   20  C   UNL     1       5.932  26.744  54.986  1.00  0.00    -0.057 A 
HETATM   21  C   UNL     1       5.755  26.086  56.212  1.00  0.00     0.009 A 
HETATM   22  C   UNL     1       6.418  24.886  56.475  1.00  0.00     0.025 A 
HETATM   23  C   UNL     1       7.249  24.330  55.500  1.00  0.00     0.074 A 
HETATM   24  C   UNL     1       7.425  24.965  54.269  1.00  0.00     0.025 A 
HETATM   25  C   UNL     1       6.762  26.167  54.012  1.00  0.00     0.009 A 
BRANCH  23  26
HETATM   26  S   UNL     1       8.155  22.854  55.861  1.00  0.00     0.239 S 
HETATM   27  O   UNL     1       7.322  21.708  55.580  1.00  0.00    -0.206 OA
HETATM   28  O   UNL     1       9.493  22.987  55.332  1.00  0.00    -0.206 OA
BRANCH  26  29
HETATM   29  N   UNL     1       8.301  22.931  57.529  1.00  0.00    -0.225 NA
HETATM   30  H   UNL     1       8.663  23.846  57.803  1.00  0.00     0.136 HD
HETATM   31  H   UNL     1       7.408  22.701  57.967  1.00  0.00     0.136 HD
ENDBRANCH  26  29
ENDBRANCH  23  26
ENDBRANCH  19  20
ENDBRANCH  18  19
ENDBRANCH  15  18
ENDBRANCH  13  14
ENDBRANCH  12  13
ENDBRANCH   2  12
BRANCH   1  32
HETATM   32  C   UNL     1       7.935  31.303  59.538  1.00  0.00     0.045 A 
HETATM   33  C   UNL     1       7.732  30.071  58.923  1.00  0.00     0.054 A 
HETATM   34  C   UNL     1       8.726  29.582  58.076  1.00  0.00     0.042 A 
HETATM   35  C   UNL     1       9.904  30.318  57.844  1.00  0.00    -0.040 A 
HETATM   36 CL   UNL     1       8.457  28.051  57.331  1.00  0.00    -0.084 Cl
HETATM   37  C   UNL     1      10.992  29.802  56.940  1.00  0.00     0.050 C 
HETATM   38  C   UNL     1      10.065  31.568  58.469  1.00  0.00     0.011 A 
HETATM   39  C   UNL     1       9.081  32.070  59.317  1.00  0.00     0.031 A 
ENDBRANCH   1  32
BRANCH   6  40
HETATM   40  N   UNL     1       8.570  31.844  62.221  1.00  0.00    -0.384 N 
HETATM   41  H   UNL     1       9.365  32.035  61.619  1.00  0.00     0.157 HD
HETATM   42  H   UNL     1       8.789  31.811  63.209  1.00  0.00     0.157 HD
ENDBRANCH   6  40
TORSDOF 10
ENDMDL
MODEL 4
REMARK VINA RESULT:     -10.1      2.312      4.614
REMARK  10 active torsions:
REMARK  status: ('A' for Active; 'I' for Inactive)
REMARK    1  A    between atoms: C_6  and  N_7 
REMARK    2  A    between atoms: C_8  and  S_9 
REMARK    3  A    between atoms: S_9  and  C_10 
REMARK    4  A    between atoms: C_10  and  C_11 
REMARK       I    between atoms: C_11  and  N_12 
REMARK    5  A    between atoms: N_12  and  C_13 
REMARK    6  A    between atoms: C_13  and  C_14 
REMARK    7  A    between atoms: C_14  and  C_15 
REMARK    8  A    between atoms: C_18  and  S_19 
REMARK    9  A    between atoms: S_19  and  N_20 
REMARK   10  A    between atoms: C_29  and  N_30 
ROOT
HETATM    1  N   UNL     1       6.534  26.878  55.334  1.00  0.00    -0.276 N 
HETATM    2  C   UNL     1       7.258  27.467  56.329  1.00  0.00     0.177 A 
HETATM    3  N   UNL     1       8.009  26.810  57.231  1.00  0.00    -0.204 NA
HETATM    4  C   UNL     1       8.037  25.498  57.001  1.00  0.00     0.162 A 
HETATM    5  C   UNL     1       7.383  24.822  55.991  1.00  0.00     0.081 A 
HETATM    6  C   UNL     1       6.554  25.534  55.109  1.00  0.00     0.124 A 
HETATM    7  N   UNL     1       8.741  24.570  57.713  1.00  0.00    -0.260 N 
HETATM    8  H   UNL     1       9.335  24.723  58.523  1.00  0.00     0.191 HD
HETATM    9  N   UNL     1       8.605  23.326  57.228  1.00  0.00    -0.177 NA
HETATM   10  C   UNL     1       7.798  23.467  56.170  1.00  0.00     0.068 A 
HETATM   11  C   UNL     1       7.462  22.274  55.350  1.00  0.00     0.073 C 
ENDROOT
BRANCH   2  12
HETATM   12  S   UNL     1       7.443  29.249  56.399  1.00  0.00    -0.082 SA
BRANCH  12  13
HETATM   13  C   UNL     1       8.393  29.433  57.942  1.00  0.00     0.185 C 
BRANCH  13  14
HETATM   14  C   UNL     1       9.737  30.059  57.632  1.00  0.00     0.227 C 
HETATM   15  N   UNL     1      10.159  31.144  58.347  1.00  0.00    -0.360 N 
HETATM   16  H   UNL     1      11.025  31.529  57.981  1.00  0.00     0.162 HD
HETATM   17  O   UNL     1      10.455  29.603  56.743  1.00  0.00    -0.273 OA
BRANCH  15  18
HETATM   18  C   UNL     1       9.373  31.981  59.244  1.00  0.00     0.127 C 
BRANCH  18  19
HETATM   19  C   UNL     1       9.489  31.571  60.717  1.00  0.00     0.058 C 
BRANCH  19  20
HETATM   20  C   UNL     1       8.375  32.132  61.571  1.00  0.00    -0.057 A 
HETATM   21  C   UNL     1       7.173  32.565  60.990  1.00  0.00     0.009 A 
HETATM   22  C   UNL     1       6.173  33.141  61.775  1.00  0.00     0.025 A 
HETATM   23  C   UNL     1       6.367  33.269  63.153  1.00  0.00     0.074 A 
HETATM   24  C   UNL     1       7.551  32.831  63.748  1.00  0.00     0.025 A 
HETATM   25  C   UNL     1       8.550  32.259  62.958  1.00  0.00     0.009 A 
BRANCH  23  26
HETATM   26  S   UNL     1       5.138  34.075  64.138  1.00  0.00     0.239 S 
HETATM   27  O   UNL     1       4.417  35.019  63.316  1.00  0.00    -0.206 OA
HETATM   28  O   UNL     1       4.467  33.084  64.949  1.00  0.00    -0.206 OA
BRANCH  26  29
HETATM   29  N   UNL     1       6.073  34.986  65.189  1.00  0.00    -0.225 NA
HETATM   30  H   UNL     1       6.453  35.797  64.700  1.00  0.00     0.136 HD
HETATM   31  H   UNL     1       5.527  35.231  66.017  1.00  0.00     0.136 HD
ENDBRANCH  26  29
ENDBRANCH  23  26
ENDBRANCH  19  20
ENDBRANCH  18  19
ENDBRANCH  15  18
ENDBRANCH  13  14
ENDBRANCH  12  13
ENDBRANCH   2  12
BRANCH   1  32
HETATM   32  C   UNL     1       5.712  27.704  54.492  1.00  0.00     0.045 A 
HETATM   33  C   UNL     1       6.125  27.967  53.189  1.00  0.00     0.054 A 
HETATM   34  C   UNL     1       5.331  28.795  52.396  1.00  0.00     0.042 A 
HETATM   35  C   UNL     1       4.137  29.348  52.899  1.00  0.00    -0.040 A 
HETATM   36 CL   UNL     1       5.867  29.114  50.789  1.00  0.00    -0.084 Cl
HETATM   37  C   UNL     1       3.270  30.251  52.061  1.00  0.00     0.050 C 
HETATM   38  C   UNL     1       3.742  29.044  54.215  1.00  0.00     0.011 A 
HETATM   39  C   UNL     1       4.525  28.218  55.018  1.00  0.00     0.031 A 
ENDBRANCH   1  32
BRANCH   6  40
HETATM   40  N   UNL     1       5.821  24.923  54.101  1.00  0.00    -0.384 N 
HETATM   41  H   UNL     1       4.831  24.753  54.246  1.00  0.00     0.157 HD
HETATM   42  H   UNL     1       6.113  24.912  53.132  1.00  0.00     0.157 HD
ENDBRANCH   6  40
TORSDOF 10
ENDMDL
MODEL 5
REMARK VINA RESULT:     -10.1      3.639      6.853
REMARK  10 active torsions:
REMARK  status: ('A' for Active; 'I' for Inactive)
REMARK    1  A    between atoms: C_6  and  N_7 
REMARK    2  A    between atoms: C_8  and  S_9 
REMARK    3  A    between atoms: S_9  and  C_10 
REMARK    4  A    between atoms: C_10  and  C_11 
REMARK       I    between atoms: C_11  and  N_12 
REMARK    5  A    between atoms: N_12  and  C_13 
REMARK    6  A    between atoms: C_13  and  C_14 
REMARK    7  A    between atoms: C_14  and  C_15 
REMARK    8  A    between atoms: C_18  and  S_19 
REMARK    9  A    between atoms: S_19  and  N_20 
REMARK   10  A    between atoms: C_29  and  N_30 
ROOT
HETATM    1  N   UNL     1       7.725  26.054  55.733  1.00  0.00    -0.276 N 
HETATM    2  C   UNL     1       7.506  26.109  54.388  1.00  0.00     0.177 A 
HETATM    3  N   UNL     1       7.561  25.057  53.552  1.00  0.00    -0.204 NA
HETATM    4  C   UNL     1       7.778  23.912  54.199  1.00  0.00     0.162 A 
HETATM    5  C   UNL     1       7.957  23.753  55.558  1.00  0.00     0.081 A 
HETATM    6  C   UNL     1       7.961  24.884  56.391  1.00  0.00     0.124 A 
HETATM    7  N   UNL     1       7.845  22.670  53.638  1.00  0.00    -0.260 N 
HETATM    8  H   UNL     1       7.752  22.421  52.657  1.00  0.00     0.191 HD
HETATM    9  N   UNL     1       8.040  21.698  54.542  1.00  0.00    -0.177 NA
HETATM   10  C   UNL     1       8.092  22.340  55.715  1.00  0.00     0.068 A 
HETATM   11  C   UNL     1       8.257  21.553  56.966  1.00  0.00     0.073 C 
ENDROOT
BRANCH   2  12
HETATM   12  S   UNL     1       6.903  27.611  53.616  1.00  0.00    -0.082 SA
BRANCH  12  13
HETATM   13  C   UNL     1       5.129  27.230  53.467  1.00  0.00     0.185 C 
BRANCH  13  14
HETATM   14  C   UNL     1       4.599  27.804  52.168  1.00  0.00     0.227 C 
HETATM   15  N   UNL     1       3.952  29.007  52.176  1.00  0.00    -0.360 N 
HETATM   16  H   UNL     1       3.561  29.235  51.266  1.00  0.00     0.162 HD
HETATM   17  O   UNL     1       4.746  27.201  51.106  1.00  0.00    -0.273 OA
BRANCH  15  18
HETATM   18  C   UNL     1       3.455  29.745  53.329  1.00  0.00     0.127 C 
BRANCH  18  19
HETATM   19  C   UNL     1       4.468  30.748  53.894  1.00  0.00     0.058 C 
BRANCH  19  20
HETATM   20  C   UNL     1       4.275  31.007  55.371  1.00  0.00    -0.057 A 
HETATM   21  C   UNL     1       3.499  30.142  56.157  1.00  0.00     0.009 A 
HETATM   22  C   UNL     1       3.271  30.422  57.505  1.00  0.00     0.025 A 
HETATM   23  C   UNL     1       3.838  31.563  58.077  1.00  0.00     0.074 A 
HETATM   24  C   UNL     1       4.624  32.427  57.313  1.00  0.00     0.025 A 
HETATM   25  C   UNL     1       4.846  32.144  55.964  1.00  0.00     0.009 A 
BRANCH  23  26
HETATM   26  S   UNL     1       3.483  31.964  59.764  1.00  0.00     0.239 S 
HETATM   27  O   UNL     1       4.725  32.165  60.473  1.00  0.00    -0.206 OA
HETATM   28  O   UNL     1       2.406  32.928  59.797  1.00  0.00    -0.206 OA
BRANCH  26  29
HETATM   29  N   UNL     1       2.841  30.526  60.339  1.00  0.00    -0.225 NA
HETATM   30  H   UNL     1       2.936  29.797  59.630  1.00  0.00     0.136 HD
HETATM   31  H   UNL     1       3.275  30.284  61.231  1.00  0.00     0.136 HD
ENDBRANCH  26  29
ENDBRANCH  23  26
ENDBRANCH  19  20
ENDBRANCH  18  19
ENDBRANCH  15  18
ENDBRANCH  13  14
ENDBRANCH  12  13
ENDBRANCH   2  12
BRANCH   1  32
HETATM   32  C   UNL     1       7.714  27.277  56.489  1.00  0.00     0.045 A 
HETATM   33  C   UNL     1       8.910  27.959  56.691  1.00  0.00     0.054 A 
HETATM   34  C   UNL     1       8.886  29.127  57.453  1.00  0.00     0.042 A 
HETATM   35  C   UNL     1       7.681  29.607  58.001  1.00  0.00    -0.040 A 
HETATM   36 CL   UNL     1      10.381  29.951  57.697  1.00  0.00    -0.084 Cl
HETATM   37  C   UNL     1       7.636  30.861  58.834  1.00  0.00     0.050 C 
HETATM   38  C   UNL     1       6.489  28.901  57.760  1.00  0.00     0.011 A 
HETATM   39  C   UNL     1       6.497  27.733  57.000  1.00  0.00     0.031 A 
ENDBRANCH   1  32
BRANCH   6  40
HETATM   40  N   UNL     1       8.186  24.815  57.758  1.00  0.00    -0.384 N 
HETATM   41  H   UNL     1       8.883  24.166  58.110  1.00  0.00     0.157 HD
HETATM   42  H   UNL     1       7.943  25.560  58.398  1.00  0.00     0.157 HD
ENDBRANCH   6  40
TORSDOF 10
ENDMDL
MODEL 6
REMARK VINA RESULT:     -10.0      2.849      5.382
REMARK  10 active torsions:
REMARK  status: ('A' for Active; 'I' for Inactive)
REMARK    1  A    between atoms: C_6  and  N_7 
REMARK    2  A    between atoms: C_8  and  S_9 
REMARK    3  A    between atoms: S_9  and  C_10 
REMARK    4  A    between atoms: C_10  and  C_11 
REMARK       I    between atoms: C_11  and  N_12 
REMARK    5  A    between atoms: N_12  and  C_13 
REMARK    6  A    between atoms: C_13  and  C_14 
REMARK    7  A    between atoms: C_14  and  C_15 
REMARK    8  A    between atoms: C_18  and  S_19 
REMARK    9  A    between atoms: S_19  and  N_20 
REMARK   10  A    between atoms: C_29  and  N_30 
ROOT
HETATM    1  N   UNL     1       6.071  28.204  56.510  1.00  0.00    -0.276 N 
HETATM    2  C   UNL     1       7.060  28.543  57.386  1.00  0.00     0.177 A 
HETATM    3  N   UNL     1       8.011  27.708  57.840  1.00  0.00    -0.204 NA
HETATM    4  C   UNL     1       7.935  26.504  57.272  1.00  0.00     0.162 A 
HETATM    5  C   UNL     1       7.007  26.088  56.340  1.00  0.00     0.081 A 
HETATM    6  C   UNL     1       5.987  26.968  55.941  1.00  0.00     0.124 A 
HETATM    7  N   UNL     1       8.781  25.455  57.491  1.00  0.00    -0.260 N 
HETATM    8  H   UNL     1       9.581  25.417  58.116  1.00  0.00     0.191 HD
HETATM    9  N   UNL     1       8.479  24.378  56.750  1.00  0.00    -0.177 NA
HETATM   10  C   UNL     1       7.414  24.754  56.032  1.00  0.00     0.068 A 
HETATM   11  C   UNL     1       6.829  23.804  55.050  1.00  0.00     0.073 C 
ENDROOT
BRANCH   2  12
HETATM   12  S   UNL     1       7.310  30.251  57.872  1.00  0.00    -0.082 SA
BRANCH  12  13
HETATM   13  C   UNL     1       8.932  30.138  58.694  1.00  0.00     0.185 C 
BRANCH  13  14
HETATM   14  C   UNL     1       9.438  31.534  58.998  1.00  0.00     0.227 C 
HETATM   15  N   UNL     1       9.050  32.156  60.151  1.00  0.00    -0.360 N 
HETATM   16  H   UNL     1       9.375  33.119  60.192  1.00  0.00     0.162 HD
HETATM   17  O   UNL     1      10.195  32.113  58.221  1.00  0.00    -0.273 OA
BRANCH  15  18
HETATM   18  C   UNL     1       7.982  31.764  61.060  1.00  0.00     0.127 C 
BRANCH  18  19
HETATM   19  C   UNL     1       8.348  31.936  62.539  1.00  0.00     0.058 C 
BRANCH  19  20
HETATM   20  C   UNL     1       7.494  32.969  63.238  1.00  0.00    -0.057 A 
HETATM   21  C   UNL     1       7.524  33.101  64.635  1.00  0.00     0.009 A 
HETATM   22  C   UNL     1       6.686  34.012  65.280  1.00  0.00     0.025 A 
HETATM   23  C   UNL     1       5.825  34.810  64.522  1.00  0.00     0.074 A 
HETATM   24  C   UNL     1       5.793  34.701  63.131  1.00  0.00     0.025 A 
HETATM   25  C   UNL     1       6.630  33.785  62.492  1.00  0.00     0.009 A 
BRANCH  23  26
HETATM   26  S   UNL     1       4.703  35.906  65.341  1.00  0.00     0.239 S 
HETATM   27  O   UNL     1       4.887  37.243  64.826  1.00  0.00    -0.206 OA
HETATM   28  O   UNL     1       3.404  35.276  65.413  1.00  0.00    -0.206 OA
BRANCH  26  29
HETATM   29  N   UNL     1       5.304  35.919  66.906  1.00  0.00    -0.225 NA
HETATM   30  H   UNL     1       4.649  35.450  67.532  1.00  0.00     0.136 HD
HETATM   31  H   UNL     1       6.241  35.514  66.922  1.00  0.00     0.136 HD
ENDBRANCH  26  29
ENDBRANCH  23  26
ENDBRANCH  19  20
ENDBRANCH  18  19
ENDBRANCH  15  18
ENDBRANCH  13  14
ENDBRANCH  12  13
ENDBRANCH   2  12
BRANCH   1  32
HETATM   32  C   UNL     1       5.072  29.183  56.177  1.00  0.00     0.045 A 
HETATM   33  C   UNL     1       5.084  29.759  54.910  1.00  0.00     0.054 A 
HETATM   34  C   UNL     1       4.127  30.729  54.614  1.00  0.00     0.042 A 
HETATM   35  C   UNL     1       3.169  31.114  55.572  1.00  0.00    -0.040 A 
HETATM   36 CL   UNL     1       4.165  31.434  53.042  1.00  0.00    -0.084 Cl
HETATM   37  C   UNL     1       2.133  32.166  55.274  1.00  0.00     0.050 C 
HETATM   38  C   UNL     1       3.177  30.497  56.836  1.00  0.00     0.011 A 
HETATM   39  C   UNL     1       4.126  29.526  57.146  1.00  0.00     0.031 A 
ENDBRANCH   1  32
BRANCH   6  40
HETATM   40  N   UNL     1       4.985  26.611  55.050  1.00  0.00    -0.384 N 
HETATM   41  H   UNL     1       4.821  25.627  54.863  1.00  0.00     0.157 HD
HETATM   42  H   UNL     1       4.214  27.220  54.809  1.00  0.00     0.157 HD
ENDBRANCH   6  40
TORSDOF 10
ENDMDL
MODEL 7
REMARK VINA RESULT:      -9.8      6.621     11.238
REMARK  10 active torsions:
REMARK  status: ('A' for Active; 'I' for Inactive)
REMARK    1  A    between atoms: C_6  and  N_7 
REMARK    2  A    between atoms: C_8  and  S_9 
REMARK    3  A    between atoms: S_9  and  C_10 
REMARK    4  A    between atoms: C_10  and  C_11 
REMARK       I    between atoms: C_11  and  N_12 
REMARK    5  A    between atoms: N_12  and  C_13 
REMARK    6  A    between atoms: C_13  and  C_14 
REMARK    7  A    between atoms: C_14  and  C_15 
REMARK    8  A    between atoms: C_18  and  S_19 
REMARK    9  A    between atoms: S_19  and  N_20 
REMARK   10  A    between atoms: C_29  and  N_30 
ROOT
HETATM    1  N   UNL     1       4.054  35.471  61.957  1.00  0.00    -0.276 N 
HETATM    2  C   UNL     1       3.800  34.845  63.141  1.00  0.00     0.177 A 
HETATM    3  N   UNL     1       3.430  33.559  63.272  1.00  0.00    -0.204 NA
HETATM    4  C   UNL     1       3.412  32.920  62.102  1.00  0.00     0.162 A 
HETATM    5  C   UNL     1       3.706  33.454  60.865  1.00  0.00     0.081 A 
HETATM    6  C   UNL     1       4.022  34.819  60.760  1.00  0.00     0.124 A 
HETATM    7  N   UNL     1       3.120  31.601  61.909  1.00  0.00    -0.260 N 
HETATM    8  H   UNL     1       2.862  30.908  62.608  1.00  0.00     0.191 HD
HETATM    9  N   UNL     1       3.216  31.227  60.624  1.00  0.00    -0.177 NA
HETATM   10  C   UNL     1       3.590  32.339  59.981  1.00  0.00     0.068 A 
HETATM   11  C   UNL     1       3.839  32.280  58.517  1.00  0.00     0.073 C 
ENDROOT
BRANCH   2  12
HETATM   12  S   UNL     1       4.147  35.656  64.702  1.00  0.00    -0.082 SA
BRANCH  12  13
HETATM   13  C   UNL     1       4.186  34.226  65.829  1.00  0.00     0.185 C 
BRANCH  13  14
HETATM   14  C   UNL     1       5.544  34.152  66.498  1.00  0.00     0.227 C 
HETATM   15  N   UNL     1       6.627  33.726  65.783  1.00  0.00    -0.360 N 
HETATM   16  H   UNL     1       7.454  33.627  66.366  1.00  0.00     0.162 HD
HETATM   17  O   UNL     1       5.684  34.472  67.678  1.00  0.00    -0.273 OA
BRANCH  15  18
HETATM   18  C   UNL     1       6.635  33.070  64.482  1.00  0.00     0.127 C 
BRANCH  18  19
HETATM   19  C   UNL     1       8.038  32.935  63.877  1.00  0.00     0.058 C 
BRANCH  19  20
HETATM   20  C   UNL     1       8.030  32.252  62.529  1.00  0.00    -0.057 A 
HETATM   21  C   UNL     1       8.880  31.166  62.269  1.00  0.00     0.009 A 
HETATM   22  C   UNL     1       8.915  30.580  61.002  1.00  0.00     0.025 A 
HETATM   23  C   UNL     1       8.082  31.070  59.993  1.00  0.00     0.074 A 
HETATM   24  C   UNL     1       7.221  32.142  60.239  1.00  0.00     0.025 A 
HETATM   25  C   UNL     1       7.193  32.726  61.507  1.00  0.00     0.009 A 
BRANCH  23  26
HETATM   26  S   UNL     1       8.184  30.385  58.365  1.00  0.00     0.239 S 
HETATM   27  O   UNL     1       7.012  30.772  57.616  1.00  0.00    -0.206 OA
HETATM   28  O   UNL     1       9.525  30.577  57.861  1.00  0.00    -0.206 OA
BRANCH  26  29
HETATM   29  N   UNL     1       8.029  28.743  58.666  1.00  0.00    -0.225 NA
HETATM   30  H   UNL     1       8.365  28.211  57.862  1.00  0.00     0.136 HD
HETATM   31  H   UNL     1       8.502  28.502  59.538  1.00  0.00     0.136 HD
ENDBRANCH  26  29
ENDBRANCH  23  26
ENDBRANCH  19  20
ENDBRANCH  18  19
ENDBRANCH  15  18
ENDBRANCH  13  14
ENDBRANCH  12  13
ENDBRANCH   2  12
BRANCH   1  32
HETATM   32  C   UNL     1       4.361  36.876  61.965  1.00  0.00     0.045 A 
HETATM   33  C   UNL     1       3.337  37.794  61.754  1.00  0.00     0.054 A 
HETATM   34  C   UNL     1       3.658  39.151  61.735  1.00  0.00     0.042 A 
HETATM   35  C   UNL     1       4.984  39.583  61.928  1.00  0.00    -0.040 A 
HETATM   36 CL   UNL     1       2.375  40.271  61.463  1.00  0.00    -0.084 Cl
HETATM   37  C   UNL     1       5.352  41.043  61.902  1.00  0.00     0.050 C 
HETATM   38  C   UNL     1       5.990  38.626  62.157  1.00  0.00     0.011 A 
HETATM   39  C   UNL     1       5.685  37.267  62.180  1.00  0.00     0.031 A 
ENDBRANCH   1  32
BRANCH   6  40
HETATM   40  N   UNL     1       4.277  35.445  59.548  1.00  0.00    -0.384 N 
HETATM   41  H   UNL     1       3.818  35.102  58.711  1.00  0.00     0.157 HD
HETATM   42  H   UNL     1       4.635  36.389  59.477  1.00  0.00     0.157 HD
ENDBRANCH   6  40
TORSDOF 10
ENDMDL
MODEL 8
REMARK VINA RESULT:      -9.6      2.711      5.094
REMARK  10 active torsions:
REMARK  status: ('A' for Active; 'I' for Inactive)
REMARK    1  A    between atoms: C_6  and  N_7 
REMARK    2  A    between atoms: C_8  and  S_9 
REMARK    3  A    between atoms: S_9  and  C_10 
REMARK    4  A    between atoms: C_10  and  C_11 
REMARK       I    between atoms: C_11  and  N_12 
REMARK    5  A    between atoms: N_12  and  C_13 
REMARK    6  A    between atoms: C_13  and  C_14 
REMARK    7  A    between atoms: C_14  and  C_15 
REMARK    8  A    between atoms: C_18  and  S_19 
REMARK    9  A    between atoms: S_19  and  N_20 
REMARK   10  A    between atoms: C_29  and  N_30 
ROOT
HETATM    1  N   UNL     1       5.209  28.335  54.873  1.00  0.00    -0.276 N 
HETATM    2  C   UNL     1       6.363  28.283  55.600  1.00  0.00     0.177 A 
HETATM    3  N   UNL     1       7.194  27.227  55.656  1.00  0.00    -0.204 NA
HETATM    4  C   UNL     1       6.807  26.240  54.848  1.00  0.00     0.162 A 
HETATM    5  C   UNL     1       5.690  26.225  54.039  1.00  0.00     0.081 A 
HETATM    6  C   UNL     1       4.808  27.319  54.058  1.00  0.00     0.124 A 
HETATM    7  N   UNL     1       7.461  25.058  54.651  1.00  0.00    -0.260 N 
HETATM    8  H   UNL     1       8.322  24.740  55.085  1.00  0.00     0.191 HD
HETATM    9  N   UNL     1       6.853  24.269  53.751  1.00  0.00    -0.177 NA
HETATM   10  C   UNL     1       5.786  24.974  53.357  1.00  0.00     0.068 A 
HETATM   11  C   UNL     1       4.892  24.412  52.311  1.00  0.00     0.073 C 
ENDROOT
BRANCH   2  12
HETATM   12  S   UNL     1       7.002  29.747  56.413  1.00  0.00    -0.082 SA
BRANCH  12  13
HETATM   13  C   UNL     1       7.999  28.993  57.738  1.00  0.00     0.185 C 
BRANCH  13  14
HETATM   14  C   UNL     1       9.411  29.542  57.677  1.00  0.00     0.227 C 
HETATM   15  N   UNL     1       9.764  30.587  58.483  1.00  0.00    -0.360 N 
HETATM   16  H   UNL     1      10.701  30.925  58.279  1.00  0.00     0.162 HD
HETATM   17  O   UNL     1      10.244  29.057  56.912  1.00  0.00    -0.273 OA
BRANCH  15  18
HETATM   18  C   UNL     1       8.885  31.456  59.254  1.00  0.00     0.127 C 
BRANCH  18  19
HETATM   19  C   UNL     1       9.215  31.480  60.751  1.00  0.00     0.058 C 
BRANCH  19  20
HETATM   20  C   UNL     1       8.136  32.144  61.577  1.00  0.00    -0.057 A 
HETATM   21  C   UNL     1       8.347  32.436  62.933  1.00  0.00     0.009 A 
HETATM   22  C   UNL     1       7.326  32.990  63.707  1.00  0.00     0.025 A 
HETATM   23  C   UNL     1       6.091  33.271  63.117  1.00  0.00     0.074 A 
HETATM   24  C   UNL     1       5.869  32.998  61.766  1.00  0.00     0.025 A 
HETATM   25  C   UNL     1       6.893  32.441  60.998  1.00  0.00     0.009 A 
BRANCH  23  26
HETATM   26  S   UNL     1       4.768  33.895  64.113  1.00  0.00     0.239 S 
HETATM   27  O   UNL     1       4.695  33.130  65.335  1.00  0.00    -0.206 OA
HETATM   28  O   UNL     1       4.819  35.339  64.105  1.00  0.00    -0.206 OA
BRANCH  26  29
HETATM   29  N   UNL     1       3.420  33.469  63.212  1.00  0.00    -0.225 NA
HETATM   30  H   UNL     1       3.558  32.546  62.797  1.00  0.00     0.136 HD
HETATM   31  H   UNL     1       2.581  33.532  63.791  1.00  0.00     0.136 HD
ENDBRANCH  26  29
ENDBRANCH  23  26
ENDBRANCH  19  20
ENDBRANCH  18  19
ENDBRANCH  15  18
ENDBRANCH  13  14
ENDBRANCH  12  13
ENDBRANCH   2  12
BRANCH   1  32
HETATM   32  C   UNL     1       4.377  29.503  54.974  1.00  0.00     0.045 A 
HETATM   33  C   UNL     1       4.329  30.395  53.907  1.00  0.00     0.054 A 
HETATM   34  C   UNL     1       3.541  31.539  54.035  1.00  0.00     0.042 A 
HETATM   35  C   UNL     1       2.807  31.783  55.212  1.00  0.00    -0.040 A 
HETATM   36 CL   UNL     1       3.503  32.634  52.704  1.00  0.00    -0.084 Cl
HETATM   37  C   UNL     1       1.957  33.016  55.371  1.00  0.00     0.050 C 
HETATM   38  C   UNL     1       2.866  30.849  56.262  1.00  0.00     0.011 A 
HETATM   39  C   UNL     1       3.648  29.702  56.149  1.00  0.00     0.031 A 
ENDBRANCH   1  32
BRANCH   6  40
HETATM   40  N   UNL     1       3.637  27.359  53.316  1.00  0.00    -0.384 N 
HETATM   41  H   UNL     1       3.688  27.571  52.325  1.00  0.00     0.157 HD
HETATM   42  H   UNL     1       2.782  26.900  53.605  1.00  0.00     0.157 HD
ENDBRANCH   6  40
TORSDOF 10
ENDMDL
MODEL 9
REMARK VINA RESULT:      -9.4      1.767      2.225
REMARK  10 active torsions:
REMARK  status: ('A' for Active; 'I' for Inactive)
REMARK    1  A    between atoms: C_6  and  N_7 
REMARK    2  A    between atoms: C_8  and  S_9 
REMARK    3  A    between atoms: S_9  and  C_10 
REMARK    4  A    between atoms: C_10  and  C_11 
REMARK       I    between atoms: C_11  and  N_12 
REMARK    5  A    between atoms: N_12  and  C_13 
REMARK    6  A    between atoms: C_13  and  C_14 
REMARK    7  A    between atoms: C_14  and  C_15 
REMARK    8  A    between atoms: C_18  and  S_19 
REMARK    9  A    between atoms: S_19  and  N_20 
REMARK   10  A    between atoms: C_29  and  N_30 
ROOT
HETATM    1  N   UNL     1       6.466  25.691  53.751  1.00  0.00    -0.276 N 
HETATM    2  C   UNL     1       5.889  26.467  54.713  1.00  0.00     0.177 A 
HETATM    3  N   UNL     1       5.223  27.613  54.485  1.00  0.00    -0.204 NA
HETATM    4  C   UNL     1       5.113  27.880  53.184  1.00  0.00     0.162 A 
HETATM    5  C   UNL     1       5.616  27.129  52.142  1.00  0.00     0.081 A 
HETATM    6  C   UNL     1       6.365  25.973  52.422  1.00  0.00     0.124 A 
HETATM    7  N   UNL     1       4.461  28.944  52.632  1.00  0.00    -0.260 N 
HETATM    8  H   UNL     1       3.972  29.695  53.112  1.00  0.00     0.191 HD
HETATM    9  N   UNL     1       4.487  28.934  51.290  1.00  0.00    -0.177 NA
HETATM   10  C   UNL     1       5.170  27.827  50.978  1.00  0.00     0.068 A 
HETATM   11  C   UNL     1       5.357  27.469  49.548  1.00  0.00     0.073 C 
ENDROOT
BRANCH   2  12
HETATM   12  S   UNL     1       5.787  25.901  56.412  1.00  0.00    -0.082 SA
BRANCH  12  13
HETATM   13  C   UNL     1       5.974  27.476  57.308  1.00  0.00     0.185 C 
BRANCH  13  14
HETATM   14  C   UNL     1       7.411  27.625  57.766  1.00  0.00     0.227 C 
HETATM   15  N   UNL     1       7.841  28.824  58.259  1.00  0.00    -0.360 N 
HETATM   16  H   UNL     1       8.842  28.825  58.439  1.00  0.00     0.162 HD
HETATM   17  O   UNL     1       8.195  26.679  57.701  1.00  0.00    -0.273 OA
BRANCH  15  18
HETATM   18  C   UNL     1       7.167  30.113  58.185  1.00  0.00     0.127 C 
BRANCH  18  19
HETATM   19  C   UNL     1       8.040  31.285  58.649  1.00  0.00     0.058 C 
BRANCH  19  20
HETATM   20  C   UNL     1       7.554  31.901  59.941  1.00  0.00    -0.057 A 
HETATM   21  C   UNL     1       8.419  32.050  61.036  1.00  0.00     0.009 A 
HETATM   22  C   UNL     1       7.948  32.561  62.247  1.00  0.00     0.025 A 
HETATM   23  C   UNL     1       6.609  32.943  62.359  1.00  0.00     0.074 A 
HETATM   24  C   UNL     1       5.739  32.814  61.275  1.00  0.00     0.025 A 
HETATM   25  C   UNL     1       6.214  32.299  60.068  1.00  0.00     0.009 A 
BRANCH  23  26
HETATM   26  S   UNL     1       5.990  33.512  63.916  1.00  0.00     0.239 S 
HETATM   27  O   UNL     1       5.829  34.946  63.865  1.00  0.00    -0.206 OA
HETATM   28  O   UNL     1       4.931  32.628  64.348  1.00  0.00    -0.206 OA
BRANCH  26  29
HETATM   29  N   UNL     1       7.287  33.221  64.937  1.00  0.00    -0.225 NA
HETATM   30  H   UNL     1       7.145  33.707  65.824  1.00  0.00     0.136 HD
HETATM   31  H   UNL     1       7.428  32.216  65.043  1.00  0.00     0.136 HD
ENDBRANCH  26  29
ENDBRANCH  23  26
ENDBRANCH  19  20
ENDBRANCH  18  19
ENDBRANCH  15  18
ENDBRANCH  13  14
ENDBRANCH  12  13
ENDBRANCH   2  12
BRANCH   1  32
HETATM   32  C   UNL     1       7.217  24.532  54.152  1.00  0.00     0.045 A 
HETATM   33  C   UNL     1       7.023  23.331  53.476  1.00  0.00     0.054 A 
HETATM   34  C   UNL     1       7.737  22.211  53.898  1.00  0.00     0.042 A 
HETATM   35  C   UNL     1       8.637  22.292  54.978  1.00  0.00    -0.040 A 
HETATM   36 CL   UNL     1       7.475  20.732  53.051  1.00  0.00    -0.084 Cl
HETATM   37  C   UNL     1       9.411  21.090  55.454  1.00  0.00     0.050 C 
HETATM   38  C   UNL     1       8.821  23.527  55.625  1.00  0.00     0.011 A 
HETATM   39  C   UNL     1       8.115  24.656  55.215  1.00  0.00     0.031 A 
ENDBRANCH   1  32
BRANCH   6  40
HETATM   40  N   UNL     1       6.948  25.193  51.434  1.00  0.00    -0.384 N 
HETATM   41  H   UNL     1       6.365  24.822  50.691  1.00  0.00     0.157 HD
HETATM   42  H   UNL     1       7.938  25.216  51.222  1.00  0.00     0.157 HD
ENDBRANCH   6  40
TORSDOF 10
ENDMDL
MODEL 10
REMARK VINA RESULT:      -9.4      5.471     10.999
REMARK  10 active torsions:
REMARK  status: ('A' for Active; 'I' for Inactive)
REMARK    1  A    between atoms: C_6  and  N_7 
REMARK    2  A    between atoms: C_8  and  S_9 
REMARK    3  A    between atoms: S_9  and  C_10 
REMARK    4  A    between atoms: C_10  and  C_11 
REMARK       I    between atoms: C_11  and  N_12 
REMARK    5  A    between atoms: N_12  and  C_13 
REMARK    6  A    between atoms: C_13  and  C_14 
REMARK    7  A    between atoms: C_14  and  C_15 
REMARK    8  A    between atoms: C_18  and  S_19 
REMARK    9  A    between atoms: S_19  and  N_20 
REMARK   10  A    between atoms: C_29  and  N_30 
ROOT
HETATM    1  N   UNL     1       6.633  26.241  55.280  1.00  0.00    -0.276 N 
HETATM    2  C   UNL     1       5.478  26.734  54.747  1.00  0.00     0.177 A 
HETATM    3  N   UNL     1       4.840  27.839  55.173  1.00  0.00    -0.204 NA
HETATM    4  C   UNL     1       5.508  28.463  56.143  1.00  0.00     0.162 A 
HETATM    5  C   UNL     1       6.704  28.070  56.706  1.00  0.00     0.081 A 
HETATM    6  C   UNL     1       7.307  26.873  56.282  1.00  0.00     0.124 A 
HETATM    7  N   UNL     1       5.143  29.629  56.752  1.00  0.00    -0.260 N 
HETATM    8  H   UNL     1       4.315  30.193  56.577  1.00  0.00     0.191 HD
HETATM    9  N   UNL     1       6.030  30.038  57.671  1.00  0.00    -0.177 NA
HETATM   10  C   UNL     1       6.994  29.110  57.641  1.00  0.00     0.068 A 
HETATM   11  C   UNL     1       8.183  29.271  58.517  1.00  0.00     0.073 C 
ENDROOT
BRANCH   2  12
HETATM   12  S   UNL     1       4.793  26.042  53.242  1.00  0.00    -0.082 SA
BRANCH  12  13
HETATM   13  C   UNL     1       5.312  27.293  52.024  1.00  0.00     0.185 C 
BRANCH  13  14
HETATM   14  C   UNL     1       4.117  28.140  51.636  1.00  0.00     0.227 C 
HETATM   15  N   UNL     1       3.956  28.526  50.335  1.00  0.00    -0.360 N 
HETATM   16  H   UNL     1       3.177  29.169  50.222  1.00  0.00     0.162 HD
HETATM   17  O   UNL     1       3.288  28.485  52.477  1.00  0.00    -0.273 OA
BRANCH  15  18
HETATM   18  C   UNL     1       4.930  28.448  49.255  1.00  0.00     0.127 C 
BRANCH  18  19
HETATM   19  C   UNL     1       4.472  27.570  48.084  1.00  0.00     0.058 C 
BRANCH  19  20
HETATM   20  C   UNL     1       3.111  27.962  47.556  1.00  0.00    -0.057 A 
HETATM   21  C   UNL     1       2.066  27.027  47.498  1.00  0.00     0.009 A 
HETATM   22  C   UNL     1       0.831  27.377  46.950  1.00  0.00     0.025 A 
HETATM   23  C   UNL     1       0.632  28.676  46.473  1.00  0.00     0.074 A 
HETATM   24  C   UNL     1       1.657  29.621  46.535  1.00  0.00     0.025 A 
HETATM   25  C   UNL     1       2.892  29.265  47.081  1.00  0.00     0.009 A 
BRANCH  23  26
HETATM   26  S   UNL     1      -0.903  29.098  45.702  1.00  0.00     0.239 S 
HETATM   27  O   UNL     1      -1.902  28.124  46.072  1.00  0.00    -0.206 OA
HETATM   28  O   UNL     1      -1.119  30.521  45.841  1.00  0.00    -0.206 OA
BRANCH  26  29
HETATM   29  N   UNL     1      -0.567  28.833  44.081  1.00  0.00    -0.225 NA
HETATM   30  H   UNL     1      -0.585  29.719  43.574  1.00  0.00     0.136 HD
HETATM   31  H   UNL     1       0.317  28.331  43.987  1.00  0.00     0.136 HD
ENDBRANCH  26  29
ENDBRANCH  23  26
ENDBRANCH  19  20
ENDBRANCH  18  19
ENDBRANCH  15  18
ENDBRANCH  13  14
ENDBRANCH  12  13
ENDBRANCH   2  12
BRANCH   1  32
HETATM   32  C   UNL     1       7.158  25.002  54.775  1.00  0.00     0.045 A 
HETATM   33  C   UNL     1       7.041  23.851  55.548  1.00  0.00     0.054 A 
HETATM   34  C   UNL     1       7.583  22.664  55.055  1.00  0.00     0.042 A 
HETATM   35  C   UNL     1       8.231  22.630  53.805  1.00  0.00    -0.040 A 
HETATM   36 CL   UNL     1       7.434  21.252  56.033  1.00  0.00    -0.084 Cl
HETATM   37  C   UNL     1       8.830  21.360  53.260  1.00  0.00     0.050 C 
HETATM   38  C   UNL     1       8.314  23.810  53.044  1.00  0.00     0.011 A 
HETATM   39  C   UNL     1       7.776  25.003  53.522  1.00  0.00     0.031 A 
ENDBRANCH   1  32
BRANCH   6  40
HETATM   40  N   UNL     1       8.481  26.382  56.834  1.00  0.00    -0.384 N 
HETATM   41  H   UNL     1       8.926  26.898  57.586  1.00  0.00     0.157 HD
HETATM   42  H   UNL     1       8.762  25.411  56.766  1.00  0.00     0.157 HD
ENDBRANCH   6  40
TORSDOF 10
ENDMDL
