MODEL 1
REMARK VINA RESULT:      -8.9      0.000      0.000
REMARK  5 active torsions:
REMARK  status: ('A' for Active; 'I' for Inactive)
REMARK    1  A    between atoms: C_2  and  C_3 
REMARK    2  A    between atoms: C_3  and  N_4 
REMARK    3  A    between atoms: C_3  and  C_18 
REMARK    4  A    between atoms: N_4  and  C_7 
REMARK    5  A    between atoms: C_7  and  C_8 
ROOT
HETATM    1  N   UNL     1       7.373  29.159  58.547  1.00  0.00    -0.056 N 
HETATM    2  H   UNL     1       8.124  28.466  58.435  1.00  0.00     0.278 HD
HETATM    3  H   UNL     1       6.951  28.993  59.467  1.00  0.00     0.278 HD
ENDROOT
BRANCH   1   4
HETATM    4  C   UNL     1       8.021  30.514  58.522  1.00  0.00     0.292 C 
BRANCH   4   5
HETATM    5  C   UNL     1       8.050  31.134  59.909  1.00  0.00    -0.020 A 
HETATM    6  C   UNL     1       8.820  30.593  60.959  1.00  0.00     0.011 A 
HETATM    7  C   UNL     1       8.813  31.182  62.227  1.00  0.00     0.024 A 
HETATM    8  C   UNL     1       8.040  32.314  62.465  1.00  0.00     0.034 A 
HETATM    9  C   UNL     1       7.273  32.866  61.442  1.00  0.00     0.024 A 
HETATM   10 CL   UNL     1       8.035  33.035  64.024  1.00  0.00    -0.084 Cl
HETATM   11  C   UNL     1       7.277  32.281  60.172  1.00  0.00     0.011 A 
ENDBRANCH   4   5
BRANCH   4  12
HETATM   12  C   UNL     1       9.450  30.470  58.062  1.00  0.00     0.190 A 
HETATM   13  N   UNL     1      10.278  31.518  58.136  1.00  0.00    -0.109 NA
HETATM   14  O   UNL     1      11.452  31.034  57.549  1.00  0.00    -0.205 OA
HETATM   15  C   UNL     1      11.187  29.764  57.147  1.00  0.00     0.288 A 
HETATM   16  N   UNL     1       9.959  29.371  57.400  1.00  0.00    -0.215 NA
ENDBRANCH   4  12
ENDBRANCH   1   4
BRANCH   1  17
HETATM   17  C   UNL     1       6.371  28.928  57.476  1.00  0.00     0.272 C 
BRANCH  17  18
HETATM   18  C   UNL     1       6.498  27.538  56.925  1.00  0.00    -0.030 A 
HETATM   19  C   UNL     1       7.538  26.700  57.357  1.00  0.00     0.048 A 
HETATM   20  C   UNL     1       7.636  25.393  56.879  1.00  0.00     0.102 A 
HETATM   21  C   UNL     1       6.715  24.919  55.943  1.00  0.00     0.102 A 
HETATM   22  O   UNL     1       8.668  24.639  57.369  1.00  0.00    -0.346 OA
HETATM   23  O   UNL     1       6.775  23.662  55.403  1.00  0.00    -0.346 OA
HETATM   24  C   UNL     1       5.669  25.734  55.522  1.00  0.00     0.040 A 
HETATM   25  C   UNL     1       8.060  23.063  55.614  1.00  0.00     0.202 C 
HETATM   26  C   UNL     1       8.503  23.247  57.056  1.00  0.00     0.202 C 
HETATM   27  C   UNL     1       5.556  27.039  56.012  1.00  0.00     0.012 A 
ENDBRANCH  17  18
ENDBRANCH   1  17
TORSDOF 5
ENDMDL
MODEL 2
REMARK VINA RESULT:      -8.8      4.928      8.647
REMARK  5 active torsions:
REMARK  status: ('A' for Active; 'I' for Inactive)
REMARK    1  A    between atoms: C_2  and  C_3 
REMARK    2  A    between atoms: C_3  and  N_4 
REMARK    3  A    between atoms: C_3  and  C_18 
REMARK    4  A    between atoms: N_4  and  C_7 
REMARK    5  A    between atoms: C_7  and  C_8 
ROOT
HETATM    1  N   UNL     1       8.599  23.562  55.784  1.00  0.00    -0.056 N 
HETATM    2  H   UNL     1       9.370  22.883  55.847  1.00  0.00     0.278 HD
HETATM    3  H   UNL     1       8.973  24.390  55.308  1.00  0.00     0.278 HD
ENDROOT
BRANCH   1   4
HETATM    4  C   UNL     1       7.529  22.929  54.941  1.00  0.00     0.292 C 
BRANCH   4   5
HETATM    5  C   UNL     1       7.085  23.863  53.827  1.00  0.00    -0.020 A 
HETATM    6  C   UNL     1       7.990  24.392  52.884  1.00  0.00     0.011 A 
HETATM    7  C   UNL     1       7.548  25.260  51.879  1.00  0.00     0.024 A 
HETATM    8  C   UNL     1       6.204  25.610  51.802  1.00  0.00     0.034 A 
HETATM    9  C   UNL     1       5.293  25.097  52.722  1.00  0.00     0.024 A 
HETATM   10 CL   UNL     1       5.667  26.675  50.566  1.00  0.00    -0.084 Cl
HETATM   11  C   UNL     1       5.729  24.229  53.728  1.00  0.00     0.011 A 
ENDBRANCH   4   5
BRANCH   4  12
HETATM   12  C   UNL     1       7.985  21.670  54.263  1.00  0.00     0.190 A 
HETATM   13  N   UNL     1       8.778  20.765  54.849  1.00  0.00    -0.109 NA
HETATM   14  O   UNL     1       8.979  19.820  53.839  1.00  0.00    -0.205 OA
HETATM   15  C   UNL     1       8.321  20.281  52.742  1.00  0.00     0.288 A 
HETATM   16  N   UNL     1       7.721  21.435  52.929  1.00  0.00    -0.215 NA
ENDBRANCH   4  12
ENDBRANCH   1   4
BRANCH   1  17
HETATM   17  C   UNL     1       8.180  23.910  57.164  1.00  0.00     0.272 C 
BRANCH  17  18
HETATM   18  C   UNL     1       7.409  25.198  57.173  1.00  0.00    -0.030 A 
HETATM   19  C   UNL     1       8.089  26.427  57.168  1.00  0.00     0.048 A 
HETATM   20  C   UNL     1       7.377  27.626  57.135  1.00  0.00     0.102 A 
HETATM   21  C   UNL     1       5.982  27.612  57.135  1.00  0.00     0.102 A 
HETATM   22  O   UNL     1       8.119  28.777  57.110  1.00  0.00    -0.346 OA
HETATM   23  O   UNL     1       5.221  28.751  57.142  1.00  0.00    -0.346 OA
HETATM   24  C   UNL     1       5.298  26.401  57.120  1.00  0.00     0.040 A 
HETATM   25  C   UNL     1       5.996  29.895  57.524  1.00  0.00     0.202 C 
HETATM   26  C   UNL     1       7.317  29.918  56.772  1.00  0.00     0.202 C 
HETATM   27  C   UNL     1       6.006  25.196  57.136  1.00  0.00     0.012 A 
ENDBRANCH  17  18
ENDBRANCH   1  17
TORSDOF 5
ENDMDL
MODEL 3
REMARK VINA RESULT:      -8.8      1.323      2.042
REMARK  5 active torsions:
REMARK  status: ('A' for Active; 'I' for Inactive)
REMARK    1  A    between atoms: C_2  and  C_3 
REMARK    2  A    between atoms: C_3  and  N_4 
REMARK    3  A    between atoms: C_3  and  C_18 
REMARK    4  A    between atoms: N_4  and  C_7 
REMARK    5  A    between atoms: C_7  and  C_8 
ROOT
HETATM    1  N   UNL     1       7.465  28.954  58.520  1.00  0.00    -0.056 N 
HETATM    2  H   UNL     1       8.252  28.299  58.421  1.00  0.00     0.278 HD
HETATM    3  H   UNL     1       7.061  28.794  59.449  1.00  0.00     0.278 HD
ENDROOT
BRANCH   1   4
HETATM    4  C   UNL     1       8.038  30.340  58.445  1.00  0.00     0.292 C 
BRANCH   4   5
HETATM    5  C   UNL     1       8.024  31.013  59.808  1.00  0.00    -0.020 A 
HETATM    6  C   UNL     1       7.232  32.147  60.079  1.00  0.00     0.011 A 
HETATM    7  C   UNL     1       7.253  32.749  61.341  1.00  0.00     0.024 A 
HETATM    8  C   UNL     1       8.062  32.229  62.347  1.00  0.00     0.034 A 
HETATM    9  C   UNL     1       8.852  31.109  62.102  1.00  0.00     0.024 A 
HETATM   10 CL   UNL     1       8.085  32.971  63.896  1.00  0.00    -0.084 Cl
HETATM   11  C   UNL     1       8.834  30.503  60.841  1.00  0.00     0.011 A 
ENDBRANCH   4   5
BRANCH   4  12
HETATM   12  C   UNL     1       9.469  30.359  57.993  1.00  0.00     0.190 A 
HETATM   13  N   UNL     1      10.251  31.441  58.072  1.00  0.00    -0.109 NA
HETATM   14  O   UNL     1      11.447  31.009  57.492  1.00  0.00    -0.205 OA
HETATM   15  C   UNL     1      11.240  29.728  57.087  1.00  0.00     0.288 A 
HETATM   16  N   UNL     1      10.028  29.283  57.333  1.00  0.00    -0.215 NA
ENDBRANCH   4  12
ENDBRANCH   1   4
BRANCH   1  17
HETATM   17  C   UNL     1       6.468  28.634  57.467  1.00  0.00     0.272 C 
BRANCH  17  18
HETATM   18  C   UNL     1       6.882  27.412  56.701  1.00  0.00    -0.030 A 
HETATM   19  C   UNL     1       6.885  27.427  55.297  1.00  0.00     0.048 A 
HETATM   20  C   UNL     1       7.307  26.307  54.580  1.00  0.00     0.102 A 
HETATM   21  C   UNL     1       7.704  25.152  55.256  1.00  0.00     0.102 A 
HETATM   22  O   UNL     1       7.299  26.416  53.216  1.00  0.00    -0.346 OA
HETATM   23  O   UNL     1       8.093  24.006  54.616  1.00  0.00    -0.346 OA
HETATM   24  C   UNL     1       7.723  25.132  56.647  1.00  0.00     0.040 A 
HETATM   25  C   UNL     1       7.690  24.012  53.241  1.00  0.00     0.202 C 
HETATM   26  C   UNL     1       8.027  25.345  52.594  1.00  0.00     0.202 C 
HETATM   27  C   UNL     1       7.317  26.258  57.370  1.00  0.00     0.012 A 
ENDBRANCH  17  18
ENDBRANCH   1  17
TORSDOF 5
ENDMDL
MODEL 4
REMARK VINA RESULT:      -8.7      4.257      8.526
REMARK  5 active torsions:
REMARK  status: ('A' for Active; 'I' for Inactive)
REMARK    1  A    between atoms: C_2  and  C_3 
REMARK    2  A    between atoms: C_3  and  N_4 
REMARK    3  A    between atoms: C_3  and  C_18 
REMARK    4  A    between atoms: N_4  and  C_7 
REMARK    5  A    between atoms: C_7  and  C_8 
ROOT
HETATM    1  N   UNL     1       7.521  26.724  54.933  1.00  0.00    -0.056 N 
HETATM    2  H   UNL     1       6.561  26.666  55.299  1.00  0.00     0.278 HD
HETATM    3  H   UNL     1       8.149  26.490  55.709  1.00  0.00     0.278 HD
ENDROOT
BRANCH   1   4
HETATM    4  C   UNL     1       7.639  25.686  53.853  1.00  0.00     0.292 C 
BRANCH   4   5
HETATM    5  C   UNL     1       8.028  24.336  54.430  1.00  0.00    -0.020 A 
HETATM    6  C   UNL     1       8.272  23.212  53.616  1.00  0.00     0.011 A 
HETATM    7  C   UNL     1       8.616  21.980  54.182  1.00  0.00     0.024 A 
HETATM    8  C   UNL     1       8.719  21.853  55.564  1.00  0.00     0.034 A 
HETATM    9  C   UNL     1       8.483  22.951  56.387  1.00  0.00     0.024 A 
HETATM   10 CL   UNL     1       9.142  20.338  56.255  1.00  0.00    -0.084 Cl
HETATM   11  C   UNL     1       8.139  24.184  55.826  1.00  0.00     0.011 A 
ENDBRANCH   4   5
BRANCH   4  12
HETATM   12  C   UNL     1       6.351  25.462  53.114  1.00  0.00     0.190 A 
HETATM   13  N   UNL     1       5.256  24.946  53.685  1.00  0.00    -0.109 NA
HETATM   14  O   UNL     1       4.352  24.870  52.621  1.00  0.00    -0.205 OA
HETATM   15  C   UNL     1       5.016  25.306  51.518  1.00  0.00     0.288 A 
HETATM   16  N   UNL     1       6.263  25.649  51.749  1.00  0.00    -0.215 NA
ENDBRANCH   4  12
ENDBRANCH   1   4
BRANCH   1  17
HETATM   17  C   UNL     1       7.758  28.119  54.485  1.00  0.00     0.272 C 
BRANCH  17  18
HETATM   18  C   UNL     1       8.433  28.913  55.564  1.00  0.00    -0.030 A 
HETATM   19  C   UNL     1       7.749  29.211  56.754  1.00  0.00     0.048 A 
HETATM   20  C   UNL     1       8.386  29.914  57.777  1.00  0.00     0.102 A 
HETATM   21  C   UNL     1       9.702  30.350  57.612  1.00  0.00     0.102 A 
HETATM   22  O   UNL     1       7.652  30.143  58.910  1.00  0.00    -0.346 OA
HETATM   23  O   UNL     1      10.373  31.077  58.559  1.00  0.00    -0.346 OA
HETATM   24  C   UNL     1      10.396  30.044  56.446  1.00  0.00     0.040 A 
HETATM   25  C   UNL     1       9.474  31.638  59.523  1.00  0.00     0.202 C 
HETATM   26  C   UNL     1       8.479  30.591  59.995  1.00  0.00     0.202 C 
HETATM   27  C   UNL     1       9.768  29.325  55.425  1.00  0.00     0.012 A 
ENDBRANCH  17  18
ENDBRANCH   1  17
TORSDOF 5
ENDMDL
MODEL 5
REMARK VINA RESULT:      -8.6      4.340      8.376
REMARK  5 active torsions:
REMARK  status: ('A' for Active; 'I' for Inactive)
REMARK    1  A    between atoms: C_2  and  C_3 
REMARK    2  A    between atoms: C_3  and  N_4 
REMARK    3  A    between atoms: C_3  and  C_18 
REMARK    4  A    between atoms: N_4  and  C_7 
REMARK    5  A    between atoms: C_7  and  C_8 
ROOT
HETATM    1  N   UNL     1       7.017  26.283  56.387  1.00  0.00    -0.056 N 
HETATM    2  H   UNL     1       6.824  25.314  56.673  1.00  0.00     0.278 HD
HETATM    3  H   UNL     1       7.836  26.592  56.921  1.00  0.00     0.278 HD
ENDROOT
BRANCH   1   4
HETATM    4  C   UNL     1       7.348  26.248  54.922  1.00  0.00     0.292 C 
BRANCH   4   5
HETATM    5  C   UNL     1       7.524  24.819  54.434  1.00  0.00    -0.020 A 
HETATM    6  C   UNL     1       7.873  24.517  53.102  1.00  0.00     0.011 A 
HETATM    7  C   UNL     1       8.013  23.190  52.684  1.00  0.00     0.024 A 
HETATM    8  C   UNL     1       7.807  22.150  53.585  1.00  0.00     0.034 A 
HETATM    9  C   UNL     1       7.463  22.426  54.906  1.00  0.00     0.024 A 
HETATM   10 CL   UNL     1       7.982  20.521  53.067  1.00  0.00    -0.084 Cl
HETATM   11  C   UNL     1       7.322  23.751  55.329  1.00  0.00     0.011 A 
ENDBRANCH   4   5
BRANCH   4  12
HETATM   12  C   UNL     1       6.272  26.846  54.064  1.00  0.00     0.190 A 
HETATM   13  N   UNL     1       5.133  26.211  53.764  1.00  0.00    -0.109 NA
HETATM   14  O   UNL     1       4.484  27.111  52.913  1.00  0.00    -0.205 OA
HETATM   15  C   UNL     1       5.323  28.169  52.759  1.00  0.00     0.288 A 
HETATM   16  N   UNL     1       6.457  28.049  53.412  1.00  0.00    -0.215 NA
ENDBRANCH   4  12
ENDBRANCH   1   4
BRANCH   1  17
HETATM   17  C   UNL     1       5.835  27.110  56.738  1.00  0.00     0.272 C 
BRANCH  17  18
HETATM   18  C   UNL     1       6.265  28.430  57.310  1.00  0.00    -0.030 A 
HETATM   19  C   UNL     1       7.591  28.619  57.730  1.00  0.00     0.048 A 
HETATM   20  C   UNL     1       8.006  29.856  58.223  1.00  0.00     0.102 A 
HETATM   21  C   UNL     1       7.095  30.908  58.328  1.00  0.00     0.102 A 
HETATM   22  O   UNL     1       9.321  29.959  58.589  1.00  0.00    -0.346 OA
HETATM   23  O   UNL     1       7.423  32.136  58.838  1.00  0.00    -0.346 OA
HETATM   24  C   UNL     1       5.783  30.739  57.897  1.00  0.00     0.040 A 
HETATM   25  C   UNL     1       8.653  32.084  59.573  1.00  0.00     0.202 C 
HETATM   26  C   UNL     1       9.711  31.326  58.788  1.00  0.00     0.202 C 
HETATM   27  C   UNL     1       5.367  29.505  57.386  1.00  0.00     0.012 A 
ENDBRANCH  17  18
ENDBRANCH   1  17
TORSDOF 5
ENDMDL
MODEL 6
REMARK VINA RESULT:      -8.5      4.665      8.471
REMARK  5 active torsions:
REMARK  status: ('A' for Active; 'I' for Inactive)
REMARK    1  A    between atoms: C_2  and  C_3 
REMARK    2  A    between atoms: C_3  and  N_4 
REMARK    3  A    between atoms: C_3  and  C_18 
REMARK    4  A    between atoms: N_4  and  C_7 
REMARK    5  A    between atoms: C_7  and  C_8 
ROOT
HETATM    1  N   UNL     1       7.148  26.378  56.390  1.00  0.00    -0.056 N 
HETATM    2  H   UNL     1       6.266  26.902  56.455  1.00  0.00     0.278 HD
HETATM    3  H   UNL     1       6.964  25.439  56.760  1.00  0.00     0.278 HD
ENDROOT
BRANCH   1   4
HETATM    4  C   UNL     1       7.497  26.291  54.932  1.00  0.00     0.292 C 
BRANCH   4   5
HETATM    5  C   UNL     1       7.587  24.844  54.475  1.00  0.00    -0.020 A 
HETATM    6  C   UNL     1       7.415  23.763  55.363  1.00  0.00     0.011 A 
HETATM    7  C   UNL     1       7.518  22.444  54.911  1.00  0.00     0.024 A 
HETATM    8  C   UNL     1       7.793  22.186  53.572  1.00  0.00     0.034 A 
HETATM    9  C   UNL     1       7.966  23.238  52.677  1.00  0.00     0.024 A 
HETATM   10 CL   UNL     1       7.918  20.563  53.021  1.00  0.00    -0.084 Cl
HETATM   11  C   UNL     1       7.864  24.559  53.124  1.00  0.00     0.011 A 
ENDBRANCH   4   5
BRANCH   4  12
HETATM   12  C   UNL     1       6.472  26.938  54.045  1.00  0.00     0.190 A 
HETATM   13  N   UNL     1       6.731  28.002  53.277  1.00  0.00    -0.109 NA
HETATM   14  O   UNL     1       5.491  28.280  52.694  1.00  0.00    -0.205 OA
HETATM   15  C   UNL     1       4.612  27.380  53.209  1.00  0.00     0.288 A 
HETATM   16  N   UNL     1       5.148  26.550  54.076  1.00  0.00    -0.215 NA
ENDBRANCH   4  12
ENDBRANCH   1   4
BRANCH   1  17
HETATM   17  C   UNL     1       8.157  27.070  57.231  1.00  0.00     0.272 C 
BRANCH  17  18
HETATM   18  C   UNL     1       7.707  28.465  57.555  1.00  0.00    -0.030 A 
HETATM   19  C   UNL     1       6.359  28.826  57.400  1.00  0.00     0.048 A 
HETATM   20  C   UNL     1       5.928  30.108  57.738  1.00  0.00     0.102 A 
HETATM   21  C   UNL     1       6.843  31.053  58.208  1.00  0.00     0.102 A 
HETATM   22  O   UNL     1       4.594  30.368  57.577  1.00  0.00    -0.346 OA
HETATM   23  O   UNL     1       6.496  32.340  58.521  1.00  0.00    -0.346 OA
HETATM   24  C   UNL     1       8.177  30.701  58.383  1.00  0.00     0.040 A 
HETATM   25  C   UNL     1       5.222  32.689  57.966  1.00  0.00     0.202 C 
HETATM   26  C   UNL     1       4.207  31.588  58.229  1.00  0.00     0.202 C 
HETATM   27  C   UNL     1       8.611  29.412  58.062  1.00  0.00     0.012 A 
ENDBRANCH  17  18
ENDBRANCH   1  17
TORSDOF 5
ENDMDL
MODEL 7
REMARK VINA RESULT:      -8.4      3.779      5.009
REMARK  5 active torsions:
REMARK  status: ('A' for Active; 'I' for Inactive)
REMARK    1  A    between atoms: C_2  and  C_3 
REMARK    2  A    between atoms: C_3  and  N_4 
REMARK    3  A    between atoms: C_3  and  C_18 
REMARK    4  A    between atoms: N_4  and  C_7 
REMARK    5  A    between atoms: C_7  and  C_8 
ROOT
HETATM    1  N   UNL     1       4.799  27.393  55.970  1.00  0.00    -0.056 N 
HETATM    2  H   UNL     1       3.801  27.406  55.720  1.00  0.00     0.278 HD
HETATM    3  H   UNL     1       5.318  27.200  55.106  1.00  0.00     0.278 HD
ENDROOT
BRANCH   1   4
HETATM    4  C   UNL     1       5.140  28.766  56.474  1.00  0.00     0.292 C 
BRANCH   4   5
HETATM    5  C   UNL     1       6.645  28.957  56.566  1.00  0.00    -0.020 A 
HETATM    6  C   UNL     1       7.485  28.870  55.437  1.00  0.00     0.011 A 
HETATM    7  C   UNL     1       8.868  29.039  55.560  1.00  0.00     0.024 A 
HETATM    8  C   UNL     1       9.430  29.296  56.807  1.00  0.00     0.034 A 
HETATM    9  C   UNL     1       8.619  29.388  57.935  1.00  0.00     0.024 A 
HETATM   10 CL   UNL     1      11.129  29.504  56.954  1.00  0.00    -0.084 Cl
HETATM   11  C   UNL     1       7.236  29.220  57.817  1.00  0.00     0.011 A 
ENDBRANCH   4   5
BRANCH   4  12
HETATM   12  C   UNL     1       4.642  29.860  55.575  1.00  0.00     0.190 A 
HETATM   13  N   UNL     1       4.787  31.161  55.850  1.00  0.00    -0.109 NA
HETATM   14  O   UNL     1       4.130  31.784  54.785  1.00  0.00    -0.205 OA
HETATM   15  C   UNL     1       3.622  30.790  54.010  1.00  0.00     0.288 A 
HETATM   16  N   UNL     1       3.871  29.582  54.464  1.00  0.00    -0.215 NA
ENDBRANCH   4  12
ENDBRANCH   1   4
BRANCH   1  17
HETATM   17  C   UNL     1       5.013  26.299  56.950  1.00  0.00     0.272 C 
BRANCH  17  18
HETATM   18  C   UNL     1       6.155  25.423  56.524  1.00  0.00    -0.030 A 
HETATM   19  C   UNL     1       6.077  24.695  55.326  1.00  0.00     0.048 A 
HETATM   20  C   UNL     1       7.153  23.912  54.906  1.00  0.00     0.102 A 
HETATM   21  C   UNL     1       8.305  23.826  55.689  1.00  0.00     0.102 A 
HETATM   22  O   UNL     1       7.000  23.253  53.716  1.00  0.00    -0.346 OA
HETATM   23  O   UNL     1       9.381  23.047  55.356  1.00  0.00    -0.346 OA
HETATM   24  C   UNL     1       8.401  24.559  56.868  1.00  0.00     0.040 A 
HETATM   25  C   UNL     1       9.037  22.081  54.355  1.00  0.00     0.202 C 
HETATM   26  C   UNL     1       8.249  22.735  53.232  1.00  0.00     0.202 C 
HETATM   27  C   UNL     1       7.332  25.358  57.286  1.00  0.00     0.012 A 
ENDBRANCH  17  18
ENDBRANCH   1  17
TORSDOF 5
ENDMDL
MODEL 8
REMARK VINA RESULT:      -8.3      3.998      5.530
REMARK  5 active torsions:
REMARK  status: ('A' for Active; 'I' for Inactive)
REMARK    1  A    between atoms: C_2  and  C_3 
REMARK    2  A    between atoms: C_3  and  N_4 
REMARK    3  A    between atoms: C_3  and  C_18 
REMARK    4  A    between atoms: N_4  and  C_7 
REMARK    5  A    between atoms: C_7  and  C_8 
ROOT
HETATM    1  N   UNL     1       7.145  26.406  53.796  1.00  0.00    -0.056 N 
HETATM    2  H   UNL     1       7.366  27.066  53.039  1.00  0.00     0.278 HD
HETATM    3  H   UNL     1       8.039  26.118  54.208  1.00  0.00     0.278 HD
ENDROOT
BRANCH   1   4
HETATM    4  C   UNL     1       6.336  27.162  54.811  1.00  0.00     0.292 C 
BRANCH   4   5
HETATM    5  C   UNL     1       7.232  27.989  55.720  1.00  0.00    -0.020 A 
HETATM    6  C   UNL     1       8.355  28.688  55.235  1.00  0.00     0.011 A 
HETATM    7  C   UNL     1       9.165  29.429  56.102  1.00  0.00     0.024 A 
HETATM    8  C   UNL     1       8.867  29.481  57.460  1.00  0.00     0.034 A 
HETATM    9  C   UNL     1       7.761  28.798  57.960  1.00  0.00     0.024 A 
HETATM   10 CL   UNL     1       9.864  30.392  58.521  1.00  0.00    -0.084 Cl
HETATM   11  C   UNL     1       6.948  28.057  57.098  1.00  0.00     0.011 A 
ENDBRANCH   4   5
BRANCH   4  12
HETATM   12  C   UNL     1       5.375  28.133  54.189  1.00  0.00     0.190 A 
HETATM   13  N   UNL     1       4.179  28.422  54.714  1.00  0.00    -0.109 NA
HETATM   14  O   UNL     1       3.629  29.305  53.779  1.00  0.00    -0.205 OA
HETATM   15  C   UNL     1       4.536  29.416  52.773  1.00  0.00     0.288 A 
HETATM   16  N   UNL     1       5.617  28.689  52.949  1.00  0.00    -0.215 NA
ENDBRANCH   4  12
ENDBRANCH   1   4
BRANCH   1  17
HETATM   17  C   UNL     1       6.456  25.236  53.198  1.00  0.00     0.272 C 
BRANCH  17  18
HETATM   18  C   UNL     1       7.124  23.958  53.617  1.00  0.00    -0.030 A 
HETATM   19  C   UNL     1       7.334  23.686  54.978  1.00  0.00     0.048 A 
HETATM   20  C   UNL     1       7.917  22.483  55.375  1.00  0.00     0.102 A 
HETATM   21  C   UNL     1       8.321  21.551  54.417  1.00  0.00     0.102 A 
HETATM   22  O   UNL     1       8.065  22.290  56.722  1.00  0.00    -0.346 OA
HETATM   23  O   UNL     1       8.933  20.368  54.734  1.00  0.00    -0.346 OA
HETATM   24  C   UNL     1       8.099  21.801  53.066  1.00  0.00     0.040 A 
HETATM   25  C   UNL     1       9.434  20.382  56.077  1.00  0.00     0.202 C 
HETATM   26  C   UNL     1       8.383  20.924  57.031  1.00  0.00     0.202 C 
HETATM   27  C   UNL     1       7.500  22.999  52.664  1.00  0.00     0.012 A 
ENDBRANCH  17  18
ENDBRANCH   1  17
TORSDOF 5
ENDMDL
MODEL 9
REMARK VINA RESULT:      -8.3      5.664      8.116
REMARK  5 active torsions:
REMARK  status: ('A' for Active; 'I' for Inactive)
REMARK    1  A    between atoms: C_2  and  C_3 
REMARK    2  A    between atoms: C_3  and  N_4 
REMARK    3  A    between atoms: C_3  and  C_18 
REMARK    4  A    between atoms: N_4  and  C_7 
REMARK    5  A    between atoms: C_7  and  C_8 
ROOT
HETATM    1  N   UNL     1       6.414  28.644  53.935  1.00  0.00    -0.056 N 
HETATM    2  H   UNL     1       6.779  29.505  54.363  1.00  0.00     0.278 HD
HETATM    3  H   UNL     1       7.088  28.364  53.213  1.00  0.00     0.278 HD
ENDROOT
BRANCH   1   4
HETATM    4  C   UNL     1       6.366  27.604  55.018  1.00  0.00     0.292 C 
BRANCH   4   5
HETATM    5  C   UNL     1       6.777  26.241  54.488  1.00  0.00    -0.020 A 
HETATM    6  C   UNL     1       6.424  25.042  55.141  1.00  0.00     0.011 A 
HETATM    7  C   UNL     1       6.830  23.805  54.631  1.00  0.00     0.024 A 
HETATM    8  C   UNL     1       7.592  23.746  53.468  1.00  0.00     0.034 A 
HETATM    9  C   UNL     1       7.951  24.917  52.806  1.00  0.00     0.024 A 
HETATM   10 CL   UNL     1       8.088  22.223  52.846  1.00  0.00    -0.084 Cl
HETATM   11  C   UNL     1       7.547  26.157  53.311  1.00  0.00     0.011 A 
ENDBRANCH   4   5
BRANCH   4  12
HETATM   12  C   UNL     1       7.300  27.901  56.155  1.00  0.00     0.190 A 
HETATM   13  N   UNL     1       7.018  27.616  57.432  1.00  0.00    -0.109 NA
HETATM   14  O   UNL     1       8.128  28.116  58.119  1.00  0.00    -0.205 OA
HETATM   15  C   UNL     1       8.935  28.686  57.187  1.00  0.00     0.288 A 
HETATM   16  N   UNL     1       8.462  28.620  55.962  1.00  0.00    -0.215 NA
ENDBRANCH   4  12
ENDBRANCH   1   4
BRANCH   1  17
HETATM   17  C   UNL     1       5.103  28.959  53.315  1.00  0.00     0.272 C 
BRANCH  17  18
HETATM   18  C   UNL     1       5.154  28.745  51.830  1.00  0.00    -0.030 A 
HETATM   19  C   UNL     1       4.720  27.529  51.278  1.00  0.00     0.048 A 
HETATM   20  C   UNL     1       4.727  27.340  49.896  1.00  0.00     0.102 A 
HETATM   21  C   UNL     1       5.193  28.351  49.053  1.00  0.00     0.102 A 
HETATM   22  O   UNL     1       4.268  26.134  49.441  1.00  0.00    -0.346 OA
HETATM   23  O   UNL     1       5.264  28.219  47.692  1.00  0.00    -0.346 OA
HETATM   24  C   UNL     1       5.607  29.567  49.589  1.00  0.00     0.040 A 
HETATM   25  C   UNL     1       5.172  26.846  47.295  1.00  0.00     0.202 C 
HETATM   26  C   UNL     1       4.032  26.155  48.025  1.00  0.00     0.202 C 
HETATM   27  C   UNL     1       5.586  29.768  50.972  1.00  0.00     0.012 A 
ENDBRANCH  17  18
ENDBRANCH   1  17
TORSDOF 5
ENDMDL
MODEL 10
REMARK VINA RESULT:      -8.2      6.271      9.195
REMARK  5 active torsions:
REMARK  status: ('A' for Active; 'I' for Inactive)
REMARK    1  A    between atoms: C_2  and  C_3 
REMARK    2  A    between atoms: C_3  and  N_4 
REMARK    3  A    between atoms: C_3  and  C_18 
REMARK    4  A    between atoms: N_4  and  C_7 
REMARK    5  A    between atoms: C_7  and  C_8 
ROOT
HETATM    1  N   UNL     1       6.222  25.461  51.807  1.00  0.00    -0.056 N 
HETATM    2  H   UNL     1       6.782  26.303  51.616  1.00  0.00     0.278 HD
HETATM    3  H   UNL     1       6.769  24.660  51.472  1.00  0.00     0.278 HD
ENDROOT
BRANCH   1   4
HETATM    4  C   UNL     1       6.057  25.377  53.298  1.00  0.00     0.292 C 
BRANCH   4   5
HETATM    5  C   UNL     1       6.849  24.214  53.872  1.00  0.00    -0.020 A 
HETATM    6  C   UNL     1       6.915  23.960  55.257  1.00  0.00     0.011 A 
HETATM    7  C   UNL     1       7.664  22.887  55.752  1.00  0.00     0.024 A 
HETATM    8  C   UNL     1       8.356  22.058  54.876  1.00  0.00     0.034 A 
HETATM    9  C   UNL     1       8.304  22.290  53.504  1.00  0.00     0.024 A 
HETATM   10 CL   UNL     1       9.274  20.741  55.488  1.00  0.00    -0.084 Cl
HETATM   11  C   UNL     1       7.556  23.360  53.004  1.00  0.00     0.011 A 
ENDBRANCH   4   5
BRANCH   4  12
HETATM   12  C   UNL     1       6.551  26.602  54.012  1.00  0.00     0.190 A 
HETATM   13  N   UNL     1       5.809  27.294  54.883  1.00  0.00    -0.109 NA
HETATM   14  O   UNL     1       6.645  28.358  55.235  1.00  0.00    -0.205 OA
HETATM   15  C   UNL     1       7.782  28.214  54.503  1.00  0.00     0.288 A 
HETATM   16  N   UNL     1       7.770  27.172  53.702  1.00  0.00    -0.215 NA
ENDBRANCH   4  12
ENDBRANCH   1   4
BRANCH   1  17
HETATM   17  C   UNL     1       4.954  25.570  51.045  1.00  0.00     0.272 C 
BRANCH  17  18
HETATM   18  C   UNL     1       4.946  26.815  50.206  1.00  0.00    -0.030 A 
HETATM   19  C   UNL     1       5.376  28.036  50.751  1.00  0.00     0.048 A 
HETATM   20  C   UNL     1       5.410  29.187  49.964  1.00  0.00     0.102 A 
HETATM   21  C   UNL     1       4.988  29.138  48.634  1.00  0.00     0.102 A 
HETATM   22  O   UNL     1       5.863  30.328  50.569  1.00  0.00    -0.346 OA
HETATM   23  O   UNL     1       4.959  30.236  47.817  1.00  0.00    -0.346 OA
HETATM   24  C   UNL     1       4.578  27.930  48.078  1.00  0.00     0.040 A 
HETATM   25  C   UNL     1       5.039  31.452  48.572  1.00  0.00     0.202 C 
HETATM   26  C   UNL     1       6.144  31.361  49.612  1.00  0.00     0.202 C 
HETATM   27  C   UNL     1       4.559  26.770  48.858  1.00  0.00     0.012 A 
ENDBRANCH  17  18
ENDBRANCH   1  17
TORSDOF 5
ENDMDL
