MODEL 1
REMARK VINA RESULT:      -9.1      0.000      0.000
REMARK  5 active torsions:
REMARK  status: ('A' for Active; 'I' for Inactive)
REMARK    1  A    between atoms: C_2  and  N_3 
REMARK       I    between atoms: N_3  and  C_4 
REMARK       I    between atoms: C_4  and  N_5 
REMARK    2  A    between atoms: C_7  and  C_8 
REMARK    3  A    between atoms: C_13  and  N_14 
REMARK       I    between atoms: N_14  and  C_15 
REMARK    4  A    between atoms: C_15  and  C_16 
REMARK    5  A    between atoms: C_19  and  O_20 
ROOT
HETATM    1  C   UNL     1       6.406  28.721  56.447  1.00  0.00     0.088 A 
HETATM    2  N   UNL     1       6.521  29.804  55.666  1.00  0.00    -0.177 NA
HETATM    3  N   UNL     1       5.374  29.833  54.978  1.00  0.00    -0.287 N 
HETATM    4  H   UNL     1       5.250  30.559  54.280  1.00  0.00     0.188 HD
HETATM    5  C   UNL     1       4.505  28.837  55.321  1.00  0.00     0.141 A 
HETATM    6  C   UNL     1       5.116  28.109  56.310  1.00  0.00     0.079 A 
ENDROOT
BRANCH   1   7
HETATM    7  C   UNL     1       7.559  28.244  57.306  1.00  0.00     0.060 C 
HETATM    8  C   UNL     1       7.860  29.134  58.524  1.00  0.00     0.138 C 
HETATM    9  N   UNL     1       8.623  30.353  58.214  1.00  0.00    -0.334 N 
HETATM   10  C   UNL     1       8.596  31.486  59.024  1.00  0.00     0.318 C 
HETATM   11  C   UNL     1       9.805  30.172  57.380  1.00  0.00     0.127 C 
HETATM   12  N   UNL     1       7.459  31.603  59.783  1.00  0.00    -0.339 N 
HETATM   13  O   UNL     1       9.510  32.303  59.059  1.00  0.00    -0.247 OA
HETATM   14  H   UNL     1       6.642  31.288  59.278  1.00  0.00     0.164 HD
HETATM   15  C   UNL     1       9.511  29.357  56.127  1.00  0.00     0.021 C 
HETATM   16  C   UNL     1       8.835  28.033  56.473  1.00  0.00     0.014 C 
BRANCH  12  17
HETATM   17  C   UNL     1       7.218  32.693  60.719  1.00  0.00     0.078 C 
HETATM   18  C   UNL     1       7.835  32.417  62.088  1.00  0.00     0.032 C 
HETATM   19  C   UNL     1       5.743  33.075  60.832  1.00  0.00     0.032 C 
ENDBRANCH  12  17
ENDBRANCH   1   7
BRANCH   6  20
HETATM   20  N   UNL     1       4.672  27.012  57.023  1.00  0.00    -0.320 N 
HETATM   21  C   UNL     1       4.962  25.674  56.951  1.00  0.00     0.256 C 
HETATM   22  O   UNL     1       4.467  24.904  57.774  1.00  0.00    -0.267 OA
HETATM   23  H   UNL     1       4.037  27.205  57.787  1.00  0.00     0.169 HD
BRANCH  21  24
HETATM   24  C   UNL     1       5.881  25.112  55.953  1.00  0.00     0.032 A 
HETATM   25  C   UNL     1       5.532  25.055  54.603  1.00  0.00     0.020 A 
HETATM   26  C   UNL     1       6.407  24.447  53.698  1.00  0.00     0.038 A 
HETATM   27  C   UNL     1       7.603  23.865  54.139  1.00  0.00     0.068 A 
HETATM   28  C   UNL     1       7.927  23.902  55.497  1.00  0.00     0.038 A 
HETATM   29  C   UNL     1       7.063  24.519  56.405  1.00  0.00     0.020 A 
BRANCH  27  30
HETATM   30  O   UNL     1       8.361  23.295  53.151  1.00  0.00    -0.356 OA
HETATM   31  C   UNL     1       8.145  21.912  52.899  1.00  0.00     0.210 C 
ENDBRANCH  27  30
ENDBRANCH  21  24
ENDBRANCH   6  20
TORSDOF 5
ENDMDL
MODEL 2
REMARK VINA RESULT:      -8.6      3.373      6.942
REMARK  5 active torsions:
REMARK  status: ('A' for Active; 'I' for Inactive)
REMARK    1  A    between atoms: C_2  and  N_3 
REMARK       I    between atoms: N_3  and  C_4 
REMARK       I    between atoms: C_4  and  N_5 
REMARK    2  A    between atoms: C_7  and  C_8 
REMARK    3  A    between atoms: C_13  and  N_14 
REMARK       I    between atoms: N_14  and  C_15 
REMARK    4  A    between atoms: C_15  and  C_16 
REMARK    5  A    between atoms: C_19  and  O_20 
ROOT
HETATM    1  C   UNL     1       7.890  32.013  61.824  1.00  0.00     0.088 A 
HETATM    2  N   UNL     1       7.509  31.317  62.903  1.00  0.00    -0.177 NA
HETATM    3  N   UNL     1       8.326  30.258  62.914  1.00  0.00    -0.287 N 
HETATM    4  H   UNL     1       8.195  29.556  63.635  1.00  0.00     0.188 HD
HETATM    5  C   UNL     1       9.252  30.272  61.910  1.00  0.00     0.141 A 
HETATM    6  C   UNL     1       9.035  31.422  61.195  1.00  0.00     0.079 A 
ENDROOT
BRANCH   1   7
HETATM    7  C   UNL     1       7.124  33.237  61.365  1.00  0.00     0.060 C 
HETATM    8  C   UNL     1       6.454  34.033  62.498  1.00  0.00     0.138 C 
HETATM    9  N   UNL     1       5.193  33.453  62.987  1.00  0.00    -0.334 N 
HETATM   10  C   UNL     1       4.687  33.713  64.258  1.00  0.00     0.318 C 
HETATM   11  C   UNL     1       4.229  33.066  61.965  1.00  0.00     0.127 C 
HETATM   12  N   UNL     1       5.641  34.071  65.177  1.00  0.00    -0.339 N 
HETATM   13  O   UNL     1       3.493  33.635  64.530  1.00  0.00    -0.247 OA
HETATM   14  H   UNL     1       6.500  33.556  65.040  1.00  0.00     0.164 HD
HETATM   15  C   UNL     1       4.857  32.211  60.871  1.00  0.00     0.021 C 
HETATM   16  C   UNL     1       6.092  32.885  60.280  1.00  0.00     0.014 C 
BRANCH  12  17
HETATM   17  C   UNL     1       5.344  34.409  66.563  1.00  0.00     0.078 C 
HETATM   18  C   UNL     1       4.703  35.788  66.690  1.00  0.00     0.032 C 
HETATM   19  C   UNL     1       6.550  34.261  67.490  1.00  0.00     0.032 C 
ENDBRANCH  12  17
ENDBRANCH   1   7
BRANCH   6  20
HETATM   20  N   UNL     1       9.699  31.936  60.097  1.00  0.00    -0.320 N 
HETATM   21  C   UNL     1       9.729  31.576  58.774  1.00  0.00     0.256 C 
HETATM   22  O   UNL     1      10.363  32.265  57.976  1.00  0.00    -0.267 OA
HETATM   23  H   UNL     1      10.247  32.772  60.258  1.00  0.00     0.169 HD
BRANCH  21  24
HETATM   24  C   UNL     1       9.000  30.415  58.250  1.00  0.00     0.032 A 
HETATM   25  C   UNL     1       9.669  29.368  57.615  1.00  0.00     0.020 A 
HETATM   26  C   UNL     1       8.927  28.317  57.067  1.00  0.00     0.038 A 
HETATM   27  C   UNL     1       7.527  28.327  57.116  1.00  0.00     0.068 A 
HETATM   28  C   UNL     1       6.867  29.395  57.727  1.00  0.00     0.038 A 
HETATM   29  C   UNL     1       7.602  30.443  58.288  1.00  0.00     0.020 A 
BRANCH  27  30
HETATM   30  O   UNL     1       6.926  27.244  56.533  1.00  0.00    -0.356 OA
HETATM   31  C   UNL     1       7.685  26.041  56.485  1.00  0.00     0.210 C 
ENDBRANCH  27  30
ENDBRANCH  21  24
ENDBRANCH   6  20
TORSDOF 5
ENDMDL
MODEL 3
REMARK VINA RESULT:      -8.2      2.318      8.426
REMARK  5 active torsions:
REMARK  status: ('A' for Active; 'I' for Inactive)
REMARK    1  A    between atoms: C_2  and  N_3 
REMARK       I    between atoms: N_3  and  C_4 
REMARK       I    between atoms: C_4  and  N_5 
REMARK    2  A    between atoms: C_7  and  C_8 
REMARK    3  A    between atoms: C_13  and  N_14 
REMARK       I    between atoms: N_14  and  C_15 
REMARK    4  A    between atoms: C_15  and  C_16 
REMARK    5  A    between atoms: C_19  and  O_20 
ROOT
HETATM    1  C   UNL     1       7.015  28.915  57.137  1.00  0.00     0.088 A 
HETATM    2  N   UNL     1       5.708  28.650  57.258  1.00  0.00    -0.177 NA
HETATM    3  N   UNL     1       5.231  29.676  57.971  1.00  0.00    -0.287 N 
HETATM    4  H   UNL     1       4.248  29.671  58.225  1.00  0.00     0.188 HD
HETATM    5  C   UNL     1       6.173  30.618  58.271  1.00  0.00     0.141 A 
HETATM    6  C   UNL     1       7.348  30.187  57.709  1.00  0.00     0.079 A 
ENDROOT
BRANCH   1   7
HETATM    7  C   UNL     1       7.965  27.921  56.500  1.00  0.00     0.060 C 
HETATM    8  C   UNL     1       7.532  27.424  55.110  1.00  0.00     0.138 C 
HETATM    9  N   UNL     1       6.491  26.384  55.132  1.00  0.00    -0.334 N 
HETATM   10  C   UNL     1       5.644  26.141  54.054  1.00  0.00     0.318 C 
HETATM   11  C   UNL     1       6.717  25.274  56.050  1.00  0.00     0.127 C 
HETATM   12  N   UNL     1       5.469  27.223  53.227  1.00  0.00    -0.339 N 
HETATM   13  O   UNL     1       5.107  25.056  53.857  1.00  0.00    -0.247 OA
HETATM   14  H   UNL     1       5.434  28.087  53.750  1.00  0.00     0.164 HD
HETATM   15  C   UNL     1       7.073  25.746  57.454  1.00  0.00     0.021 C 
HETATM   16  C   UNL     1       8.242  26.727  57.429  1.00  0.00     0.014 C 
BRANCH  12  17
HETATM   17  C   UNL     1       4.644  27.199  52.026  1.00  0.00     0.078 C 
HETATM   18  C   UNL     1       5.413  26.674  50.816  1.00  0.00     0.032 C 
HETATM   19  C   UNL     1       3.974  28.541  51.729  1.00  0.00     0.032 C 
ENDBRANCH  12  17
ENDBRANCH   1   7
BRANCH   6  20
HETATM   20  N   UNL     1       8.602  30.768  57.692  1.00  0.00    -0.320 N 
HETATM   21  C   UNL     1       9.361  31.374  58.660  1.00  0.00     0.256 C 
HETATM   22  O   UNL     1      10.501  31.750  58.385  1.00  0.00    -0.267 OA
HETATM   23  H   UNL     1       9.106  30.714  56.816  1.00  0.00     0.169 HD
BRANCH  21  24
HETATM   24  C   UNL     1       8.891  31.563  60.037  1.00  0.00     0.032 A 
HETATM   25  C   UNL     1       8.227  32.730  60.420  1.00  0.00     0.020 A 
HETATM   26  C   UNL     1       7.860  32.898  61.758  1.00  0.00     0.038 A 
HETATM   27  C   UNL     1       8.186  31.929  62.717  1.00  0.00     0.068 A 
HETATM   28  C   UNL     1       8.877  30.780  62.328  1.00  0.00     0.038 A 
HETATM   29  C   UNL     1       9.236  30.600  60.989  1.00  0.00     0.020 A 
BRANCH  27  30
HETATM   30  O   UNL     1       7.777  32.224  63.990  1.00  0.00    -0.356 OA
HETATM   31  C   UNL     1       7.190  33.504  64.192  1.00  0.00     0.210 C 
ENDBRANCH  27  30
ENDBRANCH  21  24
ENDBRANCH   6  20
TORSDOF 5
ENDMDL
MODEL 4
REMARK VINA RESULT:      -8.1      4.184      6.877
REMARK  5 active torsions:
REMARK  status: ('A' for Active; 'I' for Inactive)
REMARK    1  A    between atoms: C_2  and  N_3 
REMARK       I    between atoms: N_3  and  C_4 
REMARK       I    between atoms: C_4  and  N_5 
REMARK    2  A    between atoms: C_7  and  C_8 
REMARK    3  A    between atoms: C_13  and  N_14 
REMARK       I    between atoms: N_14  and  C_15 
REMARK    4  A    between atoms: C_15  and  C_16 
REMARK    5  A    between atoms: C_19  and  O_20 
ROOT
HETATM    1  C   UNL     1       6.066  28.448  54.657  1.00  0.00     0.088 A 
HETATM    2  N   UNL     1       6.760  29.164  55.551  1.00  0.00    -0.177 NA
HETATM    3  N   UNL     1       8.039  28.936  55.230  1.00  0.00    -0.287 N 
HETATM    4  H   UNL     1       8.762  29.353  55.807  1.00  0.00     0.188 HD
HETATM    5  C   UNL     1       8.193  28.138  54.133  1.00  0.00     0.141 A 
HETATM    6  C   UNL     1       6.930  27.828  53.695  1.00  0.00     0.079 A 
ENDROOT
BRANCH   1   7
HETATM    7  C   UNL     1       4.559  28.322  54.749  1.00  0.00     0.060 C 
HETATM    8  C   UNL     1       3.860  28.020  53.413  1.00  0.00     0.138 C 
HETATM    9  N   UNL     1       3.688  29.191  52.537  1.00  0.00    -0.334 N 
HETATM   10  C   UNL     1       3.531  29.084  51.158  1.00  0.00     0.318 C 
HETATM   11  C   UNL     1       3.140  30.385  53.168  1.00  0.00     0.127 C 
HETATM   12  N   UNL     1       4.068  27.941  50.622  1.00  0.00    -0.339 N 
HETATM   13  O   UNL     1       2.958  29.934  50.483  1.00  0.00    -0.247 OA
HETATM   14  H   UNL     1       4.931  27.685  51.082  1.00  0.00     0.164 HD
HETATM   15  C   UNL     1       3.870  30.746  54.457  1.00  0.00     0.021 C 
HETATM   16  C   UNL     1       3.927  29.558  55.413  1.00  0.00     0.014 C 
BRANCH  12  17
HETATM   17  C   UNL     1       4.006  27.604  49.205  1.00  0.00     0.078 C 
HETATM   18  C   UNL     1       3.813  26.106  48.983  1.00  0.00     0.032 C 
HETATM   19  C   UNL     1       5.191  28.145  48.405  1.00  0.00     0.032 C 
ENDBRANCH  12  17
ENDBRANCH   1   7
BRANCH   6  20
HETATM   20  N   UNL     1       6.514  27.073  52.616  1.00  0.00    -0.320 N 
HETATM   21  C   UNL     1       6.509  25.724  52.368  1.00  0.00     0.256 C 
HETATM   22  O   UNL     1       6.001  25.303  51.329  1.00  0.00    -0.267 OA
HETATM   23  H   UNL     1       6.081  27.583  51.856  1.00  0.00     0.169 HD
BRANCH  21  24
HETATM   24  C   UNL     1       7.049  24.741  53.314  1.00  0.00     0.032 A 
HETATM   25  C   UNL     1       8.003  23.804  52.916  1.00  0.00     0.020 A 
HETATM   26  C   UNL     1       8.437  22.840  53.831  1.00  0.00     0.038 A 
HETATM   27  C   UNL     1       7.896  22.784  55.122  1.00  0.00     0.068 A 
HETATM   28  C   UNL     1       6.919  23.708  55.500  1.00  0.00     0.038 A 
HETATM   29  C   UNL     1       6.491  24.682  54.595  1.00  0.00     0.020 A 
BRANCH  27  30
HETATM   30  O   UNL     1       8.401  21.787  55.912  1.00  0.00    -0.356 OA
HETATM   31  C   UNL     1       7.701  20.548  55.901  1.00  0.00     0.210 C 
ENDBRANCH  27  30
ENDBRANCH  21  24
ENDBRANCH   6  20
TORSDOF 5
ENDMDL
MODEL 5
REMARK VINA RESULT:      -7.9      2.053      3.053
REMARK  5 active torsions:
REMARK  status: ('A' for Active; 'I' for Inactive)
REMARK    1  A    between atoms: C_2  and  N_3 
REMARK       I    between atoms: N_3  and  C_4 
REMARK       I    between atoms: C_4  and  N_5 
REMARK    2  A    between atoms: C_7  and  C_8 
REMARK    3  A    between atoms: C_13  and  N_14 
REMARK       I    between atoms: N_14  and  C_15 
REMARK    4  A    between atoms: C_15  and  C_16 
REMARK    5  A    between atoms: C_19  and  O_20 
ROOT
HETATM    1  C   UNL     1       7.311  27.370  56.832  1.00  0.00     0.088 A 
HETATM    2  N   UNL     1       7.945  27.019  57.958  1.00  0.00    -0.177 NA
HETATM    3  N   UNL     1       7.418  25.831  58.273  1.00  0.00    -0.287 N 
HETATM    4  H   UNL     1       7.725  25.379  59.129  1.00  0.00     0.188 HD
HETATM    5  C   UNL     1       6.502  25.381  57.366  1.00  0.00     0.141 A 
HETATM    6  C   UNL     1       6.429  26.334  56.381  1.00  0.00     0.079 A 
ENDROOT
BRANCH   1   7
HETATM    7  C   UNL     1       7.521  28.732  56.202  1.00  0.00     0.060 C 
HETATM    8  C   UNL     1       7.996  29.822  57.178  1.00  0.00     0.138 C 
HETATM    9  N   UNL     1       6.931  30.397  58.014  1.00  0.00    -0.334 N 
HETATM   10  C   UNL     1       7.183  31.015  59.237  1.00  0.00     0.318 C 
HETATM   11  C   UNL     1       5.717  30.799  57.315  1.00  0.00     0.127 C 
HETATM   12  N   UNL     1       8.337  30.594  59.847  1.00  0.00    -0.339 N 
HETATM   13  O   UNL     1       6.442  31.863  59.721  1.00  0.00    -0.247 OA
HETATM   14  H   UNL     1       8.492  29.605  59.707  1.00  0.00     0.164 HD
HETATM   15  C   UNL     1       5.185  29.703  56.399  1.00  0.00     0.021 C 
HETATM   16  C   UNL     1       6.268  29.205  55.445  1.00  0.00     0.014 C 
BRANCH  12  17
HETATM   17  C   UNL     1       8.816  31.114  61.122  1.00  0.00     0.078 C 
HETATM   18  C   UNL     1       9.828  32.241  60.935  1.00  0.00     0.032 C 
HETATM   19  C   UNL     1       9.349  30.027  62.054  1.00  0.00     0.032 C 
ENDBRANCH  12  17
ENDBRANCH   1   7
BRANCH   6  20
HETATM   20  N   UNL     1       5.678  26.370  55.221  1.00  0.00    -0.320 N 
HETATM   21  C   UNL     1       5.624  25.555  54.120  1.00  0.00     0.256 C 
HETATM   22  O   UNL     1       4.793  25.783  53.241  1.00  0.00    -0.267 OA
HETATM   23  H   UNL     1       4.990  27.110  55.159  1.00  0.00     0.169 HD
BRANCH  21  24
HETATM   24  C   UNL     1       6.491  24.382  53.956  1.00  0.00     0.032 A 
HETATM   25  C   UNL     1       6.653  23.454  54.985  1.00  0.00     0.020 A 
HETATM   26  C   UNL     1       7.545  22.391  54.812  1.00  0.00     0.038 A 
HETATM   27  C   UNL     1       8.299  22.274  53.636  1.00  0.00     0.068 A 
HETATM   28  C   UNL     1       8.151  23.227  52.626  1.00  0.00     0.038 A 
HETATM   29  C   UNL     1       7.252  24.284  52.788  1.00  0.00     0.020 A 
BRANCH  27  30
HETATM   30  O   UNL     1       9.140  21.195  53.601  1.00  0.00    -0.356 OA
HETATM   31  C   UNL     1       8.903  20.169  54.557  1.00  0.00     0.210 C 
ENDBRANCH  27  30
ENDBRANCH  21  24
ENDBRANCH   6  20
TORSDOF 5
ENDMDL
MODEL 6
REMARK VINA RESULT:      -7.9      2.353      4.151
REMARK  5 active torsions:
REMARK  status: ('A' for Active; 'I' for Inactive)
REMARK    1  A    between atoms: C_2  and  N_3 
REMARK       I    between atoms: N_3  and  C_4 
REMARK       I    between atoms: C_4  and  N_5 
REMARK    2  A    between atoms: C_7  and  C_8 
REMARK    3  A    between atoms: C_13  and  N_14 
REMARK       I    between atoms: N_14  and  C_15 
REMARK    4  A    between atoms: C_15  and  C_16 
REMARK    5  A    between atoms: C_19  and  O_20 
ROOT
HETATM    1  C   UNL     1       8.841  29.585  57.283  1.00  0.00     0.088 A 
HETATM    2  N   UNL     1      10.130  29.830  57.554  1.00  0.00    -0.177 NA
HETATM    3  N   UNL     1      10.747  29.668  56.379  1.00  0.00    -0.287 N 
HETATM    4  H   UNL     1      11.757  29.767  56.347  1.00  0.00     0.188 HD
HETATM    5  C   UNL     1       9.898  29.375  55.351  1.00  0.00     0.141 A 
HETATM    6  C   UNL     1       8.634  29.352  55.884  1.00  0.00     0.079 A 
ENDROOT
BRANCH   1   7
HETATM    7  C   UNL     1       7.802  29.532  58.384  1.00  0.00     0.060 C 
HETATM    8  C   UNL     1       6.406  30.026  57.969  1.00  0.00     0.138 C 
HETATM    9  N   UNL     1       6.263  31.491  57.933  1.00  0.00    -0.334 N 
HETATM   10  C   UNL     1       5.298  32.135  57.164  1.00  0.00     0.318 C 
HETATM   11  C   UNL     1       6.758  32.209  59.100  1.00  0.00     0.127 C 
HETATM   12  N   UNL     1       4.873  31.411  56.079  1.00  0.00    -0.339 N 
HETATM   13  O   UNL     1       4.862  33.249  57.436  1.00  0.00    -0.247 OA
HETATM   14  H   UNL     1       5.632  30.893  55.658  1.00  0.00     0.164 HD
HETATM   15  C   UNL     1       8.172  31.789  59.483  1.00  0.00     0.021 C 
HETATM   16  C   UNL     1       8.275  30.275  59.645  1.00  0.00     0.014 C 
BRANCH  12  17
HETATM   17  C   UNL     1       3.855  31.873  55.144  1.00  0.00     0.078 C 
HETATM   18  C   UNL     1       2.443  31.587  55.649  1.00  0.00     0.032 C 
HETATM   19  C   UNL     1       4.061  31.352  53.722  1.00  0.00     0.032 C 
ENDBRANCH  12  17
ENDBRANCH   1   7
BRANCH   6  20
HETATM   20  N   UNL     1       7.410  29.128  55.283  1.00  0.00    -0.320 N 
HETATM   21  C   UNL     1       6.683  27.990  55.045  1.00  0.00     0.256 C 
HETATM   22  O   UNL     1       5.562  28.083  54.545  1.00  0.00    -0.267 OA
HETATM   23  H   UNL     1       6.901  29.952  54.987  1.00  0.00     0.169 HD
BRANCH  21  24
HETATM   24  C   UNL     1       7.166  26.650  55.400  1.00  0.00     0.032 A 
HETATM   25  C   UNL     1       7.490  25.715  54.416  1.00  0.00     0.020 A 
HETATM   26  C   UNL     1       7.876  24.427  54.799  1.00  0.00     0.038 A 
HETATM   27  C   UNL     1       7.904  24.060  56.151  1.00  0.00     0.068 A 
HETATM   28  C   UNL     1       7.548  24.996  57.125  1.00  0.00     0.038 A 
HETATM   29  C   UNL     1       7.172  26.288  56.750  1.00  0.00     0.020 A 
BRANCH  27  30
HETATM   30  O   UNL     1       8.290  22.769  56.386  1.00  0.00    -0.356 OA
HETATM   31  C   UNL     1       8.963  22.101  55.325  1.00  0.00     0.210 C 
ENDBRANCH  27  30
ENDBRANCH  21  24
ENDBRANCH   6  20
TORSDOF 5
ENDMDL
MODEL 7
REMARK VINA RESULT:      -7.7      2.108      2.933
REMARK  5 active torsions:
REMARK  status: ('A' for Active; 'I' for Inactive)
REMARK    1  A    between atoms: C_2  and  N_3 
REMARK       I    between atoms: N_3  and  C_4 
REMARK       I    between atoms: C_4  and  N_5 
REMARK    2  A    between atoms: C_7  and  C_8 
REMARK    3  A    between atoms: C_13  and  N_14 
REMARK       I    between atoms: N_14  and  C_15 
REMARK    4  A    between atoms: C_15  and  C_16 
REMARK    5  A    between atoms: C_19  and  O_20 
ROOT
HETATM    1  C   UNL     1       8.853  28.952  56.303  1.00  0.00     0.088 A 
HETATM    2  N   UNL     1       9.825  29.431  55.515  1.00  0.00    -0.177 NA
HETATM    3  N   UNL     1       9.447  29.079  54.280  1.00  0.00    -0.287 N 
HETATM    4  H   UNL     1      10.063  29.306  53.505  1.00  0.00     0.188 HD
HETATM    5  C   UNL     1       8.244  28.434  54.240  1.00  0.00     0.141 A 
HETATM    6  C   UNL     1       7.795  28.366  55.534  1.00  0.00     0.079 A 
ENDROOT
BRANCH   1   7
HETATM    7  C   UNL     1       8.958  29.022  57.812  1.00  0.00     0.060 C 
HETATM    8  C   UNL     1       7.708  29.576  58.516  1.00  0.00     0.138 C 
HETATM    9  N   UNL     1       7.587  31.042  58.477  1.00  0.00    -0.334 N 
HETATM   10  C   UNL     1       6.368  31.702  58.614  1.00  0.00     0.318 C 
HETATM   11  C   UNL     1       8.782  31.791  58.846  1.00  0.00     0.127 C 
HETATM   12  N   UNL     1       5.281  30.948  58.251  1.00  0.00    -0.339 N 
HETATM   13  O   UNL     1       6.275  32.853  59.027  1.00  0.00    -0.247 OA
HETATM   14  H   UNL     1       5.485  30.363  57.452  1.00  0.00     0.164 HD
HETATM   15  C   UNL     1      10.021  31.308  58.102  1.00  0.00     0.021 C 
HETATM   16  C   UNL     1      10.208  29.801  58.257  1.00  0.00     0.014 C 
BRANCH  12  17
HETATM   17  C   UNL     1       3.905  31.420  58.329  1.00  0.00     0.078 C 
HETATM   18  C   UNL     1       3.250  31.055  59.658  1.00  0.00     0.032 C 
HETATM   19  C   UNL     1       3.050  30.981  57.140  1.00  0.00     0.032 C 
ENDBRANCH  12  17
ENDBRANCH   1   7
BRANCH   6  20
HETATM   20  N   UNL     1       6.627  27.838  56.052  1.00  0.00    -0.320 N 
HETATM   21  C   UNL     1       6.213  26.554  56.296  1.00  0.00     0.256 C 
HETATM   22  O   UNL     1       5.128  26.364  56.844  1.00  0.00    -0.267 OA
HETATM   23  H   UNL     1       5.936  28.508  56.365  1.00  0.00     0.169 HD
BRANCH  21  24
HETATM   24  C   UNL     1       7.031  25.379  55.970  1.00  0.00     0.032 A 
HETATM   25  C   UNL     1       7.991  24.898  56.860  1.00  0.00     0.020 A 
HETATM   26  C   UNL     1       8.797  23.821  56.478  1.00  0.00     0.038 A 
HETATM   27  C   UNL     1       8.674  23.251  55.204  1.00  0.00     0.068 A 
HETATM   28  C   UNL     1       7.730  23.761  54.310  1.00  0.00     0.038 A 
HETATM   29  C   UNL     1       6.913  24.829  54.690  1.00  0.00     0.020 A 
BRANCH  27  30
HETATM   30  O   UNL     1       9.529  22.212  54.956  1.00  0.00    -0.356 OA
HETATM   31  C   UNL     1       9.249  20.983  55.616  1.00  0.00     0.210 C 
ENDBRANCH  27  30
ENDBRANCH  21  24
ENDBRANCH   6  20
TORSDOF 5
ENDMDL
MODEL 8
REMARK VINA RESULT:      -7.7      3.579      5.843
REMARK  5 active torsions:
REMARK  status: ('A' for Active; 'I' for Inactive)
REMARK    1  A    between atoms: C_2  and  N_3 
REMARK       I    between atoms: N_3  and  C_4 
REMARK       I    between atoms: C_4  and  N_5 
REMARK    2  A    between atoms: C_7  and  C_8 
REMARK    3  A    between atoms: C_13  and  N_14 
REMARK       I    between atoms: N_14  and  C_15 
REMARK    4  A    between atoms: C_15  and  C_16 
REMARK    5  A    between atoms: C_19  and  O_20 
ROOT
HETATM    1  C   UNL     1       6.218  28.389  55.032  1.00  0.00     0.088 A 
HETATM    2  N   UNL     1       7.280  29.105  55.426  1.00  0.00    -0.177 NA
HETATM    3  N   UNL     1       8.292  28.611  54.705  1.00  0.00    -0.287 N 
HETATM    4  H   UNL     1       9.224  28.982  54.865  1.00  0.00     0.188 HD
HETATM    5  C   UNL     1       7.914  27.637  53.826  1.00  0.00     0.141 A 
HETATM    6  C   UNL     1       6.558  27.486  53.971  1.00  0.00     0.079 A 
ENDROOT
BRANCH   1   7
HETATM    7  C   UNL     1       4.871  28.543  55.707  1.00  0.00     0.060 C 
HETATM    8  C   UNL     1       3.735  28.992  54.772  1.00  0.00     0.138 C 
HETATM    9  N   UNL     1       3.726  30.433  54.473  1.00  0.00    -0.334 N 
HETATM   10  C   UNL     1       3.124  30.962  53.334  1.00  0.00     0.318 C 
HETATM   11  C   UNL     1       3.857  31.324  55.619  1.00  0.00     0.127 C 
HETATM   12  N   UNL     1       3.030  30.078  52.289  1.00  0.00    -0.339 N 
HETATM   13  O   UNL     1       2.710  32.115  53.273  1.00  0.00    -0.247 OA
HETATM   14  H   UNL     1       3.844  29.481  52.234  1.00  0.00     0.164 HD
HETATM   15  C   UNL     1       5.026  30.942  56.519  1.00  0.00     0.021 C 
HETATM   16  C   UNL     1       4.953  29.473  56.929  1.00  0.00     0.014 C 
BRANCH  12  17
HETATM   17  C   UNL     1       2.421  30.402  51.006  1.00  0.00     0.078 C 
HETATM   18  C   UNL     1       1.655  29.217  50.422  1.00  0.00     0.032 C 
HETATM   19  C   UNL     1       3.411  30.984  49.998  1.00  0.00     0.032 C 
ENDBRANCH  12  17
ENDBRANCH   1   7
BRANCH   6  20
HETATM   20  N   UNL     1       5.672  26.655  53.314  1.00  0.00    -0.320 N 
HETATM   21  C   UNL     1       5.605  25.293  53.166  1.00  0.00     0.256 C 
HETATM   22  O   UNL     1       4.646  24.796  52.577  1.00  0.00    -0.267 OA
HETATM   23  H   UNL     1       4.876  27.106  52.880  1.00  0.00     0.169 HD
BRANCH  21  24
HETATM   24  C   UNL     1       6.614  24.383  53.721  1.00  0.00     0.032 A 
HETATM   25  C   UNL     1       7.475  23.666  52.889  1.00  0.00     0.020 A 
HETATM   26  C   UNL     1       8.373  22.757  53.457  1.00  0.00     0.038 A 
HETATM   27  C   UNL     1       8.388  22.535  54.841  1.00  0.00     0.068 A 
HETATM   28  C   UNL     1       7.500  23.236  55.660  1.00  0.00     0.038 A 
HETATM   29  C   UNL     1       6.609  24.155  55.101  1.00  0.00     0.020 A 
BRANCH  27  30
HETATM   30  O   UNL     1       9.307  21.613  55.263  1.00  0.00    -0.356 OA
HETATM   31  C   UNL     1       8.901  20.739  56.310  1.00  0.00     0.210 C 
ENDBRANCH  27  30
ENDBRANCH  21  24
ENDBRANCH   6  20
TORSDOF 5
ENDMDL
MODEL 9
REMARK VINA RESULT:      -7.7      2.631      3.570
REMARK  5 active torsions:
REMARK  status: ('A' for Active; 'I' for Inactive)
REMARK    1  A    between atoms: C_2  and  N_3 
REMARK       I    between atoms: N_3  and  C_4 
REMARK       I    between atoms: C_4  and  N_5 
REMARK    2  A    between atoms: C_7  and  C_8 
REMARK    3  A    between atoms: C_13  and  N_14 
REMARK       I    between atoms: N_14  and  C_15 
REMARK    4  A    between atoms: C_15  and  C_16 
REMARK    5  A    between atoms: C_19  and  O_20 
ROOT
HETATM    1  C   UNL     1       7.123  28.194  55.434  1.00  0.00     0.088 A 
HETATM    2  N   UNL     1       8.260  28.896  55.337  1.00  0.00    -0.177 NA
HETATM    3  N   UNL     1       8.735  28.583  54.127  1.00  0.00    -0.287 N 
HETATM    4  H   UNL     1       9.628  28.975  53.844  1.00  0.00     0.188 HD
HETATM    5  C   UNL     1       7.923  27.743  53.421  1.00  0.00     0.141 A 
HETATM    6  C   UNL     1       6.833  27.494  54.217  1.00  0.00     0.079 A 
ENDROOT
BRANCH   1   7
HETATM    7  C   UNL     1       6.326  28.161  56.721  1.00  0.00     0.060 C 
HETATM    8  C   UNL     1       5.392  29.366  56.927  1.00  0.00     0.138 C 
HETATM    9  N   UNL     1       6.067  30.585  57.401  1.00  0.00    -0.334 N 
HETATM   10  C   UNL     1       5.543  31.860  57.206  1.00  0.00     0.318 C 
HETATM   11  C   UNL     1       6.975  30.415  58.529  1.00  0.00     0.127 C 
HETATM   12  N   UNL     1       4.698  31.958  56.129  1.00  0.00    -0.339 N 
HETATM   13  O   UNL     1       5.810  32.810  57.935  1.00  0.00    -0.247 OA
HETATM   14  H   UNL     1       5.012  31.386  55.357  1.00  0.00     0.164 HD
HETATM   15  C   UNL     1       7.960  29.273  58.312  1.00  0.00     0.021 C 
HETATM   16  C   UNL     1       7.237  27.979  57.947  1.00  0.00     0.014 C 
BRANCH  12  17
HETATM   17  C   UNL     1       4.016  33.187  55.743  1.00  0.00     0.078 C 
HETATM   18  C   UNL     1       2.598  32.922  55.247  1.00  0.00     0.032 C 
HETATM   19  C   UNL     1       4.813  34.030  54.748  1.00  0.00     0.032 C 
ENDBRANCH  12  17
ENDBRANCH   1   7
BRANCH   6  20
HETATM   20  N   UNL     1       5.706  26.730  53.982  1.00  0.00    -0.320 N 
HETATM   21  C   UNL     1       5.482  25.377  53.971  1.00  0.00     0.256 C 
HETATM   22  O   UNL     1       4.338  24.956  53.801  1.00  0.00    -0.267 OA
HETATM   23  H   UNL     1       4.846  27.241  53.828  1.00  0.00     0.169 HD
BRANCH  21  24
HETATM   24  C   UNL     1       6.548  24.394  54.197  1.00  0.00     0.032 A 
HETATM   25  C   UNL     1       7.136  23.709  53.132  1.00  0.00     0.020 A 
HETATM   26  C   UNL     1       8.097  22.729  53.398  1.00  0.00     0.038 A 
HETATM   27  C   UNL     1       8.443  22.405  54.717  1.00  0.00     0.068 A 
HETATM   28  C   UNL     1       7.826  23.076  55.775  1.00  0.00     0.038 A 
HETATM   29  C   UNL     1       6.874  24.066  55.516  1.00  0.00     0.020 A 
BRANCH  27  30
HETATM   30  O   UNL     1       9.388  21.422  54.836  1.00  0.00    -0.356 OA
HETATM   31  C   UNL     1       9.226  20.508  55.913  1.00  0.00     0.210 C 
ENDBRANCH  27  30
ENDBRANCH  21  24
ENDBRANCH   6  20
TORSDOF 5
ENDMDL
MODEL 10
REMARK VINA RESULT:      -7.6      4.804      7.707
REMARK  5 active torsions:
REMARK  status: ('A' for Active; 'I' for Inactive)
REMARK    1  A    between atoms: C_2  and  N_3 
REMARK       I    between atoms: N_3  and  C_4 
REMARK       I    between atoms: C_4  and  N_5 
REMARK    2  A    between atoms: C_7  and  C_8 
REMARK    3  A    between atoms: C_13  and  N_14 
REMARK       I    between atoms: N_14  and  C_15 
REMARK    4  A    between atoms: C_15  and  C_16 
REMARK    5  A    between atoms: C_19  and  O_20 
ROOT
HETATM    1  C   UNL     1       5.851  27.324  53.423  1.00  0.00     0.088 A 
HETATM    2  N   UNL     1       5.096  26.286  53.805  1.00  0.00    -0.177 NA
HETATM    3  N   UNL     1       3.893  26.548  53.281  1.00  0.00    -0.287 N 
HETATM    4  H   UNL     1       3.132  25.905  53.477  1.00  0.00     0.188 HD
HETATM    5  C   UNL     1       3.858  27.691  52.536  1.00  0.00     0.141 A 
HETATM    6  C   UNL     1       5.127  28.212  52.562  1.00  0.00     0.079 A 
ENDROOT
BRANCH   1   7
HETATM    7  C   UNL     1       7.272  27.488  53.921  1.00  0.00     0.060 C 
HETATM    8  C   UNL     1       8.002  26.167  54.219  1.00  0.00     0.138 C 
HETATM    9  N   UNL     1       7.645  25.551  55.507  1.00  0.00    -0.334 N 
HETATM   10  C   UNL     1       7.800  24.191  55.760  1.00  0.00     0.318 C 
HETATM   11  C   UNL     1       7.653  26.438  56.664  1.00  0.00     0.127 C 
HETATM   12  N   UNL     1       7.783  23.407  54.634  1.00  0.00    -0.339 N 
HETATM   13  O   UNL     1       7.946  23.734  56.889  1.00  0.00    -0.247 OA
HETATM   14  H   UNL     1       7.119  23.751  53.953  1.00  0.00     0.164 HD
HETATM   15  C   UNL     1       6.869  27.721  56.415  1.00  0.00     0.021 C 
HETATM   16  C   UNL     1       7.340  28.421  55.143  1.00  0.00     0.014 C 
BRANCH  12  17
HETATM   17  C   UNL     1       7.948  21.959  54.651  1.00  0.00     0.078 C 
HETATM   18  C   UNL     1       9.302  21.546  55.221  1.00  0.00     0.032 C 
HETATM   19  C   UNL     1       7.685  21.307  53.294  1.00  0.00     0.032 C 
ENDBRANCH  12  17
ENDBRANCH   1   7
BRANCH   6  20
HETATM   20  N   UNL     1       5.647  29.341  51.958  1.00  0.00    -0.320 N 
HETATM   21  C   UNL     1       5.583  29.825  50.676  1.00  0.00     0.256 C 
HETATM   22  O   UNL     1       6.087  30.918  50.418  1.00  0.00    -0.267 OA
HETATM   23  H   UNL     1       6.142  29.983  52.563  1.00  0.00     0.169 HD
BRANCH  21  24
HETATM   24  C   UNL     1       4.898  29.113  49.591  1.00  0.00     0.032 A 
HETATM   25  C   UNL     1       3.528  29.268  49.377  1.00  0.00     0.020 A 
HETATM   26  C   UNL     1       2.904  28.516  48.378  1.00  0.00     0.038 A 
HETATM   27  C   UNL     1       3.630  27.587  47.621  1.00  0.00     0.068 A 
HETATM   28  C   UNL     1       4.995  27.418  47.864  1.00  0.00     0.038 A 
HETATM   29  C   UNL     1       5.628  28.176  48.853  1.00  0.00     0.020 A 
BRANCH  27  30
HETATM   30  O   UNL     1       2.896  26.911  46.684  1.00  0.00    -0.356 OA
HETATM   31  C   UNL     1       2.679  25.525  46.922  1.00  0.00     0.210 C 
ENDBRANCH  27  30
ENDBRANCH  21  24
ENDBRANCH   6  20
TORSDOF 5
ENDMDL
