MODEL 1
REMARK VINA RESULT:      -8.6      0.000      0.000
REMARK  3 active torsions:
REMARK  status: ('A' for Active; 'I' for Inactive)
REMARK    1  A    between atoms: C_3  and  N_4 
REMARK       I    between atoms: N_4  and  C_5 
REMARK    2  A    between atoms: C_5  and  C_6 
REMARK    3  A    between atoms: C_6  and  C_7 
ROOT
HETATM    1  C   UNL     1       6.754  26.542  56.327  1.00  0.00     0.286 C 
HETATM    2  N   UNL     1       7.649  27.120  55.233  1.00  0.00    -0.056 N 
HETATM    3  H   UNL     1       7.788  28.114  55.455  1.00  0.00     0.278 HD
HETATM    4  H   UNL     1       8.599  26.706  55.349  1.00  0.00     0.278 HD
HETATM    5  C   UNL     1       7.178  27.017  53.812  1.00  0.00     0.209 C 
HETATM    6  C   UNL     1       5.706  27.482  53.721  1.00  0.00     0.115 C 
HETATM    7  N   UNL     1       4.856  26.887  54.749  1.00  0.00    -0.353 N 
HETATM    8  C   UNL     1       5.255  26.736  56.053  1.00  0.00     0.249 C 
HETATM    9  O   UNL     1       4.417  26.645  56.944  1.00  0.00    -0.271 OA
HETATM   10  C   UNL     1       7.421  25.612  53.261  1.00  0.00     0.035 C 
HETATM   11  C   UNL     1       6.858  25.467  51.850  1.00  0.00     0.002 C 
HETATM   12  C   UNL     1       5.375  25.820  51.815  1.00  0.00     0.002 C 
HETATM   13  C   UNL     1       5.127  27.240  52.321  1.00  0.00     0.027 C 
HETATM   14  H   UNL     1       3.850  27.037  54.674  1.00  0.00     0.163 HD
ENDROOT
BRANCH   1  15
HETATM   15  C   UNL     1       6.985  25.049  56.612  1.00  0.00     0.146 C 
BRANCH  15  16
HETATM   16  C   UNL     1       8.396  24.716  57.000  1.00  0.00     0.224 C 
HETATM   17  N   UNL     1       9.046  23.635  56.501  1.00  0.00    -0.325 N 
HETATM   18  H   UNL     1      10.005  23.569  56.846  1.00  0.00     0.169 HD
HETATM   19  O   UNL     1       9.006  25.486  57.753  1.00  0.00    -0.273 OA
BRANCH  17  20
HETATM   20  C   UNL     1       8.715  22.608  55.589  1.00  0.00     0.073 A 
HETATM   21  C   UNL     1       8.729  22.693  54.198  1.00  0.00     0.033 A 
HETATM   22  C   UNL     1       8.390  21.576  53.418  1.00  0.00     0.002 A 
HETATM   23  C   UNL     1       8.032  20.369  54.016  1.00  0.00     0.003 A 
HETATM   24  C   UNL     1       8.006  20.271  55.402  1.00  0.00     0.044 A 
HETATM   25  C   UNL     1       8.342  21.382  56.168  1.00  0.00     0.143 A 
HETATM   26  F   UNL     1       8.322  21.274  57.506  1.00  0.00    -0.204 F 
ENDBRANCH  17  20
ENDBRANCH  15  16
ENDBRANCH   1  15
TORSDOF 3
ENDMDL
MODEL 2
REMARK VINA RESULT:      -8.5      3.257      6.316
REMARK  3 active torsions:
REMARK  status: ('A' for Active; 'I' for Inactive)
REMARK    1  A    between atoms: C_3  and  N_4 
REMARK       I    between atoms: N_4  and  C_5 
REMARK    2  A    between atoms: C_5  and  C_6 
REMARK    3  A    between atoms: C_6  and  C_7 
ROOT
HETATM    1  C   UNL     1       6.928  25.886  55.761  1.00  0.00     0.286 C 
HETATM    2  N   UNL     1       6.159  24.690  55.205  1.00  0.00    -0.056 N 
HETATM    3  H   UNL     1       5.387  24.502  55.858  1.00  0.00     0.278 HD
HETATM    4  H   UNL     1       5.676  25.000  54.335  1.00  0.00     0.278 HD
HETATM    5  C   UNL     1       6.911  23.411  54.984  1.00  0.00     0.209 C 
HETATM    6  C   UNL     1       7.748  23.080  56.243  1.00  0.00     0.115 C 
HETATM    7  N   UNL     1       8.510  24.225  56.736  1.00  0.00    -0.353 N 
HETATM    8  C   UNL     1       7.996  25.496  56.794  1.00  0.00     0.249 C 
HETATM    9  O   UNL     1       8.470  26.314  57.575  1.00  0.00    -0.271 OA
HETATM   10  C   UNL     1       7.728  23.477  53.695  1.00  0.00     0.035 C 
HETATM   11  C   UNL     1       8.573  22.219  53.510  1.00  0.00     0.002 C 
HETATM   12  C   UNL     1       9.474  21.985  54.718  1.00  0.00     0.002 C 
HETATM   13  C   UNL     1       8.661  21.872  56.007  1.00  0.00     0.027 C 
HETATM   14  H   UNL     1       9.188  24.055  57.478  1.00  0.00     0.163 HD
ENDROOT
BRANCH   1  15
HETATM   15  C   UNL     1       7.612  26.753  54.690  1.00  0.00     0.146 C 
BRANCH  15  16
HETATM   16  C   UNL     1       6.938  28.073  54.456  1.00  0.00     0.224 C 
HETATM   17  N   UNL     1       7.282  29.191  55.142  1.00  0.00    -0.325 N 
HETATM   18  H   UNL     1       6.747  30.007  54.843  1.00  0.00     0.169 HD
HETATM   19  O   UNL     1       6.083  28.158  53.564  1.00  0.00    -0.273 OA
BRANCH  17  20
HETATM   20  C   UNL     1       8.233  29.491  56.143  1.00  0.00     0.073 A 
HETATM   21  C   UNL     1       7.975  29.751  57.487  1.00  0.00     0.033 A 
HETATM   22  C   UNL     1       9.032  30.017  58.372  1.00  0.00     0.002 A 
HETATM   23  C   UNL     1      10.352  30.029  57.925  1.00  0.00     0.003 A 
HETATM   24  C   UNL     1      10.625  29.778  56.586  1.00  0.00     0.044 A 
HETATM   25  C   UNL     1       9.573  29.517  55.715  1.00  0.00     0.143 A 
HETATM   26  F   UNL     1       9.849  29.268  54.425  1.00  0.00    -0.204 F 
ENDBRANCH  17  20
ENDBRANCH  15  16
ENDBRANCH   1  15
TORSDOF 3
ENDMDL
MODEL 3
REMARK VINA RESULT:      -8.3      2.219      2.938
REMARK  3 active torsions:
REMARK  status: ('A' for Active; 'I' for Inactive)
REMARK    1  A    between atoms: C_3  and  N_4 
REMARK       I    between atoms: N_4  and  C_5 
REMARK    2  A    between atoms: C_5  and  C_6 
REMARK    3  A    between atoms: C_6  and  C_7 
ROOT
HETATM    1  C   UNL     1       6.753  26.043  54.502  1.00  0.00     0.286 C 
HETATM    2  N   UNL     1       7.179  27.255  53.675  1.00  0.00    -0.056 N 
HETATM    3  H   UNL     1       7.830  27.799  54.256  1.00  0.00     0.278 HD
HETATM    4  H   UNL     1       7.777  26.909  52.893  1.00  0.00     0.278 HD
HETATM    5  C   UNL     1       6.108  28.178  53.176  1.00  0.00     0.209 C 
HETATM    6  C   UNL     1       5.146  28.527  54.335  1.00  0.00     0.115 C 
HETATM    7  N   UNL     1       4.715  27.352  55.089  1.00  0.00    -0.353 N 
HETATM    8  C   UNL     1       5.564  26.330  55.432  1.00  0.00     0.249 C 
HETATM    9  O   UNL     1       5.302  25.608  56.387  1.00  0.00    -0.271 OA
HETATM   10  C   UNL     1       5.414  27.590  51.948  1.00  0.00     0.035 C 
HETATM   11  C   UNL     1       4.258  28.475  51.490  1.00  0.00     0.002 C 
HETATM   12  C   UNL     1       3.263  28.704  52.623  1.00  0.00     0.002 C 
HETATM   13  C   UNL     1       3.940  29.334  53.840  1.00  0.00     0.027 C 
HETATM   14  H   UNL     1       3.977  27.480  55.782  1.00  0.00     0.163 HD
ENDROOT
BRANCH   1  15
HETATM   15  C   UNL     1       6.402  24.799  53.670  1.00  0.00     0.146 C 
BRANCH  15  16
HETATM   16  C   UNL     1       7.512  24.337  52.771  1.00  0.00     0.224 C 
HETATM   17  N   UNL     1       8.309  23.287  53.090  1.00  0.00    -0.325 N 
HETATM   18  H   UNL     1       8.995  23.088  52.360  1.00  0.00     0.169 HD
HETATM   19  O   UNL     1       7.665  24.894  51.675  1.00  0.00    -0.273 OA
BRANCH  17  20
HETATM   20  C   UNL     1       8.382  22.387  54.177  1.00  0.00     0.073 A 
HETATM   21  C   UNL     1       8.468  22.717  55.528  1.00  0.00     0.033 A 
HETATM   22  C   UNL     1       8.516  21.707  56.501  1.00  0.00     0.002 A 
HETATM   23  C   UNL     1       8.481  20.363  56.137  1.00  0.00     0.003 A 
HETATM   24  C   UNL     1       8.404  20.017  54.794  1.00  0.00     0.044 A 
HETATM   25  C   UNL     1       8.358  21.024  53.835  1.00  0.00     0.143 A 
HETATM   26  F   UNL     1       8.275  20.679  52.540  1.00  0.00    -0.204 F 
ENDBRANCH  17  20
ENDBRANCH  15  16
ENDBRANCH   1  15
TORSDOF 3
ENDMDL
MODEL 4
REMARK VINA RESULT:      -8.0      1.885      2.988
REMARK  3 active torsions:
REMARK  status: ('A' for Active; 'I' for Inactive)
REMARK    1  A    between atoms: C_3  and  N_4 
REMARK       I    between atoms: N_4  and  C_5 
REMARK    2  A    between atoms: C_5  and  C_6 
REMARK    3  A    between atoms: C_6  and  C_7 
ROOT
HETATM    1  C   UNL     1       5.826  25.771  55.553  1.00  0.00     0.286 C 
HETATM    2  N   UNL     1       5.293  26.280  56.891  1.00  0.00    -0.056 N 
HETATM    3  H   UNL     1       4.382  25.825  57.041  1.00  0.00     0.278 HD
HETATM    4  H   UNL     1       5.894  25.881  57.644  1.00  0.00     0.278 HD
HETATM    5  C   UNL     1       5.115  27.759  57.061  1.00  0.00     0.209 C 
HETATM    6  C   UNL     1       4.366  28.334  55.836  1.00  0.00     0.115 C 
HETATM    7  N   UNL     1       4.916  27.870  54.564  1.00  0.00    -0.353 N 
HETATM    8  C   UNL     1       5.312  26.574  54.349  1.00  0.00     0.249 C 
HETATM    9  O   UNL     1       5.356  26.128  53.207  1.00  0.00    -0.271 OA
HETATM   10  C   UNL     1       6.455  28.438  57.344  1.00  0.00     0.035 C 
HETATM   11  C   UNL     1       6.301  29.954  57.423  1.00  0.00     0.002 C 
HETATM   12  C   UNL     1       5.667  30.505  56.150  1.00  0.00     0.002 C 
HETATM   13  C   UNL     1       4.305  29.865  55.883  1.00  0.00     0.027 C 
HETATM   14  H   UNL     1       4.566  28.307  53.712  1.00  0.00     0.163 HD
ENDROOT
BRANCH   1  15
HETATM   15  C   UNL     1       7.361  25.724  55.459  1.00  0.00     0.146 C 
BRANCH  15  16
HETATM   16  C   UNL     1       8.011  24.923  56.549  1.00  0.00     0.224 C 
HETATM   17  N   UNL     1       8.331  23.614  56.389  1.00  0.00    -0.325 N 
HETATM   18  H   UNL     1       8.791  23.227  57.215  1.00  0.00     0.169 HD
HETATM   19  O   UNL     1       8.321  25.490  57.605  1.00  0.00    -0.273 OA
BRANCH  17  20
HETATM   20  C   UNL     1       8.210  22.682  55.335  1.00  0.00     0.073 A 
HETATM   21  C   UNL     1       8.119  22.969  53.974  1.00  0.00     0.033 A 
HETATM   22  C   UNL     1       8.021  21.930  53.037  1.00  0.00     0.002 A 
HETATM   23  C   UNL     1       8.010  20.597  53.446  1.00  0.00     0.003 A 
HETATM   24  C   UNL     1       8.093  20.294  54.799  1.00  0.00     0.044 A 
HETATM   25  C   UNL     1       8.188  21.331  55.723  1.00  0.00     0.143 A 
HETATM   26  F   UNL     1       8.276  21.027  57.028  1.00  0.00    -0.204 F 
ENDBRANCH  17  20
ENDBRANCH  15  16
ENDBRANCH   1  15
TORSDOF 3
ENDMDL
MODEL 5
REMARK VINA RESULT:      -7.9      3.777      6.231
REMARK  3 active torsions:
REMARK  status: ('A' for Active; 'I' for Inactive)
REMARK    1  A    between atoms: C_3  and  N_4 
REMARK       I    between atoms: N_4  and  C_5 
REMARK    2  A    between atoms: C_5  and  C_6 
REMARK    3  A    between atoms: C_6  and  C_7 
ROOT
HETATM    1  C   UNL     1       6.219  26.159  56.633  1.00  0.00     0.286 C 
HETATM    2  N   UNL     1       5.248  25.530  55.636  1.00  0.00    -0.056 N 
HETATM    3  H   UNL     1       4.667  24.866  56.164  1.00  0.00     0.278 HD
HETATM    4  H   UNL     1       4.573  26.268  55.343  1.00  0.00     0.278 HD
HETATM    5  C   UNL     1       5.823  24.814  54.450  1.00  0.00     0.209 C 
HETATM    6  C   UNL     1       6.940  23.853  54.919  1.00  0.00     0.115 C 
HETATM    7  N   UNL     1       7.884  24.484  55.838  1.00  0.00    -0.353 N 
HETATM    8  C   UNL     1       7.495  25.330  56.846  1.00  0.00     0.249 C 
HETATM    9  O   UNL     1       8.215  25.491  57.825  1.00  0.00    -0.271 OA
HETATM   10  C   UNL     1       6.269  25.810  53.379  1.00  0.00     0.035 C 
HETATM   11  C   UNL     1       6.943  25.098  52.210  1.00  0.00     0.002 C 
HETATM   12  C   UNL     1       8.116  24.249  52.690  1.00  0.00     0.002 C 
HETATM   13  C   UNL     1       7.671  23.220  53.729  1.00  0.00     0.027 C 
HETATM   14  H   UNL     1       8.723  23.959  56.086  1.00  0.00     0.163 HD
ENDROOT
BRANCH   1  15
HETATM   15  C   UNL     1       6.650  27.592  56.279  1.00  0.00     0.146 C 
BRANCH  15  16
HETATM   16  C   UNL     1       6.211  28.623  57.278  1.00  0.00     0.224 C 
HETATM   17  N   UNL     1       7.078  29.510  57.827  1.00  0.00    -0.325 N 
HETATM   18  H   UNL     1       6.613  30.158  58.465  1.00  0.00     0.169 HD
HETATM   19  O   UNL     1       5.009  28.705  57.563  1.00  0.00    -0.273 OA
BRANCH  17  20
HETATM   20  C   UNL     1       8.460  29.766  57.690  1.00  0.00     0.073 A 
HETATM   21  C   UNL     1       9.387  28.991  56.996  1.00  0.00     0.033 A 
HETATM   22  C   UNL     1      10.732  29.385  56.932  1.00  0.00     0.002 A 
HETATM   23  C   UNL     1      11.166  30.551  57.560  1.00  0.00     0.003 A 
HETATM   24  C   UNL     1      10.256  31.331  58.262  1.00  0.00     0.044 A 
HETATM   25  C   UNL     1       8.924  30.934  58.322  1.00  0.00     0.143 A 
HETATM   26  F   UNL     1       8.051  31.699  58.997  1.00  0.00    -0.204 F 
ENDBRANCH  17  20
ENDBRANCH  15  16
ENDBRANCH   1  15
TORSDOF 3
ENDMDL
MODEL 6
REMARK VINA RESULT:      -7.9      3.088      5.141
REMARK  3 active torsions:
REMARK  status: ('A' for Active; 'I' for Inactive)
REMARK    1  A    between atoms: C_3  and  N_4 
REMARK       I    between atoms: N_4  and  C_5 
REMARK    2  A    between atoms: C_5  and  C_6 
REMARK    3  A    between atoms: C_6  and  C_7 
ROOT
HETATM    1  C   UNL     1       6.166  28.012  56.467  1.00  0.00     0.286 C 
HETATM    2  N   UNL     1       7.489  27.358  56.865  1.00  0.00    -0.056 N 
HETATM    3  H   UNL     1       7.269  26.652  57.580  1.00  0.00     0.278 HD
HETATM    4  H   UNL     1       7.819  26.792  56.053  1.00  0.00     0.278 HD
HETATM    5  C   UNL     1       8.579  28.242  57.393  1.00  0.00     0.209 C 
HETATM    6  C   UNL     1       8.001  29.183  58.477  1.00  0.00     0.115 C 
HETATM    7  N   UNL     1       6.759  29.831  58.063  1.00  0.00    -0.353 N 
HETATM    8  C   UNL     1       5.763  29.176  57.384  1.00  0.00     0.249 C 
HETATM    9  O   UNL     1       4.611  29.593  57.431  1.00  0.00    -0.271 OA
HETATM   10  C   UNL     1       9.288  28.971  56.252  1.00  0.00     0.035 C 
HETATM   11  C   UNL     1      10.334  29.945  56.785  1.00  0.00     0.002 C 
HETATM   12  C   UNL     1       9.710  30.936  57.762  1.00  0.00     0.002 C 
HETATM   13  C   UNL     1       9.037  30.218  58.931  1.00  0.00     0.027 C 
HETATM   14  H   UNL     1       6.388  30.567  58.664  1.00  0.00     0.163 HD
ENDROOT
BRANCH   1  15
HETATM   15  C   UNL     1       6.124  28.525  55.018  1.00  0.00     0.146 C 
BRANCH  15  16
HETATM   16  C   UNL     1       4.950  28.024  54.230  1.00  0.00     0.224 C 
HETATM   17  N   UNL     1       5.003  26.880  53.504  1.00  0.00    -0.325 N 
HETATM   18  H   UNL     1       4.112  26.668  53.052  1.00  0.00     0.169 HD
HETATM   19  O   UNL     1       3.879  28.643  54.293  1.00  0.00    -0.273 OA
BRANCH  17  20
HETATM   20  C   UNL     1       5.991  25.898  53.265  1.00  0.00     0.073 A 
HETATM   21  C   UNL     1       6.836  25.819  52.160  1.00  0.00     0.033 A 
HETATM   22  C   UNL     1       7.786  24.790  52.069  1.00  0.00     0.002 A 
HETATM   23  C   UNL     1       7.901  23.832  53.074  1.00  0.00     0.003 A 
HETATM   24  C   UNL     1       7.060  23.893  54.179  1.00  0.00     0.044 A 
HETATM   25  C   UNL     1       6.120  24.915  54.262  1.00  0.00     0.143 A 
HETATM   26  F   UNL     1       5.318  24.970  55.338  1.00  0.00    -0.204 F 
ENDBRANCH  17  20
ENDBRANCH  15  16
ENDBRANCH   1  15
TORSDOF 3
ENDMDL
MODEL 7
REMARK VINA RESULT:      -7.9      2.319      3.653
REMARK  3 active torsions:
REMARK  status: ('A' for Active; 'I' for Inactive)
REMARK    1  A    between atoms: C_3  and  N_4 
REMARK       I    between atoms: N_4  and  C_5 
REMARK    2  A    between atoms: C_5  and  C_6 
REMARK    3  A    between atoms: C_6  and  C_7 
ROOT
HETATM    1  C   UNL     1       7.601  26.248  55.822  1.00  0.00     0.286 C 
HETATM    2  N   UNL     1       7.469  27.446  54.884  1.00  0.00    -0.056 N 
HETATM    3  H   UNL     1       8.421  27.788  54.702  1.00  0.00     0.278 HD
HETATM    4  H   UNL     1       7.154  27.088  53.957  1.00  0.00     0.278 HD
HETATM    5  C   UNL     1       6.630  28.604  55.336  1.00  0.00     0.209 C 
HETATM    6  C   UNL     1       7.018  28.989  56.783  1.00  0.00     0.115 C 
HETATM    7  N   UNL     1       7.099  27.835  57.676  1.00  0.00    -0.353 N 
HETATM    8  C   UNL     1       7.663  26.641  57.306  1.00  0.00     0.249 C 
HETATM    9  O   UNL     1       8.093  25.874  58.161  1.00  0.00    -0.271 OA
HETATM   10  C   UNL     1       5.143  28.302  55.152  1.00  0.00     0.035 C 
HETATM   11  C   UNL     1       4.277  29.434  55.698  1.00  0.00     0.002 C 
HETATM   12  C   UNL     1       4.601  29.711  57.162  1.00  0.00     0.002 C 
HETATM   13  C   UNL     1       6.078  30.059  57.350  1.00  0.00     0.027 C 
HETATM   14  H   UNL     1       7.216  28.018  58.673  1.00  0.00     0.163 HD
ENDROOT
BRANCH   1  15
HETATM   15  C   UNL     1       6.491  25.195  55.666  1.00  0.00     0.146 C 
BRANCH  15  16
HETATM   16  C   UNL     1       6.399  24.609  54.288  1.00  0.00     0.224 C 
HETATM   17  N   UNL     1       6.904  23.386  53.989  1.00  0.00    -0.325 N 
HETATM   18  H   UNL     1       6.733  23.127  53.016  1.00  0.00     0.169 HD
HETATM   19  O   UNL     1       5.789  25.236  53.411  1.00  0.00    -0.273 OA
BRANCH  17  20
HETATM   20  C   UNL     1       7.572  22.379  54.720  1.00  0.00     0.073 A 
HETATM   21  C   UNL     1       7.824  22.373  56.091  1.00  0.00     0.033 A 
HETATM   22  C   UNL     1       8.487  21.288  56.683  1.00  0.00     0.002 A 
HETATM   23  C   UNL     1       8.907  20.202  55.917  1.00  0.00     0.003 A 
HETATM   24  C   UNL     1       8.669  20.196  54.548  1.00  0.00     0.044 A 
HETATM   25  C   UNL     1       8.013  21.277  53.968  1.00  0.00     0.143 A 
HETATM   26  F   UNL     1       7.781  21.257  52.645  1.00  0.00    -0.204 F 
ENDBRANCH  17  20
ENDBRANCH  15  16
ENDBRANCH   1  15
TORSDOF 3
ENDMDL
MODEL 8
REMARK VINA RESULT:      -7.8      2.642      3.898
REMARK  3 active torsions:
REMARK  status: ('A' for Active; 'I' for Inactive)
REMARK    1  A    between atoms: C_3  and  N_4 
REMARK       I    between atoms: N_4  and  C_5 
REMARK    2  A    between atoms: C_5  and  C_6 
REMARK    3  A    between atoms: C_6  and  C_7 
ROOT
HETATM    1  C   UNL     1       6.182  26.336  54.072  1.00  0.00     0.286 C 
HETATM    2  N   UNL     1       5.710  26.227  55.521  1.00  0.00    -0.056 N 
HETATM    3  H   UNL     1       4.682  26.185  55.497  1.00  0.00     0.278 HD
HETATM    4  H   UNL     1       5.987  25.286  55.874  1.00  0.00     0.278 HD
HETATM    5  C   UNL     1       6.115  27.310  56.476  1.00  0.00     0.209 C 
HETATM    6  C   UNL     1       5.841  28.692  55.837  1.00  0.00     0.115 C 
HETATM    7  N   UNL     1       6.337  28.792  54.467  1.00  0.00    -0.353 N 
HETATM    8  C   UNL     1       6.210  27.780  53.549  1.00  0.00     0.249 C 
HETATM    9  O   UNL     1       6.235  28.033  52.349  1.00  0.00    -0.271 OA
HETATM   10  C   UNL     1       7.558  27.114  56.938  1.00  0.00     0.035 C 
HETATM   11  C   UNL     1       8.012  28.263  57.835  1.00  0.00     0.002 C 
HETATM   12  C   UNL     1       7.840  29.605  57.131  1.00  0.00     0.002 C 
HETATM   13  C   UNL     1       6.390  29.830  56.706  1.00  0.00     0.027 C 
HETATM   14  H   UNL     1       6.317  29.711  54.024  1.00  0.00     0.163 HD
ENDROOT
BRANCH   1  15
HETATM   15  C   UNL     1       7.566  25.720  53.809  1.00  0.00     0.146 C 
BRANCH  15  16
HETATM   16  C   UNL     1       7.576  24.693  52.716  1.00  0.00     0.224 C 
HETATM   17  N   UNL     1       7.754  23.372  52.968  1.00  0.00    -0.325 N 
HETATM   18  H   UNL     1       7.706  22.807  52.118  1.00  0.00     0.169 HD
HETATM   19  O   UNL     1       7.352  25.055  51.553  1.00  0.00    -0.273 OA
BRANCH  17  20
HETATM   20  C   UNL     1       7.951  22.599  54.134  1.00  0.00     0.073 A 
HETATM   21  C   UNL     1       8.074  23.075  55.438  1.00  0.00     0.033 A 
HETATM   22  C   UNL     1       8.248  22.179  56.504  1.00  0.00     0.002 A 
HETATM   23  C   UNL     1       8.304  20.805  56.281  1.00  0.00     0.003 A 
HETATM   24  C   UNL     1       8.189  20.315  54.986  1.00  0.00     0.044 A 
HETATM   25  C   UNL     1       8.018  21.209  53.934  1.00  0.00     0.143 A 
HETATM   26  F   UNL     1       7.901  20.725  52.687  1.00  0.00    -0.204 F 
ENDBRANCH  17  20
ENDBRANCH  15  16
ENDBRANCH   1  15
TORSDOF 3
ENDMDL
MODEL 9
REMARK VINA RESULT:      -7.7      2.445      5.474
REMARK  3 active torsions:
REMARK  status: ('A' for Active; 'I' for Inactive)
REMARK    1  A    between atoms: C_3  and  N_4 
REMARK       I    between atoms: N_4  and  C_5 
REMARK    2  A    between atoms: C_5  and  C_6 
REMARK    3  A    between atoms: C_6  and  C_7 
ROOT
HETATM    1  C   UNL     1       7.414  25.392  57.157  1.00  0.00     0.286 C 
HETATM    2  N   UNL     1       6.271  24.956  56.242  1.00  0.00    -0.056 N 
HETATM    3  H   UNL     1       5.553  24.532  56.843  1.00  0.00     0.278 HD
HETATM    4  H   UNL     1       5.811  25.817  55.877  1.00  0.00     0.278 HD
HETATM    5  C   UNL     1       6.585  23.994  55.134  1.00  0.00     0.209 C 
HETATM    6  C   UNL     1       7.417  22.816  55.693  1.00  0.00     0.115 C 
HETATM    7  N   UNL     1       8.530  23.254  56.531  1.00  0.00    -0.353 N 
HETATM    8  C   UNL     1       8.424  24.271  57.445  1.00  0.00     0.249 C 
HETATM    9  O   UNL     1       9.198  24.326  58.395  1.00  0.00    -0.271 OA
HETATM   10  C   UNL     1       7.243  24.717  53.959  1.00  0.00     0.035 C 
HETATM   11  C   UNL     1       7.654  23.734  52.866  1.00  0.00     0.002 C 
HETATM   12  C   UNL     1       8.571  22.650  53.424  1.00  0.00     0.002 C 
HETATM   13  C   UNL     1       7.903  21.891  54.571  1.00  0.00     0.027 C 
HETATM   14  H   UNL     1       9.204  22.547  56.826  1.00  0.00     0.163 HD
ENDROOT
BRANCH   1  15
HETATM   15  C   UNL     1       8.204  26.609  56.647  1.00  0.00     0.146 C 
BRANCH  15  16
HETATM   16  C   UNL     1       7.641  27.927  57.091  1.00  0.00     0.224 C 
HETATM   17  N   UNL     1       6.702  28.590  56.371  1.00  0.00    -0.325 N 
HETATM   18  H   UNL     1       6.407  29.456  56.825  1.00  0.00     0.169 HD
HETATM   19  O   UNL     1       8.000  28.395  58.180  1.00  0.00    -0.273 OA
BRANCH  17  20
HETATM   20  C   UNL     1       6.014  28.339  55.162  1.00  0.00     0.073 A 
HETATM   21  C   UNL     1       4.651  28.091  55.015  1.00  0.00     0.033 A 
HETATM   22  C   UNL     1       4.105  27.875  53.741  1.00  0.00     0.002 A 
HETATM   23  C   UNL     1       4.910  27.903  52.604  1.00  0.00     0.003 A 
HETATM   24  C   UNL     1       6.272  28.142  52.734  1.00  0.00     0.044 A 
HETATM   25  C   UNL     1       6.807  28.354  54.001  1.00  0.00     0.143 A 
HETATM   26  F   UNL     1       8.124  28.593  54.115  1.00  0.00    -0.204 F 
ENDBRANCH  17  20
ENDBRANCH  15  16
ENDBRANCH   1  15
TORSDOF 3
ENDMDL
MODEL 10
REMARK VINA RESULT:      -7.6      4.136      7.152
REMARK  3 active torsions:
REMARK  status: ('A' for Active; 'I' for Inactive)
REMARK    1  A    between atoms: C_3  and  N_4 
REMARK       I    between atoms: N_4  and  C_5 
REMARK    2  A    between atoms: C_5  and  C_6 
REMARK    3  A    between atoms: C_6  and  C_7 
ROOT
HETATM    1  C   UNL     1       4.583  27.334  53.238  1.00  0.00     0.286 C 
HETATM    2  N   UNL     1       4.220  25.856  53.098  1.00  0.00    -0.056 N 
HETATM    3  H   UNL     1       3.366  25.705  53.650  1.00  0.00     0.278 HD
HETATM    4  H   UNL     1       3.910  25.699  52.115  1.00  0.00     0.278 HD
HETATM    5  C   UNL     1       5.239  24.839  53.518  1.00  0.00     0.209 C 
HETATM    6  C   UNL     1       5.796  25.211  54.912  1.00  0.00     0.115 C 
HETATM    7  N   UNL     1       6.177  26.618  55.015  1.00  0.00    -0.353 N 
HETATM    8  C   UNL     1       5.425  27.637  54.487  1.00  0.00     0.249 C 
HETATM    9  O   UNL     1       5.526  28.772  54.939  1.00  0.00    -0.271 OA
HETATM   10  C   UNL     1       6.314  24.672  52.444  1.00  0.00     0.035 C 
HETATM   11  C   UNL     1       7.408  23.712  52.901  1.00  0.00     0.002 C 
HETATM   12  C   UNL     1       8.020  24.170  54.221  1.00  0.00     0.002 C 
HETATM   13  C   UNL     1       6.959  24.296  55.314  1.00  0.00     0.027 C 
HETATM   14  H   UNL     1       6.676  26.911  55.855  1.00  0.00     0.163 HD
ENDROOT
BRANCH   1  15
HETATM   15  C   UNL     1       5.320  27.923  52.025  1.00  0.00     0.146 C 
BRANCH  15  16
HETATM   16  C   UNL     1       4.639  29.116  51.420  1.00  0.00     0.224 C 
HETATM   17  N   UNL     1       4.019  29.059  50.215  1.00  0.00    -0.325 N 
HETATM   18  H   UNL     1       3.583  29.947  49.963  1.00  0.00     0.169 HD
HETATM   19  O   UNL     1       4.587  30.168  52.071  1.00  0.00    -0.273 OA
BRANCH  17  20
HETATM   20  C   UNL     1       3.807  28.047  49.252  1.00  0.00     0.073 A 
HETATM   21  C   UNL     1       4.785  27.311  48.586  1.00  0.00     0.033 A 
HETATM   22  C   UNL     1       4.418  26.320  47.664  1.00  0.00     0.002 A 
HETATM   23  C   UNL     1       3.077  26.054  47.395  1.00  0.00     0.003 A 
HETATM   24  C   UNL     1       2.090  26.784  48.046  1.00  0.00     0.044 A 
HETATM   25  C   UNL     1       2.461  27.766  48.958  1.00  0.00     0.143 A 
HETATM   26  F   UNL     1       1.498  28.460  49.587  1.00  0.00    -0.204 F 
ENDBRANCH  17  20
ENDBRANCH  15  16
ENDBRANCH   1  15
TORSDOF 3
ENDMDL
