MODEL 1
REMARK VINA RESULT:      -8.3      0.000      0.000
REMARK  4 active torsions:
REMARK  status: ('A' for Active; 'I' for Inactive)
REMARK    1  A    between atoms: C_8  and  C_9 
REMARK    2  A    between atoms: C_9  and  N_10 
REMARK    3  A    between atoms: N_10  and  C_13 
REMARK    4  A    between atoms: C_13  and  C_14 
ROOT
HETATM    1  N   UNL     1       7.178  24.811  57.629  1.00  0.00    -0.067 N 
HETATM    2  H   UNL     1       6.459  24.154  57.303  1.00  0.00     0.277 HD
HETATM    3  H   UNL     1       7.127  24.768  58.655  1.00  0.00     0.277 HD
ENDROOT
BRANCH   1   4
HETATM    4  C   UNL     1       8.505  24.305  57.200  1.00  0.00     0.273 C 
BRANCH   4   5
HETATM    5  C   UNL     1       8.361  22.921  56.684  1.00  0.00    -0.005 A 
HETATM    6  C   UNL     1       8.236  22.534  55.310  1.00  0.00    -0.000 A 
HETATM    7  C   UNL     1       8.188  23.236  54.087  1.00  0.00     0.014 A 
HETATM    8  C   UNL     1       8.156  21.142  55.279  1.00  0.00     0.043 A 
HETATM    9  C   UNL     1       8.065  22.523  52.889  1.00  0.00     0.001 A 
HETATM   10  C   UNL     1       7.990  21.133  52.893  1.00  0.00     0.002 A 
HETATM   11  C   UNL     1       8.032  20.415  54.089  1.00  0.00     0.030 A 
HETATM   12  N   UNL     1       8.209  20.696  56.579  1.00  0.00    -0.365 N 
HETATM   13  H   UNL     1       8.154  19.722  56.851  1.00  0.00     0.165 HD
HETATM   14  C   UNL     1       8.349  21.759  57.434  1.00  0.00     0.098 A 
ENDBRANCH   4   5
ENDBRANCH   1   4
BRANCH   1  15
HETATM   15  C   UNL     1       6.849  26.180  57.168  1.00  0.00     0.271 C 
BRANCH  15  16
HETATM   16  C   UNL     1       6.687  26.215  55.676  1.00  0.00    -0.030 A 
HETATM   17  C   UNL     1       5.657  25.479  55.062  1.00  0.00     0.048 A 
HETATM   18  C   UNL     1       5.521  25.571  53.692  1.00  0.00     0.105 A 
HETATM   19  C   UNL     1       6.350  26.356  52.929  1.00  0.00     0.105 A 
HETATM   20  O   UNL     1       4.585  24.929  52.946  1.00  0.00    -0.323 OA
HETATM   21  O   UNL     1       6.043  26.304  51.608  1.00  0.00    -0.323 OA
HETATM   22  C   UNL     1       7.365  27.097  53.494  1.00  0.00     0.040 A 
HETATM   23  C   UNL     1       4.935  25.379  51.617  1.00  0.00     0.352 A 
HETATM   24  C   UNL     1       7.531  27.027  54.882  1.00  0.00     0.012 A 
ENDBRANCH  15  16
ENDBRANCH   1  15
TORSDOF 4
ENDMDL
MODEL 2
REMARK VINA RESULT:      -8.2      2.966      4.193
REMARK  4 active torsions:
REMARK  status: ('A' for Active; 'I' for Inactive)
REMARK    1  A    between atoms: C_8  and  C_9 
REMARK    2  A    between atoms: C_9  and  N_10 
REMARK    3  A    between atoms: N_10  and  C_13 
REMARK    4  A    between atoms: C_13  and  C_14 
ROOT
HETATM    1  N   UNL     1       5.601  25.879  54.851  1.00  0.00    -0.067 N 
HETATM    2  H   UNL     1       4.656  25.563  54.604  1.00  0.00     0.277 HD
HETATM    3  H   UNL     1       5.720  25.608  55.836  1.00  0.00     0.277 HD
ENDROOT
BRANCH   1   4
HETATM    4  C   UNL     1       6.580  25.122  54.032  1.00  0.00     0.273 C 
BRANCH   4   5
HETATM    5  C   UNL     1       7.192  24.054  54.860  1.00  0.00    -0.005 A 
HETATM    6  C   UNL     1       7.652  22.778  54.400  1.00  0.00    -0.000 A 
HETATM    7  C   UNL     1       7.672  22.130  53.146  1.00  0.00     0.014 A 
HETATM    8  C   UNL     1       8.180  22.106  55.502  1.00  0.00     0.043 A 
HETATM    9  C   UNL     1       8.219  20.845  53.044  1.00  0.00     0.001 A 
HETATM   10  C   UNL     1       8.741  20.204  54.164  1.00  0.00     0.002 A 
HETATM   11  C   UNL     1       8.730  20.822  55.416  1.00  0.00     0.030 A 
HETATM   12  N   UNL     1       8.034  22.928  56.594  1.00  0.00    -0.365 N 
HETATM   13  H   UNL     1       8.318  22.682  57.536  1.00  0.00     0.165 HD
HETATM   14  C   UNL     1       7.454  24.112  56.217  1.00  0.00     0.098 A 
ENDBRANCH   4   5
ENDBRANCH   1   4
BRANCH   1  15
HETATM   15  C   UNL     1       5.684  27.354  54.724  1.00  0.00     0.271 C 
BRANCH  15  16
HETATM   16  C   UNL     1       6.789  27.900  55.582  1.00  0.00    -0.030 A 
HETATM   17  C   UNL     1       7.880  28.561  54.989  1.00  0.00     0.048 A 
HETATM   18  C   UNL     1       8.852  29.081  55.819  1.00  0.00     0.105 A 
HETATM   19  C   UNL     1       8.775  28.976  57.185  1.00  0.00     0.105 A 
HETATM   20  O   UNL     1       9.965  29.745  55.411  1.00  0.00    -0.323 OA
HETATM   21  O   UNL     1       9.832  29.555  57.810  1.00  0.00    -0.323 OA
HETATM   22  C   UNL     1       7.719  28.342  57.803  1.00  0.00     0.040 A 
HETATM   23  C   UNL     1      10.599  30.024  56.681  1.00  0.00     0.352 A 
HETATM   24  C   UNL     1       6.715  27.803  56.992  1.00  0.00     0.012 A 
ENDBRANCH  15  16
ENDBRANCH   1  15
TORSDOF 4
ENDMDL
MODEL 3
REMARK VINA RESULT:      -8.0      4.394      5.605
REMARK  4 active torsions:
REMARK  status: ('A' for Active; 'I' for Inactive)
REMARK    1  A    between atoms: C_8  and  C_9 
REMARK    2  A    between atoms: C_9  and  N_10 
REMARK    3  A    between atoms: N_10  and  C_13 
REMARK    4  A    between atoms: C_13  and  C_14 
ROOT
HETATM    1  N   UNL     1       8.177  26.430  57.383  1.00  0.00    -0.067 N 
HETATM    2  H   UNL     1       8.317  26.769  58.342  1.00  0.00     0.277 HD
HETATM    3  H   UNL     1       8.997  25.841  57.190  1.00  0.00     0.277 HD
ENDROOT
BRANCH   1   4
HETATM    4  C   UNL     1       6.965  25.572  57.362  1.00  0.00     0.273 C 
BRANCH   4   5
HETATM    5  C   UNL     1       6.782  25.016  55.998  1.00  0.00    -0.005 A 
HETATM    6  C   UNL     1       7.591  24.014  55.372  1.00  0.00    -0.000 A 
HETATM    7  C   UNL     1       8.737  23.287  55.759  1.00  0.00     0.014 A 
HETATM    8  C   UNL     1       7.046  23.769  54.112  1.00  0.00     0.043 A 
HETATM    9  C   UNL     1       9.287  22.348  54.879  1.00  0.00     0.001 A 
HETATM   10  C   UNL     1       8.716  22.126  53.629  1.00  0.00     0.002 A 
HETATM   11  C   UNL     1       7.584  22.835  53.220  1.00  0.00     0.030 A 
HETATM   12  N   UNL     1       5.960  24.599  53.965  1.00  0.00    -0.365 N 
HETATM   13  H   UNL     1       5.384  24.643  53.132  1.00  0.00     0.165 HD
HETATM   14  C   UNL     1       5.781  25.345  55.102  1.00  0.00     0.098 A 
ENDBRANCH   4   5
ENDBRANCH   1   4
BRANCH   1  15
HETATM   15  C   UNL     1       8.150  27.577  56.445  1.00  0.00     0.271 C 
BRANCH  15  16
HETATM   16  C   UNL     1       8.742  28.800  57.084  1.00  0.00    -0.030 A 
HETATM   17  C   UNL     1       8.131  29.371  58.215  1.00  0.00     0.048 A 
HETATM   18  C   UNL     1       8.732  30.471  58.792  1.00  0.00     0.105 A 
HETATM   19  C   UNL     1       9.895  31.007  58.298  1.00  0.00     0.105 A 
HETATM   20  O   UNL     1       8.275  31.138  59.883  1.00  0.00    -0.323 OA
HETATM   21  O   UNL     1      10.315  32.082  59.013  1.00  0.00    -0.323 OA
HETATM   22  C   UNL     1      10.527  30.473  57.196  1.00  0.00     0.040 A 
HETATM   23  C   UNL     1       9.272  32.178  60.006  1.00  0.00     0.352 A 
HETATM   24  C   UNL     1       9.945  29.356  56.586  1.00  0.00     0.012 A 
ENDBRANCH  15  16
ENDBRANCH   1  15
TORSDOF 4
ENDMDL
MODEL 4
REMARK VINA RESULT:      -7.9      2.295      5.209
REMARK  4 active torsions:
REMARK  status: ('A' for Active; 'I' for Inactive)
REMARK    1  A    between atoms: C_8  and  C_9 
REMARK    2  A    between atoms: C_9  and  N_10 
REMARK    3  A    between atoms: N_10  and  C_13 
REMARK    4  A    between atoms: C_13  and  C_14 
ROOT
HETATM    1  N   UNL     1       7.448  24.923  57.390  1.00  0.00    -0.067 N 
HETATM    2  H   UNL     1       7.057  25.050  58.331  1.00  0.00     0.277 HD
HETATM    3  H   UNL     1       6.726  24.404  56.874  1.00  0.00     0.277 HD
ENDROOT
BRANCH   1   4
HETATM    4  C   UNL     1       7.608  26.259  56.763  1.00  0.00     0.273 C 
BRANCH   4   5
HETATM    5  C   UNL     1       6.558  26.446  55.732  1.00  0.00    -0.005 A 
HETATM    6  C   UNL     1       6.656  26.102  54.345  1.00  0.00    -0.000 A 
HETATM    7  C   UNL     1       7.670  25.547  53.535  1.00  0.00     0.014 A 
HETATM    8  C   UNL     1       5.434  26.419  53.752  1.00  0.00     0.043 A 
HETATM    9  C   UNL     1       7.423  25.328  52.175  1.00  0.00     0.001 A 
HETATM   10  C   UNL     1       6.190  25.654  51.616  1.00  0.00     0.002 A 
HETATM   11  C   UNL     1       5.172  26.207  52.394  1.00  0.00     0.030 A 
HETATM   12  N   UNL     1       4.628  26.951  54.730  1.00  0.00    -0.365 N 
HETATM   13  H   UNL     1       3.684  27.285  54.572  1.00  0.00     0.165 HD
HETATM   14  C   UNL     1       5.289  26.958  55.932  1.00  0.00     0.098 A 
ENDBRANCH   4   5
ENDBRANCH   1   4
BRANCH   1  15
HETATM   15  C   UNL     1       8.688  24.114  57.468  1.00  0.00     0.271 C 
BRANCH  15  16
HETATM   16  C   UNL     1       8.588  22.901  56.589  1.00  0.00    -0.030 A 
HETATM   17  C   UNL     1       8.739  23.026  55.197  1.00  0.00     0.048 A 
HETATM   18  C   UNL     1       8.679  21.880  54.431  1.00  0.00     0.105 A 
HETATM   19  C   UNL     1       8.485  20.641  54.991  1.00  0.00     0.105 A 
HETATM   20  O   UNL     1       8.805  21.825  53.080  1.00  0.00    -0.323 OA
HETATM   21  O   UNL     1       8.459  19.651  54.062  1.00  0.00    -0.323 OA
HETATM   22  C   UNL     1       8.339  20.477  56.351  1.00  0.00     0.040 A 
HETATM   23  C   UNL     1       8.640  20.407  52.846  1.00  0.00     0.352 A 
HETATM   24  C   UNL     1       8.395  21.619  57.157  1.00  0.00     0.012 A 
ENDBRANCH  15  16
ENDBRANCH   1  15
TORSDOF 4
ENDMDL
MODEL 5
REMARK VINA RESULT:      -7.8      3.416      4.716
REMARK  4 active torsions:
REMARK  status: ('A' for Active; 'I' for Inactive)
REMARK    1  A    between atoms: C_8  and  C_9 
REMARK    2  A    between atoms: C_9  and  N_10 
REMARK    3  A    between atoms: N_10  and  C_13 
REMARK    4  A    between atoms: C_13  and  C_14 
ROOT
HETATM    1  N   UNL     1       4.967  26.891  56.056  1.00  0.00    -0.067 N 
HETATM    2  H   UNL     1       5.238  27.181  55.108  1.00  0.00     0.277 HD
HETATM    3  H   UNL     1       3.942  26.824  56.027  1.00  0.00     0.277 HD
ENDROOT
BRANCH   1   4
HETATM    4  C   UNL     1       5.522  25.538  56.308  1.00  0.00     0.273 C 
BRANCH   4   5
HETATM    5  C   UNL     1       5.938  24.929  55.021  1.00  0.00    -0.005 A 
HETATM    6  C   UNL     1       6.982  23.967  54.832  1.00  0.00    -0.000 A 
HETATM    7  C   UNL     1       7.906  23.333  55.689  1.00  0.00     0.014 A 
HETATM    8  C   UNL     1       7.010  23.647  53.475  1.00  0.00     0.043 A 
HETATM    9  C   UNL     1       8.814  22.408  55.160  1.00  0.00     0.001 A 
HETATM   10  C   UNL     1       8.813  22.110  53.800  1.00  0.00     0.002 A 
HETATM   11  C   UNL     1       7.911  22.725  52.930  1.00  0.00     0.030 A 
HETATM   12  N   UNL     1       6.037  24.395  52.855  1.00  0.00    -0.365 N 
HETATM   13  H   UNL     1       5.848  24.374  51.859  1.00  0.00     0.165 HD
HETATM   14  C   UNL     1       5.373  25.160  53.779  1.00  0.00     0.098 A 
ENDBRANCH   4   5
ENDBRANCH   1   4
BRANCH   1  15
HETATM   15  C   UNL     1       5.375  27.928  57.032  1.00  0.00     0.271 C 
BRANCH  15  16
HETATM   16  C   UNL     1       6.740  28.460  56.705  1.00  0.00    -0.030 A 
HETATM   17  C   UNL     1       7.560  28.974  57.726  1.00  0.00     0.048 A 
HETATM   18  C   UNL     1       8.822  29.416  57.385  1.00  0.00     0.105 A 
HETATM   19  C   UNL     1       9.289  29.360  56.095  1.00  0.00     0.105 A 
HETATM   20  O   UNL     1       9.735  29.938  58.245  1.00  0.00    -0.323 OA
HETATM   21  O   UNL     1      10.552  29.843  55.979  1.00  0.00    -0.323 OA
HETATM   22  C   UNL     1       8.519  28.857  55.069  1.00  0.00     0.040 A 
HETATM   23  C   UNL     1      10.826  30.231  57.342  1.00  0.00     0.352 A 
HETATM   24  C   UNL     1       7.233  28.400  55.380  1.00  0.00     0.012 A 
ENDBRANCH  15  16
ENDBRANCH   1  15
TORSDOF 4
ENDMDL
MODEL 6
REMARK VINA RESULT:      -7.7      3.483      6.731
REMARK  4 active torsions:
REMARK  status: ('A' for Active; 'I' for Inactive)
REMARK    1  A    between atoms: C_8  and  C_9 
REMARK    2  A    between atoms: C_9  and  N_10 
REMARK    3  A    between atoms: N_10  and  C_13 
REMARK    4  A    between atoms: C_13  and  C_14 
ROOT
HETATM    1  N   UNL     1       6.507  26.198  55.692  1.00  0.00    -0.067 N 
HETATM    2  H   UNL     1       6.769  25.554  56.447  1.00  0.00     0.277 HD
HETATM    3  H   UNL     1       5.689  26.706  56.052  1.00  0.00     0.277 HD
ENDROOT
BRANCH   1   4
HETATM    4  C   UNL     1       7.615  27.166  55.495  1.00  0.00     0.273 C 
BRANCH   4   5
HETATM    5  C   UNL     1       7.567  28.191  56.567  1.00  0.00    -0.005 A 
HETATM    6  C   UNL     1       8.630  29.073  56.950  1.00  0.00    -0.000 A 
HETATM    7  C   UNL     1       9.961  29.259  56.519  1.00  0.00     0.014 A 
HETATM    8  C   UNL     1       8.144  29.887  57.973  1.00  0.00     0.043 A 
HETATM    9  C   UNL     1      10.748  30.247  57.123  1.00  0.00     0.001 A 
HETATM   10  C   UNL     1      10.231  31.044  58.140  1.00  0.00     0.002 A 
HETATM   11  C   UNL     1       8.918  30.878  58.586  1.00  0.00     0.030 A 
HETATM   12  N   UNL     1       6.846  29.508  58.219  1.00  0.00    -0.365 N 
HETATM   13  H   UNL     1       6.255  29.924  58.930  1.00  0.00     0.165 HD
HETATM   14  C   UNL     1       6.482  28.497  57.367  1.00  0.00     0.098 A 
ENDBRANCH   4   5
ENDBRANCH   1   4
BRANCH   1  15
HETATM   15  C   UNL     1       6.127  25.426  54.485  1.00  0.00     0.271 C 
BRANCH  15  16
HETATM   16  C   UNL     1       6.875  24.126  54.428  1.00  0.00    -0.030 A 
HETATM   17  C   UNL     1       7.212  23.453  55.616  1.00  0.00     0.048 A 
HETATM   18  C   UNL     1       7.865  22.242  55.515  1.00  0.00     0.105 A 
HETATM   19  C   UNL     1       8.182  21.686  54.300  1.00  0.00     0.105 A 
HETATM   20  O   UNL     1       8.260  21.468  56.558  1.00  0.00    -0.323 OA
HETATM   21  O   UNL     1       8.821  20.495  54.426  1.00  0.00    -0.323 OA
HETATM   22  C   UNL     1       7.864  22.311  53.114  1.00  0.00     0.040 A 
HETATM   23  C   UNL     1       8.889  20.368  55.862  1.00  0.00     0.352 A 
HETATM   24  C   UNL     1       7.201  23.541  53.180  1.00  0.00     0.012 A 
ENDBRANCH  15  16
ENDBRANCH   1  15
TORSDOF 4
ENDMDL
MODEL 7
REMARK VINA RESULT:      -7.6      2.733      6.067
REMARK  4 active torsions:
REMARK  status: ('A' for Active; 'I' for Inactive)
REMARK    1  A    between atoms: C_8  and  C_9 
REMARK    2  A    between atoms: C_9  and  N_10 
REMARK    3  A    between atoms: N_10  and  C_13 
REMARK    4  A    between atoms: C_13  and  C_14 
ROOT
HETATM    1  N   UNL     1       6.408  25.425  52.678  1.00  0.00    -0.067 N 
HETATM    2  H   UNL     1       5.832  24.795  53.249  1.00  0.00     0.277 HD
HETATM    3  H   UNL     1       6.044  25.320  51.722  1.00  0.00     0.277 HD
ENDROOT
BRANCH   1   4
HETATM    4  C   UNL     1       6.162  26.819  53.125  1.00  0.00     0.273 C 
BRANCH   4   5
HETATM    5  C   UNL     1       6.271  26.887  54.603  1.00  0.00    -0.005 A 
HETATM    6  C   UNL     1       7.194  27.687  55.353  1.00  0.00    -0.000 A 
HETATM    7  C   UNL     1       8.229  28.582  55.009  1.00  0.00     0.014 A 
HETATM    8  C   UNL     1       6.928  27.469  56.704  1.00  0.00     0.043 A 
HETATM    9  C   UNL     1       8.952  29.221  56.024  1.00  0.00     0.001 A 
HETATM   10  C   UNL     1       8.659  28.982  57.364  1.00  0.00     0.002 A 
HETATM   11  C   UNL     1       7.641  28.099  57.730  1.00  0.00     0.030 A 
HETATM   12  N   UNL     1       5.899  26.559  56.780  1.00  0.00    -0.365 N 
HETATM   13  H   UNL     1       5.513  26.205  57.648  1.00  0.00     0.165 HD
HETATM   14  C   UNL     1       5.485  26.213  55.520  1.00  0.00     0.098 A 
ENDBRANCH   4   5
ENDBRANCH   1   4
BRANCH   1  15
HETATM   15  C   UNL     1       7.824  24.991  52.727  1.00  0.00     0.271 C 
BRANCH  15  16
HETATM   16  C   UNL     1       7.957  23.694  53.471  1.00  0.00    -0.030 A 
HETATM   17  C   UNL     1       8.149  23.696  54.864  1.00  0.00     0.048 A 
HETATM   18  C   UNL     1       8.227  22.480  55.512  1.00  0.00     0.105 A 
HETATM   19  C   UNL     1       8.118  21.289  54.838  1.00  0.00     0.105 A 
HETATM   20  O   UNL     1       8.409  22.307  56.846  1.00  0.00    -0.323 OA
HETATM   21  O   UNL     1       8.221  20.216  55.662  1.00  0.00    -0.323 OA
HETATM   22  C   UNL     1       7.923  21.245  53.474  1.00  0.00     0.040 A 
HETATM   23  C   UNL     1       8.429  20.863  56.935  1.00  0.00     0.352 A 
HETATM   24  C   UNL     1       7.839  22.461  52.786  1.00  0.00     0.012 A 
ENDBRANCH  15  16
ENDBRANCH   1  15
TORSDOF 4
ENDMDL
MODEL 8
REMARK VINA RESULT:      -7.4      2.102      3.043
REMARK  4 active torsions:
REMARK  status: ('A' for Active; 'I' for Inactive)
REMARK    1  A    between atoms: C_8  and  C_9 
REMARK    2  A    between atoms: C_9  and  N_10 
REMARK    3  A    between atoms: N_10  and  C_13 
REMARK    4  A    between atoms: C_13  and  C_14 
ROOT
HETATM    1  N   UNL     1       6.151  26.015  54.572  1.00  0.00    -0.067 N 
HETATM    2  H   UNL     1       5.781  25.720  55.483  1.00  0.00     0.277 HD
HETATM    3  H   UNL     1       6.060  27.039  54.571  1.00  0.00     0.277 HD
ENDROOT
BRANCH   1   4
HETATM    4  C   UNL     1       7.593  25.669  54.516  1.00  0.00     0.273 C 
BRANCH   4   5
HETATM    5  C   UNL     1       7.814  24.372  55.201  1.00  0.00    -0.005 A 
HETATM    6  C   UNL     1       7.896  23.084  54.579  1.00  0.00    -0.000 A 
HETATM    7  C   UNL     1       7.789  22.622  53.250  1.00  0.00     0.014 A 
HETATM    8  C   UNL     1       8.141  22.152  55.587  1.00  0.00     0.043 A 
HETATM    9  C   UNL     1       7.933  21.255  52.982  1.00  0.00     0.001 A 
HETATM   10  C   UNL     1       8.180  20.352  54.012  1.00  0.00     0.002 A 
HETATM   11  C   UNL     1       8.287  20.783  55.336  1.00  0.00     0.030 A 
HETATM   12  N   UNL     1       8.188  22.837  56.778  1.00  0.00    -0.365 N 
HETATM   13  H   UNL     1       8.336  22.401  57.681  1.00  0.00     0.165 HD
HETATM   14  C   UNL     1       8.008  24.178  56.556  1.00  0.00     0.098 A 
ENDBRANCH   4   5
ENDBRANCH   1   4
BRANCH   1  15
HETATM   15  C   UNL     1       5.325  25.437  53.486  1.00  0.00     0.271 C 
BRANCH  15  16
HETATM   16  C   UNL     1       5.301  26.348  52.293  1.00  0.00    -0.030 A 
HETATM   17  C   UNL     1       5.030  25.828  51.015  1.00  0.00     0.048 A 
HETATM   18  C   UNL     1       4.980  26.707  49.953  1.00  0.00     0.105 A 
HETATM   19  C   UNL     1       5.179  28.056  50.115  1.00  0.00     0.105 A 
HETATM   20  O   UNL     1       4.731  26.372  48.660  1.00  0.00    -0.323 OA
HETATM   21  O   UNL     1       5.086  28.739  48.945  1.00  0.00    -0.323 OA
HETATM   22  C   UNL     1       5.441  28.604  51.352  1.00  0.00     0.040 A 
HETATM   23  C   UNL     1       4.823  27.664  48.018  1.00  0.00     0.352 A 
HETATM   24  C   UNL     1       5.498  27.740  52.451  1.00  0.00     0.012 A 
ENDBRANCH  15  16
ENDBRANCH   1  15
TORSDOF 4
ENDMDL
MODEL 9
REMARK VINA RESULT:      -7.3      3.529      6.961
REMARK  4 active torsions:
REMARK  status: ('A' for Active; 'I' for Inactive)
REMARK    1  A    between atoms: C_8  and  C_9 
REMARK    2  A    between atoms: C_9  and  N_10 
REMARK    3  A    between atoms: N_10  and  C_13 
REMARK    4  A    between atoms: C_13  and  C_14 
ROOT
HETATM    1  N   UNL     1       6.215  26.020  53.620  1.00  0.00    -0.067 N 
HETATM    2  H   UNL     1       6.291  26.993  53.939  1.00  0.00     0.277 HD
HETATM    3  H   UNL     1       5.892  25.498  54.445  1.00  0.00     0.277 HD
ENDROOT
BRANCH   1   4
HETATM    4  C   UNL     1       5.162  25.950  52.576  1.00  0.00     0.273 C 
BRANCH   4   5
HETATM    5  C   UNL     1       5.289  27.119  51.671  1.00  0.00    -0.005 A 
HETATM    6  C   UNL     1       5.035  27.136  50.261  1.00  0.00    -0.000 A 
HETATM    7  C   UNL     1       4.640  26.164  49.318  1.00  0.00     0.014 A 
HETATM    8  C   UNL     1       5.248  28.442  49.818  1.00  0.00     0.043 A 
HETATM    9  C   UNL     1       4.471  26.533  47.979  1.00  0.00     0.001 A 
HETATM   10  C   UNL     1       4.689  27.846  47.570  1.00  0.00     0.002 A 
HETATM   11  C   UNL     1       5.084  28.826  48.483  1.00  0.00     0.030 A 
HETATM   12  N   UNL     1       5.634  29.188  50.906  1.00  0.00    -0.365 N 
HETATM   13  H   UNL     1       5.871  30.173  50.867  1.00  0.00     0.165 HD
HETATM   14  C   UNL     1       5.648  28.406  52.032  1.00  0.00     0.098 A 
ENDBRANCH   4   5
ENDBRANCH   1   4
BRANCH   1  15
HETATM   15  C   UNL     1       7.547  25.525  53.201  1.00  0.00     0.271 C 
BRANCH  15  16
HETATM   16  C   UNL     1       7.763  24.116  53.673  1.00  0.00    -0.030 A 
HETATM   17  C   UNL     1       7.961  23.854  55.040  1.00  0.00     0.048 A 
HETATM   18  C   UNL     1       8.117  22.540  55.434  1.00  0.00     0.105 A 
HETATM   19  C   UNL     1       8.077  21.502  54.536  1.00  0.00     0.105 A 
HETATM   20  O   UNL     1       8.316  22.116  56.709  1.00  0.00    -0.323 OA
HETATM   21  O   UNL     1       8.251  20.295  55.131  1.00  0.00    -0.323 OA
HETATM   22  C   UNL     1       7.879  21.718  53.190  1.00  0.00     0.040 A 
HETATM   23  C   UNL     1       8.425  20.688  56.509  1.00  0.00     0.352 A 
HETATM   24  C   UNL     1       7.717  23.039  52.756  1.00  0.00     0.012 A 
ENDBRANCH  15  16
ENDBRANCH   1  15
TORSDOF 4
ENDMDL
MODEL 10
REMARK VINA RESULT:      -7.2      3.921      4.894
REMARK  4 active torsions:
REMARK  status: ('A' for Active; 'I' for Inactive)
REMARK    1  A    between atoms: C_8  and  C_9 
REMARK    2  A    between atoms: C_9  and  N_10 
REMARK    3  A    between atoms: N_10  and  C_13 
REMARK    4  A    between atoms: C_13  and  C_14 
ROOT
HETATM    1  N   UNL     1       7.403  26.186  56.567  1.00  0.00    -0.067 N 
HETATM    2  H   UNL     1       8.068  26.440  57.307  1.00  0.00     0.277 HD
HETATM    3  H   UNL     1       7.877  26.440  55.691  1.00  0.00     0.277 HD
ENDROOT
BRANCH   1   4
HETATM    4  C   UNL     1       7.213  24.714  56.592  1.00  0.00     0.273 C 
BRANCH   4   5
HETATM    5  C   UNL     1       7.517  24.158  55.250  1.00  0.00    -0.005 A 
HETATM    6  C   UNL     1       7.724  22.777  54.929  1.00  0.00    -0.000 A 
HETATM    7  C   UNL     1       7.736  21.580  55.677  1.00  0.00     0.014 A 
HETATM    8  C   UNL     1       7.950  22.701  53.555  1.00  0.00     0.043 A 
HETATM    9  C   UNL     1       7.969  20.364  55.026  1.00  0.00     0.001 A 
HETATM   10  C   UNL     1       8.189  20.323  53.652  1.00  0.00     0.002 A 
HETATM   11  C   UNL     1       8.186  21.493  52.889  1.00  0.00     0.030 A 
HETATM   12  N   UNL     1       7.904  23.983  53.059  1.00  0.00    -0.365 N 
HETATM   13  H   UNL     1       8.053  24.224  52.085  1.00  0.00     0.165 HD
HETATM   14  C   UNL     1       7.627  24.868  54.069  1.00  0.00     0.098 A 
ENDBRANCH   4   5
ENDBRANCH   1   4
BRANCH   1  15
HETATM   15  C   UNL     1       6.161  26.982  56.715  1.00  0.00     0.271 C 
BRANCH  15  16
HETATM   16  C   UNL     1       6.463  28.338  57.282  1.00  0.00    -0.030 A 
HETATM   17  C   UNL     1       5.463  29.327  57.315  1.00  0.00     0.048 A 
HETATM   18  C   UNL     1       5.773  30.546  57.881  1.00  0.00     0.105 A 
HETATM   19  C   UNL     1       7.013  30.809  58.409  1.00  0.00     0.105 A 
HETATM   20  O   UNL     1       4.927  31.603  57.993  1.00  0.00    -0.323 OA
HETATM   21  O   UNL     1       7.105  32.065  58.915  1.00  0.00    -0.323 OA
HETATM   22  C   UNL     1       8.016  29.865  58.401  1.00  0.00     0.040 A 
HETATM   23  C   UNL     1       5.786  32.577  58.629  1.00  0.00     0.352 A 
HETATM   24  C   UNL     1       7.736  28.617  57.835  1.00  0.00     0.012 A 
ENDBRANCH  15  16
ENDBRANCH   1  15
TORSDOF 4
ENDMDL
