MODEL 1
REMARK VINA RESULT:      -8.3      0.000      0.000
REMARK  4 active torsions:
REMARK  status: ('A' for Active; 'I' for Inactive)
REMARK    1  A    between atoms: C_5  and  C_6 
REMARK       I    between atoms: C_6  and  N_7 
REMARK    2  A    between atoms: N_7  and  C_8 
REMARK    3  A    between atoms: C_8  and  N_9 
REMARK    4  A    between atoms: N_9  and  C_10 
ROOT
HETATM    1  C   UNL     1       6.348  25.165  55.535  1.00  0.00     0.257 C 
HETATM    2  N   UNL     1       6.003  26.227  54.704  1.00  0.00    -0.299 N 
HETATM    3  O   UNL     1       6.167  25.102  56.745  1.00  0.00    -0.267 OA
HETATM    4  H   UNL     1       6.131  26.081  53.706  1.00  0.00     0.171 HD
ENDROOT
BRANCH   2   5
HETATM    5  C   UNL     1       5.436  27.454  54.981  1.00  0.00     0.180 C 
HETATM    6  S   UNL     1       4.264  28.254  54.096  1.00  0.00    -0.040 SA
BRANCH   5   7
HETATM    7  N   UNL     1       5.886  28.088  56.114  1.00  0.00    -0.318 N 
HETATM    8  H   UNL     1       5.182  28.174  56.837  1.00  0.00     0.170 HD
BRANCH   7   9
HETATM    9  C   UNL     1       7.160  28.600  56.395  1.00  0.00     0.129 A 
HETATM   10  N   UNL     1       8.046  28.779  55.389  1.00  0.00    -0.243 NA
HETATM   11  C   UNL     1       9.268  29.263  55.717  1.00  0.00     0.125 A 
HETATM   12  C   UNL     1       9.659  29.590  57.008  1.00  0.00    -0.044 A 
HETATM   13  C   UNL     1      11.037  30.085  57.309  1.00  0.00     0.049 C 
HETATM   14  C   UNL     1       8.727  29.391  58.026  1.00  0.00     0.012 A 
HETATM   15  C   UNL     1       7.462  28.894  57.718  1.00  0.00     0.051 A 
ENDBRANCH   7   9
ENDBRANCH   5   7
ENDBRANCH   2   5
BRANCH   1  16
HETATM   16  C   UNL     1       6.940  23.987  54.839  1.00  0.00     0.032 A 
HETATM   17  C   UNL     1       7.131  23.957  53.452  1.00  0.00     0.017 A 
HETATM   18  C   UNL     1       7.666  22.816  52.845  1.00  0.00     0.007 A 
HETATM   19  C   UNL     1       8.015  21.698  53.612  1.00  0.00    -0.062 A 
HETATM   20  C   UNL     1       8.608  20.480  52.967  1.00  0.00     0.048 C 
HETATM   21  C   UNL     1       7.859  21.749  55.003  1.00  0.00     0.007 A 
HETATM   22  C   UNL     1       7.327  22.887  55.613  1.00  0.00     0.017 A 
ENDBRANCH   1  16
TORSDOF 4
ENDMDL
MODEL 2
REMARK VINA RESULT:      -8.1      1.128      1.974
REMARK  4 active torsions:
REMARK  status: ('A' for Active; 'I' for Inactive)
REMARK    1  A    between atoms: C_5  and  C_6 
REMARK       I    between atoms: C_6  and  N_7 
REMARK    2  A    between atoms: N_7  and  C_8 
REMARK    3  A    between atoms: C_8  and  N_9 
REMARK    4  A    between atoms: N_9  and  C_10 
ROOT
HETATM    1  C   UNL     1       7.417  25.706  55.241  1.00  0.00     0.257 C 
HETATM    2  N   UNL     1       7.047  26.665  54.301  1.00  0.00    -0.299 N 
HETATM    3  O   UNL     1       7.559  25.886  56.444  1.00  0.00    -0.267 OA
HETATM    4  H   UNL     1       6.876  26.331  53.357  1.00  0.00     0.171 HD
ENDROOT
BRANCH   2   5
HETATM    5  C   UNL     1       6.791  28.015  54.429  1.00  0.00     0.180 C 
HETATM    6  S   UNL     1       5.346  28.805  54.145  1.00  0.00    -0.040 SA
BRANCH   5   7
HETATM    7  N   UNL     1       7.846  28.795  54.837  1.00  0.00    -0.318 N 
HETATM    8  H   UNL     1       8.451  29.087  54.079  1.00  0.00     0.170 HD
BRANCH   7   9
HETATM    9  C   UNL     1       8.173  29.239  56.125  1.00  0.00     0.129 A 
HETATM   10  N   UNL     1       7.204  29.343  57.063  1.00  0.00    -0.243 NA
HETATM   11  C   UNL     1       7.570  29.791  58.287  1.00  0.00     0.125 A 
HETATM   12  C   UNL     1       8.868  30.138  58.637  1.00  0.00    -0.044 A 
HETATM   13  C   UNL     1       9.201  30.661  59.997  1.00  0.00     0.049 C 
HETATM   14  C   UNL     1       9.847  30.025  57.650  1.00  0.00     0.012 A 
HETATM   15  C   UNL     1       9.498  29.567  56.380  1.00  0.00     0.051 A 
ENDBRANCH   7   9
ENDBRANCH   5   7
ENDBRANCH   2   5
BRANCH   1  16
HETATM   16  C   UNL     1       7.592  24.329  54.699  1.00  0.00     0.032 A 
HETATM   17  C   UNL     1       7.612  23.197  55.524  1.00  0.00     0.017 A 
HETATM   18  C   UNL     1       7.806  21.929  54.967  1.00  0.00     0.007 A 
HETATM   19  C   UNL     1       7.983  21.777  53.586  1.00  0.00    -0.062 A 
HETATM   20  C   UNL     1       8.172  20.417  52.982  1.00  0.00     0.048 C 
HETATM   21  C   UNL     1       7.922  22.907  52.762  1.00  0.00     0.007 A 
HETATM   22  C   UNL     1       7.726  24.175  53.314  1.00  0.00     0.017 A 
ENDBRANCH   1  16
TORSDOF 4
ENDMDL
MODEL 3
REMARK VINA RESULT:      -7.7     11.771     15.622
REMARK  4 active torsions:
REMARK  status: ('A' for Active; 'I' for Inactive)
REMARK    1  A    between atoms: C_5  and  C_6 
REMARK       I    between atoms: C_6  and  N_7 
REMARK    2  A    between atoms: N_7  and  C_8 
REMARK    3  A    between atoms: C_8  and  N_9 
REMARK    4  A    between atoms: N_9  and  C_10 
ROOT
HETATM    1  C   UNL     1       5.388  34.456  68.543  1.00  0.00     0.257 C 
HETATM    2  N   UNL     1       5.612  35.165  67.366  1.00  0.00    -0.299 N 
HETATM    3  O   UNL     1       4.599  33.531  68.694  1.00  0.00    -0.267 OA
HETATM    4  H   UNL     1       6.373  35.839  67.381  1.00  0.00     0.171 HD
ENDROOT
BRANCH   2   5
HETATM    5  C   UNL     1       5.026  35.072  66.120  1.00  0.00     0.180 C 
HETATM    6  S   UNL     1       4.443  36.322  65.177  1.00  0.00    -0.040 SA
BRANCH   5   7
HETATM    7  N   UNL     1       4.912  33.806  65.598  1.00  0.00    -0.318 N 
HETATM    8  H   UNL     1       4.117  33.290  65.957  1.00  0.00     0.170 HD
BRANCH   7   9
HETATM    9  C   UNL     1       5.718  33.163  64.651  1.00  0.00     0.129 A 
HETATM   10  N   UNL     1       5.158  32.309  63.764  1.00  0.00    -0.243 NA
HETATM   11  C   UNL     1       5.985  31.703  62.879  1.00  0.00     0.125 A 
HETATM   12  C   UNL     1       7.357  31.908  62.822  1.00  0.00    -0.044 A 
HETATM   13  C   UNL     1       8.220  31.179  61.844  1.00  0.00     0.049 C 
HETATM   14  C   UNL     1       7.909  32.790  63.751  1.00  0.00     0.012 A 
HETATM   15  C   UNL     1       7.082  33.428  64.674  1.00  0.00     0.051 A 
ENDBRANCH   7   9
ENDBRANCH   5   7
ENDBRANCH   2   5
BRANCH   1  16
HETATM   16  C   UNL     1       6.250  34.855  69.692  1.00  0.00     0.032 A 
HETATM   17  C   UNL     1       5.786  34.846  71.013  1.00  0.00     0.017 A 
HETATM   18  C   UNL     1       6.628  35.255  72.053  1.00  0.00     0.007 A 
HETATM   19  C   UNL     1       7.936  35.677  71.785  1.00  0.00    -0.062 A 
HETATM   20  C   UNL     1       8.849  36.097  72.899  1.00  0.00     0.048 C 
HETATM   21  C   UNL     1       8.407  35.645  70.467  1.00  0.00     0.007 A 
HETATM   22  C   UNL     1       7.571  35.236  69.427  1.00  0.00     0.017 A 
ENDBRANCH   1  16
TORSDOF 4
ENDMDL
MODEL 4
REMARK VINA RESULT:      -7.7      4.300      8.951
REMARK  4 active torsions:
REMARK  status: ('A' for Active; 'I' for Inactive)
REMARK    1  A    between atoms: C_5  and  C_6 
REMARK       I    between atoms: C_6  and  N_7 
REMARK    2  A    between atoms: N_7  and  C_8 
REMARK    3  A    between atoms: C_8  and  N_9 
REMARK    4  A    between atoms: N_9  and  C_10 
ROOT
HETATM    1  C   UNL     1       9.286  31.590  59.164  1.00  0.00     0.257 C 
HETATM    2  N   UNL     1       8.829  30.390  58.625  1.00  0.00    -0.299 N 
HETATM    3  O   UNL     1      10.110  32.344  58.662  1.00  0.00    -0.267 OA
HETATM    4  H   UNL     1       8.069  29.932  59.120  1.00  0.00     0.171 HD
ENDROOT
BRANCH   2   5
HETATM    5  C   UNL     1       9.175  29.720  57.470  1.00  0.00     0.180 C 
HETATM    6  S   UNL     1      10.690  29.611  56.773  1.00  0.00    -0.040 SA
BRANCH   5   7
HETATM    7  N   UNL     1       8.155  29.067  56.820  1.00  0.00    -0.318 N 
HETATM    8  H   UNL     1       7.457  29.691  56.433  1.00  0.00     0.170 HD
BRANCH   7   9
HETATM    9  C   UNL     1       7.970  27.693  56.617  1.00  0.00     0.129 A 
HETATM   10  N   UNL     1       8.265  26.825  57.611  1.00  0.00    -0.243 NA
HETATM   11  C   UNL     1       8.083  25.507  57.358  1.00  0.00     0.125 A 
HETATM   12  C   UNL     1       7.609  24.999  56.157  1.00  0.00    -0.044 A 
HETATM   13  C   UNL     1       7.465  23.529  55.928  1.00  0.00     0.049 C 
HETATM   14  C   UNL     1       7.316  25.917  55.148  1.00  0.00     0.012 A 
HETATM   15  C   UNL     1       7.495  27.279  55.380  1.00  0.00     0.051 A 
ENDBRANCH   7   9
ENDBRANCH   5   7
ENDBRANCH   2   5
BRANCH   1  16
HETATM   16  C   UNL     1       8.643  31.987  60.449  1.00  0.00     0.032 A 
HETATM   17  C   UNL     1       9.266  31.790  61.688  1.00  0.00     0.017 A 
HETATM   18  C   UNL     1       8.608  32.157  62.867  1.00  0.00     0.007 A 
HETATM   19  C   UNL     1       7.328  32.722  62.822  1.00  0.00    -0.062 A 
HETATM   20  C   UNL     1       6.627  33.135  64.083  1.00  0.00     0.048 C 
HETATM   21  C   UNL     1       6.727  32.954  61.579  1.00  0.00     0.007 A 
HETATM   22  C   UNL     1       7.381  32.591  60.400  1.00  0.00     0.017 A 
ENDBRANCH   1  16
TORSDOF 4
ENDMDL
MODEL 5
REMARK VINA RESULT:      -7.6      2.098      7.555
REMARK  4 active torsions:
REMARK  status: ('A' for Active; 'I' for Inactive)
REMARK    1  A    between atoms: C_5  and  C_6 
REMARK       I    between atoms: C_6  and  N_7 
REMARK    2  A    between atoms: N_7  and  C_8 
REMARK    3  A    between atoms: C_8  and  N_9 
REMARK    4  A    between atoms: N_9  and  C_10 
ROOT
HETATM    1  C   UNL     1       7.996  28.329  56.225  1.00  0.00     0.257 C 
HETATM    2  N   UNL     1       7.424  27.147  56.689  1.00  0.00    -0.299 N 
HETATM    3  O   UNL     1       8.145  28.652  55.053  1.00  0.00    -0.267 OA
HETATM    4  H   UNL     1       7.284  27.075  57.693  1.00  0.00     0.171 HD
ENDROOT
BRANCH   2   5
HETATM    5  C   UNL     1       6.928  26.049  56.016  1.00  0.00     0.180 C 
HETATM    6  S   UNL     1       5.549  25.176  56.375  1.00  0.00    -0.040 SA
BRANCH   5   7
HETATM    7  N   UNL     1       7.653  25.629  54.926  1.00  0.00    -0.318 N 
HETATM    8  H   UNL     1       8.047  26.389  54.385  1.00  0.00     0.170 HD
BRANCH   7   9
HETATM    9  C   UNL     1       7.920  24.325  54.490  1.00  0.00     0.129 A 
HETATM   10  N   UNL     1       8.671  23.503  55.258  1.00  0.00    -0.243 NA
HETATM   11  C   UNL     1       8.912  22.258  54.783  1.00  0.00     0.125 A 
HETATM   12  C   UNL     1       8.433  21.776  53.573  1.00  0.00    -0.044 A 
HETATM   13  C   UNL     1       8.766  20.402  53.088  1.00  0.00     0.049 C 
HETATM   14  C   UNL     1       7.664  22.646  52.799  1.00  0.00     0.012 A 
HETATM   15  C   UNL     1       7.401  23.933  53.262  1.00  0.00     0.051 A 
ENDBRANCH   7   9
ENDBRANCH   5   7
ENDBRANCH   2   5
BRANCH   1  16
HETATM   16  C   UNL     1       8.403  29.290  57.289  1.00  0.00     0.032 A 
HETATM   17  C   UNL     1       7.538  29.674  58.321  1.00  0.00     0.017 A 
HETATM   18  C   UNL     1       7.960  30.600  59.280  1.00  0.00     0.007 A 
HETATM   19  C   UNL     1       9.246  31.152  59.219  1.00  0.00    -0.062 A 
HETATM   20  C   UNL     1       9.710  32.131  60.256  1.00  0.00     0.048 C 
HETATM   21  C   UNL     1      10.120  30.735  58.208  1.00  0.00     0.007 A 
HETATM   22  C   UNL     1       9.702  29.809  57.250  1.00  0.00     0.017 A 
ENDBRANCH   1  16
TORSDOF 4
ENDMDL
MODEL 6
REMARK VINA RESULT:      -7.6      4.670      6.869
REMARK  4 active torsions:
REMARK  status: ('A' for Active; 'I' for Inactive)
REMARK    1  A    between atoms: C_5  and  C_6 
REMARK       I    between atoms: C_6  and  N_7 
REMARK    2  A    between atoms: N_7  and  C_8 
REMARK    3  A    between atoms: C_8  and  N_9 
REMARK    4  A    between atoms: N_9  and  C_10 
ROOT
HETATM    1  C   UNL     1       7.156  25.560  52.974  1.00  0.00     0.257 C 
HETATM    2  N   UNL     1       6.000  25.676  52.207  1.00  0.00    -0.299 N 
HETATM    3  O   UNL     1       7.915  26.470  53.286  1.00  0.00    -0.267 OA
HETATM    4  H   UNL     1       5.428  24.840  52.122  1.00  0.00     0.171 HD
ENDROOT
BRANCH   2   5
HETATM    5  C   UNL     1       5.427  26.764  51.581  1.00  0.00     0.180 C 
HETATM    6  S   UNL     1       4.730  28.100  52.303  1.00  0.00    -0.040 SA
BRANCH   5   7
HETATM    7  N   UNL     1       5.433  26.743  50.207  1.00  0.00    -0.318 N 
HETATM    8  H   UNL     1       6.355  26.618  49.807  1.00  0.00     0.170 HD
BRANCH   7   9
HETATM    9  C   UNL     1       4.358  26.854  49.315  1.00  0.00     0.129 A 
HETATM   10  N   UNL     1       3.888  28.077  48.982  1.00  0.00    -0.243 NA
HETATM   11  C   UNL     1       2.838  28.128  48.128  1.00  0.00     0.125 A 
HETATM   12  C   UNL     1       2.226  27.012  47.574  1.00  0.00    -0.044 A 
HETATM   13  C   UNL     1       1.045  27.134  46.665  1.00  0.00     0.049 C 
HETATM   14  C   UNL     1       2.728  25.762  47.938  1.00  0.00     0.012 A 
HETATM   15  C   UNL     1       3.808  25.680  48.815  1.00  0.00     0.051 A 
ENDBRANCH   7   9
ENDBRANCH   5   7
ENDBRANCH   2   5
BRANCH   1  16
HETATM   16  C   UNL     1       7.433  24.190  53.492  1.00  0.00     0.032 A 
HETATM   17  C   UNL     1       7.891  23.156  52.665  1.00  0.00     0.017 A 
HETATM   18  C   UNL     1       8.110  21.881  53.196  1.00  0.00     0.007 A 
HETATM   19  C   UNL     1       7.876  21.625  54.553  1.00  0.00    -0.062 A 
HETATM   20  C   UNL     1       8.129  20.264  55.131  1.00  0.00     0.048 C 
HETATM   21  C   UNL     1       7.458  22.672  55.383  1.00  0.00     0.007 A 
HETATM   22  C   UNL     1       7.240  23.947  54.856  1.00  0.00     0.017 A 
ENDBRANCH   1  16
TORSDOF 4
ENDMDL
MODEL 7
REMARK VINA RESULT:      -7.5     10.816     13.603
REMARK  4 active torsions:
REMARK  status: ('A' for Active; 'I' for Inactive)
REMARK    1  A    between atoms: C_5  and  C_6 
REMARK       I    between atoms: C_6  and  N_7 
REMARK    2  A    between atoms: N_7  and  C_8 
REMARK    3  A    between atoms: C_8  and  N_9 
REMARK    4  A    between atoms: N_9  and  C_10 
ROOT
HETATM    1  C   UNL     1       5.466  33.277  64.342  1.00  0.00     0.257 C 
HETATM    2  N   UNL     1       5.946  34.053  65.393  1.00  0.00    -0.299 N 
HETATM    3  O   UNL     1       4.309  32.908  64.180  1.00  0.00    -0.267 OA
HETATM    4  H   UNL     1       6.914  34.356  65.328  1.00  0.00     0.171 HD
ENDROOT
BRANCH   2   5
HETATM    5  C   UNL     1       5.315  34.566  66.508  1.00  0.00     0.180 C 
HETATM    6  S   UNL     1       4.396  35.959  66.604  1.00  0.00    -0.040 SA
BRANCH   5   7
HETATM    7  N   UNL     1       5.461  33.848  67.671  1.00  0.00    -0.318 N 
HETATM    8  H   UNL     1       4.991  32.951  67.654  1.00  0.00     0.170 HD
BRANCH   7   9
HETATM    9  C   UNL     1       6.169  34.180  68.833  1.00  0.00     0.129 A 
HETATM   10  N   UNL     1       5.594  33.990  70.043  1.00  0.00    -0.243 NA
HETATM   11  C   UNL     1       6.315  34.341  71.135  1.00  0.00     0.125 A 
HETATM   12  C   UNL     1       7.597  34.870  71.088  1.00  0.00    -0.044 A 
HETATM   13  C   UNL     1       8.326  35.272  72.330  1.00  0.00     0.049 C 
HETATM   14  C   UNL     1       8.164  35.059  69.828  1.00  0.00     0.012 A 
HETATM   15  C   UNL     1       7.445  34.707  68.687  1.00  0.00     0.051 A 
ENDBRANCH   7   9
ENDBRANCH   5   7
ENDBRANCH   2   5
BRANCH   1  16
HETATM   16  C   UNL     1       6.478  32.928  63.304  1.00  0.00     0.032 A 
HETATM   17  C   UNL     1       7.783  32.540  63.634  1.00  0.00     0.017 A 
HETATM   18  C   UNL     1       8.703  32.249  62.621  1.00  0.00     0.007 A 
HETATM   19  C   UNL     1       8.331  32.342  61.274  1.00  0.00    -0.062 A 
HETATM   20  C   UNL     1       9.309  32.011  60.184  1.00  0.00     0.048 C 
HETATM   21  C   UNL     1       7.015  32.691  60.951  1.00  0.00     0.007 A 
HETATM   22  C   UNL     1       6.093  32.980  61.960  1.00  0.00     0.017 A 
ENDBRANCH   1  16
TORSDOF 4
ENDMDL
MODEL 8
REMARK VINA RESULT:      -7.3      4.350      8.941
REMARK  4 active torsions:
REMARK  status: ('A' for Active; 'I' for Inactive)
REMARK    1  A    between atoms: C_5  and  C_6 
REMARK       I    between atoms: C_6  and  N_7 
REMARK    2  A    between atoms: N_7  and  C_8 
REMARK    3  A    between atoms: C_8  and  N_9 
REMARK    4  A    between atoms: N_9  and  C_10 
ROOT
HETATM    1  C   UNL     1       7.743  31.695  59.399  1.00  0.00     0.257 C 
HETATM    2  N   UNL     1       6.644  31.009  58.888  1.00  0.00    -0.299 N 
HETATM    3  O   UNL     1       8.776  31.961  58.798  1.00  0.00    -0.267 OA
HETATM    4  H   UNL     1       5.824  30.958  59.487  1.00  0.00     0.171 HD
ENDROOT
BRANCH   2   5
HETATM    5  C   UNL     1       6.424  30.430  57.655  1.00  0.00     0.180 C 
HETATM    6  S   UNL     1       5.052  30.548  56.708  1.00  0.00    -0.040 SA
BRANCH   5   7
HETATM    7  N   UNL     1       7.453  29.671  57.151  1.00  0.00    -0.318 N 
HETATM    8  H   UNL     1       8.279  30.210  56.922  1.00  0.00     0.170 HD
BRANCH   7   9
HETATM    9  C   UNL     1       7.509  28.288  56.934  1.00  0.00     0.129 A 
HETATM   10  N   UNL     1       7.639  27.450  57.987  1.00  0.00    -0.243 NA
HETATM   11  C   UNL     1       7.703  26.123  57.721  1.00  0.00     0.125 A 
HETATM   12  C   UNL     1       7.635  25.578  56.447  1.00  0.00    -0.044 A 
HETATM   13  C   UNL     1       7.749  24.105  56.217  1.00  0.00     0.049 C 
HETATM   14  C   UNL     1       7.504  26.464  55.378  1.00  0.00     0.012 A 
HETATM   15  C   UNL     1       7.437  27.835  55.622  1.00  0.00     0.051 A 
ENDBRANCH   7   9
ENDBRANCH   5   7
ENDBRANCH   2   5
BRANCH   1  16
HETATM   16  C   UNL     1       7.584  32.184  60.798  1.00  0.00     0.032 A 
HETATM   17  C   UNL     1       6.559  33.063  61.171  1.00  0.00     0.017 A 
HETATM   18  C   UNL     1       6.471  33.514  62.492  1.00  0.00     0.007 A 
HETATM   19  C   UNL     1       7.400  33.093  63.452  1.00  0.00    -0.062 A 
HETATM   20  C   UNL     1       7.297  33.557  64.875  1.00  0.00     0.048 C 
HETATM   21  C   UNL     1       8.398  32.183  63.083  1.00  0.00     0.007 A 
HETATM   22  C   UNL     1       8.488  31.730  61.765  1.00  0.00     0.017 A 
ENDBRANCH   1  16
TORSDOF 4
ENDMDL
MODEL 9
REMARK VINA RESULT:      -7.2      3.169      4.927
REMARK  4 active torsions:
REMARK  status: ('A' for Active; 'I' for Inactive)
REMARK    1  A    between atoms: C_5  and  C_6 
REMARK       I    between atoms: C_6  and  N_7 
REMARK    2  A    between atoms: N_7  and  C_8 
REMARK    3  A    between atoms: C_8  and  N_9 
REMARK    4  A    between atoms: N_9  and  C_10 
ROOT
HETATM    1  C   UNL     1       6.680  25.925  54.476  1.00  0.00     0.257 C 
HETATM    2  N   UNL     1       5.314  26.148  54.326  1.00  0.00    -0.299 N 
HETATM    3  O   UNL     1       7.517  26.750  54.821  1.00  0.00    -0.267 OA
HETATM    4  H   UNL     1       4.741  25.332  54.128  1.00  0.00     0.171 HD
ENDROOT
BRANCH   2   5
HETATM    5  C   UNL     1       4.556  27.292  54.470  1.00  0.00     0.180 C 
HETATM    6  S   UNL     1       4.485  28.301  55.801  1.00  0.00    -0.040 SA
BRANCH   5   7
HETATM    7  N   UNL     1       3.773  27.639  53.396  1.00  0.00    -0.318 N 
HETATM    8  H   UNL     1       2.804  27.810  53.640  1.00  0.00     0.170 HD
BRANCH   7   9
HETATM    9  C   UNL     1       4.133  27.796  52.051  1.00  0.00     0.129 A 
HETATM   10  N   UNL     1       4.913  26.866  51.455  1.00  0.00    -0.243 NA
HETATM   11  C   UNL     1       5.245  27.073  50.158  1.00  0.00     0.125 A 
HETATM   12  C   UNL     1       4.831  28.167  49.410  1.00  0.00    -0.044 A 
HETATM   13  C   UNL     1       5.263  28.356  47.992  1.00  0.00     0.049 C 
HETATM   14  C   UNL     1       4.031  29.112  50.051  1.00  0.00     0.012 A 
HETATM   15  C   UNL     1       3.674  28.925  51.385  1.00  0.00     0.051 A 
ENDBRANCH   7   9
ENDBRANCH   5   7
ENDBRANCH   2   5
BRANCH   1  16
HETATM   16  C   UNL     1       7.118  24.520  54.237  1.00  0.00     0.032 A 
HETATM   17  C   UNL     1       7.476  24.054  52.966  1.00  0.00     0.017 A 
HETATM   18  C   UNL     1       7.854  22.719  52.792  1.00  0.00     0.007 A 
HETATM   19  C   UNL     1       7.880  21.838  53.880  1.00  0.00    -0.062 A 
HETATM   20  C   UNL     1       8.305  20.410  53.701  1.00  0.00     0.048 C 
HETATM   21  C   UNL     1       7.561  22.320  55.155  1.00  0.00     0.007 A 
HETATM   22  C   UNL     1       7.184  23.652  55.333  1.00  0.00     0.017 A 
ENDBRANCH   1  16
TORSDOF 4
ENDMDL
MODEL 10
REMARK VINA RESULT:      -7.0      5.075      9.532
REMARK  4 active torsions:
REMARK  status: ('A' for Active; 'I' for Inactive)
REMARK    1  A    between atoms: C_5  and  C_6 
REMARK       I    between atoms: C_6  and  N_7 
REMARK    2  A    between atoms: N_7  and  C_8 
REMARK    3  A    between atoms: C_8  and  N_9 
REMARK    4  A    between atoms: N_9  and  C_10 
ROOT
HETATM    1  C   UNL     1       7.018  32.109  60.110  1.00  0.00     0.257 C 
HETATM    2  N   UNL     1       8.224  31.528  59.728  1.00  0.00    -0.299 N 
HETATM    3  O   UNL     1       6.025  32.248  59.407  1.00  0.00    -0.267 OA
HETATM    4  H   UNL     1       8.917  31.399  60.461  1.00  0.00     0.171 HD
ENDROOT
BRANCH   2   5
HETATM    5  C   UNL     1       8.644  31.010  58.520  1.00  0.00     0.180 C 
HETATM    6  S   UNL     1      10.203  30.969  57.919  1.00  0.00    -0.040 SA
BRANCH   5   7
HETATM    7  N   UNL     1       7.666  30.465  57.722  1.00  0.00    -0.318 N 
HETATM    8  H   UNL     1       7.000  31.146  57.376  1.00  0.00     0.170 HD
BRANCH   7   9
HETATM    9  C   UNL     1       7.488  29.134  57.325  1.00  0.00     0.129 A 
HETATM   10  N   UNL     1       7.880  28.133  58.145  1.00  0.00    -0.243 NA
HETATM   11  C   UNL     1       7.698  26.864  57.707  1.00  0.00     0.125 A 
HETATM   12  C   UNL     1       7.132  26.533  56.483  1.00  0.00    -0.044 A 
HETATM   13  C   UNL     1       6.993  25.111  56.042  1.00  0.00     0.049 C 
HETATM   14  C   UNL     1       6.740  27.585  55.656  1.00  0.00     0.012 A 
HETATM   15  C   UNL     1       6.916  28.900  56.080  1.00  0.00     0.051 A 
ENDBRANCH   7   9
ENDBRANCH   5   7
ENDBRANCH   2   5
BRANCH   1  16
HETATM   16  C   UNL     1       6.951  32.541  61.535  1.00  0.00     0.032 A 
HETATM   17  C   UNL     1       5.808  33.136  62.083  1.00  0.00     0.017 A 
HETATM   18  C   UNL     1       5.807  33.548  63.420  1.00  0.00     0.007 A 
HETATM   19  C   UNL     1       6.942  33.371  64.221  1.00  0.00    -0.062 A 
HETATM   20  C   UNL     1       6.938  33.792  65.660  1.00  0.00     0.048 C 
HETATM   21  C   UNL     1       8.068  32.739  63.679  1.00  0.00     0.007 A 
HETATM   22  C   UNL     1       8.072  32.325  62.345  1.00  0.00     0.017 A 
ENDBRANCH   1  16
TORSDOF 4
ENDMDL
