MODEL 1
REMARK VINA RESULT:     -10.5      0.000      0.000
REMARK  5 active torsions:
REMARK  status: ('A' for Active; 'I' for Inactive)
REMARK    1  A    between atoms: C_7  and  C_8 
REMARK    2  A    between atoms: C_16  and  C_17 
REMARK    3  A    between atoms: C_19  and  O_20 
REMARK    4  A    between atoms: C_24  and  C_25 
REMARK       I    between atoms: C_25  and  N_26 
REMARK    5  A    between atoms: N_26  and  C_27 
ROOT
HETATM    1  C   UNL     1       9.838  31.687  58.588  1.00  0.00     0.070 C 
HETATM    2  C   UNL     1       8.816  30.658  58.172  1.00  0.00     0.037 C 
HETATM    3  N   UNL     1       9.296  29.628  57.358  1.00  0.00    -0.192 N 
HETATM    4  C   UNL     1       8.598  28.490  57.160  1.00  0.00     0.726 A 
HETATM    5  N   UNL     1       7.279  28.455  57.501  1.00  0.00    -0.083 N 
HETATM    6  N   UNL     1       6.758  27.221  57.369  1.00  0.00    -0.135 NA
HETATM    7  C   UNL     1       7.818  26.542  56.889  1.00  0.00     0.199 A 
HETATM    8  N   UNL     1       8.965  27.308  56.740  1.00  0.00    -0.041 NA
HETATM    9  C   UNL     1       6.549  29.599  58.045  1.00  0.00     0.202 C 
HETATM   10  C   UNL     1       7.510  30.672  58.550  1.00  0.00     0.062 C 
HETATM   11  H   UNL     1      10.306  29.581  57.240  1.00  0.00     0.184 HD
ENDROOT
BRANCH  10  12
HETATM   12  C   UNL     1       7.035  31.578  59.645  1.00  0.00     0.256 C 
HETATM   13  N   UNL     1       7.183  31.075  60.919  1.00  0.00    -0.323 N 
HETATM   14  H   UNL     1       7.486  30.116  61.031  1.00  0.00     0.169 HD
HETATM   15  O   UNL     1       6.618  32.693  59.354  1.00  0.00    -0.267 OA
BRANCH  13  16
HETATM   16  C   UNL     1       6.971  31.759  62.137  1.00  0.00     0.035 A 
HETATM   17  C   UNL     1       5.715  31.983  62.706  1.00  0.00     0.029 A 
HETATM   18  C   UNL     1       5.595  32.691  63.905  1.00  0.00     0.002 A 
HETATM   19  C   UNL     1       6.727  33.189  64.545  1.00  0.00     0.000 A 
HETATM   20  C   UNL     1       7.984  32.971  63.988  1.00  0.00     0.002 A 
HETATM   21  C   UNL     1       8.105  32.254  62.794  1.00  0.00     0.029 A 
ENDBRANCH  13  16
ENDBRANCH  10  12
BRANCH   9  22
HETATM   22  C   UNL     1       5.569  30.109  56.985  1.00  0.00    -0.025 A 
HETATM   23  C   UNL     1       5.756  29.857  55.612  1.00  0.00     0.046 A 
HETATM   24  C   UNL     1       4.852  30.362  54.680  1.00  0.00     0.066 A 
HETATM   25  C   UNL     1       3.749  31.101  55.084  1.00  0.00     0.036 A 
HETATM   26  C   UNL     1       3.536  31.336  56.440  1.00  0.00     0.003 A 
HETATM   27  C   UNL     1       4.437  30.842  57.386  1.00  0.00     0.010 A 
BRANCH  24  28
HETATM   28  O   UNL     1       5.018  30.151  53.343  1.00  0.00    -0.361 OA
HETATM   29  H   UNL     1       5.874  29.715  53.192  1.00  0.00     0.217 HD
ENDBRANCH  24  28
ENDBRANCH   9  22
BRANCH   7  30
HETATM   30  C   UNL     1       7.793  25.110  56.600  1.00  0.00     0.014 A 
HETATM   31  C   UNL     1       8.477  24.198  57.420  1.00  0.00     0.017 A 
HETATM   32  C   UNL     1       8.471  22.830  57.127  1.00  0.00     0.025 A 
HETATM   33  C   UNL     1       7.780  22.367  56.009  1.00  0.00     0.034 A 
HETATM   34 CL   UNL     1       7.780  20.686  55.641  1.00  0.00    -0.084 Cl
HETATM   35  C   UNL     1       7.095  23.256  55.185  1.00  0.00     0.025 A 
HETATM   36  C   UNL     1       7.100  24.624  55.482  1.00  0.00     0.017 A 
ENDBRANCH   7  30
TORSDOF 5
ENDMDL
MODEL 2
REMARK VINA RESULT:      -9.9      3.216      6.231
REMARK  5 active torsions:
REMARK  status: ('A' for Active; 'I' for Inactive)
REMARK    1  A    between atoms: C_7  and  C_8 
REMARK    2  A    between atoms: C_16  and  C_17 
REMARK    3  A    between atoms: C_19  and  O_20 
REMARK    4  A    between atoms: C_24  and  C_25 
REMARK       I    between atoms: C_25  and  N_26 
REMARK    5  A    between atoms: N_26  and  C_27 
ROOT
HETATM    1  C   UNL     1       2.889  29.682  56.784  1.00  0.00     0.070 C 
HETATM    2  C   UNL     1       4.212  29.075  56.388  1.00  0.00     0.037 C 
HETATM    3  N   UNL     1       4.336  27.701  56.616  1.00  0.00    -0.192 N 
HETATM    4  C   UNL     1       5.315  26.968  56.047  1.00  0.00     0.726 A 
HETATM    5  N   UNL     1       6.381  27.609  55.487  1.00  0.00    -0.083 N 
HETATM    6  N   UNL     1       7.201  26.755  54.847  1.00  0.00    -0.135 NA
HETATM    7  C   UNL     1       6.595  25.577  55.095  1.00  0.00     0.199 A 
HETATM    8  N   UNL     1       5.433  25.682  55.846  1.00  0.00    -0.041 NA
HETATM    9  C   UNL     1       6.552  29.061  55.493  1.00  0.00     0.202 C 
HETATM   10  C   UNL     1       5.240  29.766  55.826  1.00  0.00     0.062 C 
HETATM   11  H   UNL     1       3.486  27.212  56.887  1.00  0.00     0.184 HD
ENDROOT
BRANCH  10  12
HETATM   12  C   UNL     1       5.039  31.154  55.301  1.00  0.00     0.256 C 
HETATM   13  N   UNL     1       4.492  31.223  54.039  1.00  0.00    -0.323 N 
HETATM   14  H   UNL     1       4.368  30.368  53.515  1.00  0.00     0.169 HD
HETATM   15  O   UNL     1       5.306  32.107  56.025  1.00  0.00    -0.267 OA
BRANCH  13  16
HETATM   16  C   UNL     1       4.051  32.383  53.362  1.00  0.00     0.035 A 
HETATM   17  C   UNL     1       4.829  33.111  52.459  1.00  0.00     0.029 A 
HETATM   18  C   UNL     1       4.319  34.262  51.851  1.00  0.00     0.002 A 
HETATM   19  C   UNL     1       3.031  34.701  52.143  1.00  0.00     0.000 A 
HETATM   20  C   UNL     1       2.245  33.982  53.040  1.00  0.00     0.002 A 
HETATM   21  C   UNL     1       2.751  32.826  53.641  1.00  0.00     0.029 A 
ENDBRANCH  13  16
ENDBRANCH  10  12
BRANCH   9  22
HETATM   22  C   UNL     1       7.696  29.419  56.447  1.00  0.00    -0.025 A 
HETATM   23  C   UNL     1       9.045  29.375  56.044  1.00  0.00     0.046 A 
HETATM   24  C   UNL     1      10.055  29.685  56.952  1.00  0.00     0.066 A 
HETATM   25  C   UNL     1       9.753  30.058  58.255  1.00  0.00     0.036 A 
HETATM   26  C   UNL     1       8.423  30.132  58.660  1.00  0.00     0.003 A 
HETATM   27  C   UNL     1       7.399  29.817  57.763  1.00  0.00     0.010 A 
BRANCH  24  28
HETATM   28  O   UNL     1      11.370  29.633  56.596  1.00  0.00    -0.361 OA
HETATM   29  H   UNL     1      11.809  30.456  56.871  1.00  0.00     0.217 HD
ENDBRANCH  24  28
ENDBRANCH   9  22
BRANCH   7  30
HETATM   30  C   UNL     1       7.077  24.298  54.579  1.00  0.00     0.014 A 
HETATM   31  C   UNL     1       7.274  23.204  55.435  1.00  0.00     0.017 A 
HETATM   32  C   UNL     1       7.759  21.989  54.942  1.00  0.00     0.025 A 
HETATM   33  C   UNL     1       8.052  21.862  53.586  1.00  0.00     0.034 A 
HETATM   34 CL   UNL     1       8.659  20.371  52.979  1.00  0.00    -0.084 Cl
HETATM   35  C   UNL     1       7.862  22.936  52.721  1.00  0.00     0.025 A 
HETATM   36  C   UNL     1       7.374  24.150  53.216  1.00  0.00     0.017 A 
ENDBRANCH   7  30
TORSDOF 5
ENDMDL
MODEL 3
REMARK VINA RESULT:      -9.7      5.061     10.007
REMARK  5 active torsions:
REMARK  status: ('A' for Active; 'I' for Inactive)
REMARK    1  A    between atoms: C_7  and  C_8 
REMARK    2  A    between atoms: C_16  and  C_17 
REMARK    3  A    between atoms: C_19  and  O_20 
REMARK    4  A    between atoms: C_24  and  C_25 
REMARK       I    between atoms: C_25  and  N_26 
REMARK    5  A    between atoms: N_26  and  C_27 
ROOT
HETATM    1  C   UNL     1       3.889  34.918  59.214  1.00  0.00     0.070 C 
HETATM    2  C   UNL     1       4.578  34.219  60.360  1.00  0.00     0.037 C 
HETATM    3  N   UNL     1       4.932  35.036  61.438  1.00  0.00    -0.192 N 
HETATM    4  C   UNL     1       5.268  34.525  62.641  1.00  0.00     0.726 A 
HETATM    5  N   UNL     1       5.563  33.198  62.737  1.00  0.00    -0.083 N 
HETATM    6  N   UNL     1       5.746  32.815  64.015  1.00  0.00    -0.135 NA
HETATM    7  C   UNL     1       5.590  33.987  64.662  1.00  0.00     0.199 A 
HETATM    8  N   UNL     1       5.306  35.061  63.832  1.00  0.00    -0.041 NA
HETATM    9  C   UNL     1       5.575  32.282  61.597  1.00  0.00     0.202 C 
HETATM   10  C   UNL     1       4.842  32.886  60.403  1.00  0.00     0.062 C 
HETATM   11  H   UNL     1       4.570  35.986  61.420  1.00  0.00     0.184 HD
ENDROOT
BRANCH  10  12
HETATM   12  C   UNL     1       4.221  31.946  59.415  1.00  0.00     0.256 C 
HETATM   13  N   UNL     1       5.019  31.624  58.340  1.00  0.00    -0.323 N 
HETATM   14  H   UNL     1       5.899  32.109  58.225  1.00  0.00     0.169 HD
HETATM   15  O   UNL     1       3.106  31.491  59.648  1.00  0.00    -0.267 OA
BRANCH  13  16
HETATM   16  C   UNL     1       4.762  30.653  57.346  1.00  0.00     0.035 A 
HETATM   17  C   UNL     1       5.163  29.317  57.429  1.00  0.00     0.029 A 
HETATM   18  C   UNL     1       4.886  28.427  56.387  1.00  0.00     0.002 A 
HETATM   19  C   UNL     1       4.212  28.863  55.249  1.00  0.00     0.000 A 
HETATM   20  C   UNL     1       3.806  30.192  55.156  1.00  0.00     0.002 A 
HETATM   21  C   UNL     1       4.074  31.079  56.202  1.00  0.00     0.029 A 
ENDBRANCH  13  16
ENDBRANCH  10  12
BRANCH   9  22
HETATM   22  C   UNL     1       7.025  31.894  61.291  1.00  0.00    -0.025 A 
HETATM   23  C   UNL     1       7.708  32.390  60.162  1.00  0.00     0.046 A 
HETATM   24  C   UNL     1       9.018  31.991  59.909  1.00  0.00     0.066 A 
HETATM   25  C   UNL     1       9.676  31.119  60.764  1.00  0.00     0.036 A 
HETATM   26  C   UNL     1       9.024  30.642  61.898  1.00  0.00     0.003 A 
HETATM   27  C   UNL     1       7.707  31.027  62.163  1.00  0.00     0.010 A 
BRANCH  24  28
HETATM   28  O   UNL     1       9.697  32.439  58.815  1.00  0.00    -0.361 OA
HETATM   29  H   UNL     1       9.129  33.046  58.312  1.00  0.00     0.217 HD
ENDBRANCH  24  28
ENDBRANCH   9  22
BRANCH   7  30
HETATM   30  C   UNL     1       5.658  34.119  66.115  1.00  0.00     0.014 A 
HETATM   31  C   UNL     1       4.488  34.145  66.891  1.00  0.00     0.017 A 
HETATM   32  C   UNL     1       4.555  34.295  68.279  1.00  0.00     0.025 A 
HETATM   33  C   UNL     1       5.795  34.424  68.901  1.00  0.00     0.034 A 
HETATM   34 CL   UNL     1       5.879  34.620  70.608  1.00  0.00    -0.084 Cl
HETATM   35  C   UNL     1       6.966  34.399  68.149  1.00  0.00     0.025 A 
HETATM   36  C   UNL     1       6.897  34.246  66.760  1.00  0.00     0.017 A 
ENDBRANCH   7  30
TORSDOF 5
ENDMDL
MODEL 4
REMARK VINA RESULT:      -9.6      7.434     11.109
REMARK  5 active torsions:
REMARK  status: ('A' for Active; 'I' for Inactive)
REMARK    1  A    between atoms: C_7  and  C_8 
REMARK    2  A    between atoms: C_16  and  C_17 
REMARK    3  A    between atoms: C_19  and  O_20 
REMARK    4  A    between atoms: C_24  and  C_25 
REMARK       I    between atoms: C_25  and  N_26 
REMARK    5  A    between atoms: N_26  and  C_27 
ROOT
HETATM    1  C   UNL     1       4.338  28.133  53.626  1.00  0.00     0.070 C 
HETATM    2  C   UNL     1       4.477  28.448  52.157  1.00  0.00     0.037 C 
HETATM    3  N   UNL     1       4.305  29.791  51.811  1.00  0.00    -0.192 N 
HETATM    4  C   UNL     1       4.694  30.274  50.612  1.00  0.00     0.726 A 
HETATM    5  N   UNL     1       4.978  29.399  49.606  1.00  0.00    -0.083 N 
HETATM    6  N   UNL     1       5.476  30.023  48.523  1.00  0.00    -0.135 NA
HETATM    7  C   UNL     1       5.428  31.310  48.920  1.00  0.00     0.199 A 
HETATM    8  N   UNL     1       4.937  31.492  50.204  1.00  0.00    -0.041 NA
HETATM    9  C   UNL     1       4.854  27.948  49.731  1.00  0.00     0.202 C 
HETATM   10  C   UNL     1       4.768  27.530  51.197  1.00  0.00     0.062 C 
HETATM   11  H   UNL     1       4.249  30.451  52.583  1.00  0.00     0.184 HD
ENDROOT
BRANCH  10  12
HETATM   12  C   UNL     1       5.245  26.158  51.562  1.00  0.00     0.256 C 
HETATM   13  N   UNL     1       6.351  26.127  52.382  1.00  0.00    -0.323 N 
HETATM   14  H   UNL     1       6.827  26.995  52.590  1.00  0.00     0.169 HD
HETATM   15  O   UNL     1       4.608  25.184  51.174  1.00  0.00    -0.267 OA
BRANCH  13  16
HETATM   16  C   UNL     1       6.919  24.994  53.008  1.00  0.00     0.035 A 
HETATM   17  C   UNL     1       7.767  24.086  52.370  1.00  0.00     0.029 A 
HETATM   18  C   UNL     1       8.267  22.977  53.060  1.00  0.00     0.002 A 
HETATM   19  C   UNL     1       7.920  22.761  54.391  1.00  0.00     0.000 A 
HETATM   20  C   UNL     1       7.077  23.661  55.037  1.00  0.00     0.002 A 
HETATM   21  C   UNL     1       6.585  24.775  54.351  1.00  0.00     0.029 A 
ENDBRANCH  13  16
ENDBRANCH  10  12
BRANCH   9  22
HETATM   22  C   UNL     1       3.661  27.480  48.893  1.00  0.00    -0.025 A 
HETATM   23  C   UNL     1       3.784  26.474  47.914  1.00  0.00     0.046 A 
HETATM   24  C   UNL     1       2.678  26.096  47.157  1.00  0.00     0.066 A 
HETATM   25  C   UNL     1       1.438  26.686  47.363  1.00  0.00     0.036 A 
HETATM   26  C   UNL     1       1.294  27.663  48.346  1.00  0.00     0.003 A 
HETATM   27  C   UNL     1       2.396  28.057  49.108  1.00  0.00     0.010 A 
BRANCH  24  28
HETATM   28  O   UNL     1       2.771  25.140  46.191  1.00  0.00    -0.361 OA
HETATM   29  H   UNL     1       3.651  25.185  45.780  1.00  0.00     0.217 HD
ENDBRANCH  24  28
ENDBRANCH   9  22
BRANCH   7  30
HETATM   30  C   UNL     1       5.902  32.423  48.100  1.00  0.00     0.014 A 
HETATM   31  C   UNL     1       5.365  32.657  46.824  1.00  0.00     0.017 A 
HETATM   32  C   UNL     1       5.837  33.708  46.032  1.00  0.00     0.025 A 
HETATM   33  C   UNL     1       6.852  34.533  46.513  1.00  0.00     0.034 A 
HETATM   34 CL   UNL     1       7.441  35.821  45.536  1.00  0.00    -0.084 Cl
HETATM   35  C   UNL     1       7.395  34.318  47.777  1.00  0.00     0.025 A 
HETATM   36  C   UNL     1       6.920  33.267  48.568  1.00  0.00     0.017 A 
ENDBRANCH   7  30
TORSDOF 5
ENDMDL
MODEL 5
REMARK VINA RESULT:      -9.6      3.118      5.325
REMARK  5 active torsions:
REMARK  status: ('A' for Active; 'I' for Inactive)
REMARK    1  A    between atoms: C_7  and  C_8 
REMARK    2  A    between atoms: C_16  and  C_17 
REMARK    3  A    between atoms: C_19  and  O_20 
REMARK    4  A    between atoms: C_24  and  C_25 
REMARK       I    between atoms: C_25  and  N_26 
REMARK    5  A    between atoms: N_26  and  C_27 
ROOT
HETATM    1  C   UNL     1       2.715  29.453  56.785  1.00  0.00     0.070 C 
HETATM    2  C   UNL     1       4.061  28.888  56.400  1.00  0.00     0.037 C 
HETATM    3  N   UNL     1       4.224  27.518  56.624  1.00  0.00    -0.192 N 
HETATM    4  C   UNL     1       5.231  26.818  56.061  1.00  0.00     0.726 A 
HETATM    5  N   UNL     1       6.282  27.493  55.515  1.00  0.00    -0.083 N 
HETATM    6  N   UNL     1       7.134  26.667  54.880  1.00  0.00    -0.135 NA
HETATM    7  C   UNL     1       6.562  25.470  55.117  1.00  0.00     0.199 A 
HETATM    8  N   UNL     1       5.391  25.537  55.857  1.00  0.00    -0.041 NA
HETATM    9  C   UNL     1       6.409  28.950  55.529  1.00  0.00     0.202 C 
HETATM   10  C   UNL     1       5.072  29.612  55.851  1.00  0.00     0.062 C 
HETATM   11  H   UNL     1       3.387  27.002  56.884  1.00  0.00     0.184 HD
ENDROOT
BRANCH  10  12
HETATM   12  C   UNL     1       4.834  30.996  55.330  1.00  0.00     0.256 C 
HETATM   13  N   UNL     1       5.024  32.003  56.251  1.00  0.00    -0.323 N 
HETATM   14  H   UNL     1       5.197  31.754  57.216  1.00  0.00     0.169 HD
HETATM   15  O   UNL     1       4.554  31.145  54.146  1.00  0.00    -0.267 OA
BRANCH  13  16
HETATM   16  C   UNL     1       5.025  33.395  56.006  1.00  0.00     0.035 A 
HETATM   17  C   UNL     1       5.339  33.977  54.776  1.00  0.00     0.029 A 
HETATM   18  C   UNL     1       5.337  35.368  54.627  1.00  0.00     0.002 A 
HETATM   19  C   UNL     1       5.029  36.190  55.708  1.00  0.00     0.000 A 
HETATM   20  C   UNL     1       4.714  35.621  56.938  1.00  0.00     0.002 A 
HETATM   21  C   UNL     1       4.705  34.231  57.084  1.00  0.00     0.029 A 
ENDBRANCH  13  16
ENDBRANCH  10  12
BRANCH   9  22
HETATM   22  C   UNL     1       7.531  29.338  56.495  1.00  0.00    -0.025 A 
HETATM   23  C   UNL     1       7.293  29.560  57.866  1.00  0.00     0.046 A 
HETATM   24  C   UNL     1       8.339  29.937  58.705  1.00  0.00     0.066 A 
HETATM   25  C   UNL     1       9.629  30.083  58.214  1.00  0.00     0.036 A 
HETATM   26  C   UNL     1       9.886  29.841  56.867  1.00  0.00     0.003 A 
HETATM   27  C   UNL     1       8.845  29.469  56.012  1.00  0.00     0.010 A 
BRANCH  24  28
HETATM   28  O   UNL     1       8.135  30.176  60.031  1.00  0.00    -0.361 OA
HETATM   29  H   UNL     1       8.913  29.879  60.533  1.00  0.00     0.217 HD
ENDBRANCH  24  28
ENDBRANCH   9  22
BRANCH   7  30
HETATM   30  C   UNL     1       7.089  24.210  54.600  1.00  0.00     0.014 A 
HETATM   31  C   UNL     1       7.286  23.109  55.450  1.00  0.00     0.017 A 
HETATM   32  C   UNL     1       7.813  21.912  54.957  1.00  0.00     0.025 A 
HETATM   33  C   UNL     1       8.148  21.808  53.609  1.00  0.00     0.034 A 
HETATM   34 CL   UNL     1       8.806  20.339  53.002  1.00  0.00    -0.084 Cl
HETATM   35  C   UNL     1       7.958  22.888  52.750  1.00  0.00     0.025 A 
HETATM   36  C   UNL     1       7.428  24.084  53.245  1.00  0.00     0.017 A 
ENDBRANCH   7  30
TORSDOF 5
ENDMDL
MODEL 6
REMARK VINA RESULT:      -9.3      4.828      9.355
REMARK  5 active torsions:
REMARK  status: ('A' for Active; 'I' for Inactive)
REMARK    1  A    between atoms: C_7  and  C_8 
REMARK    2  A    between atoms: C_16  and  C_17 
REMARK    3  A    between atoms: C_19  and  O_20 
REMARK    4  A    between atoms: C_24  and  C_25 
REMARK       I    between atoms: C_25  and  N_26 
REMARK    5  A    between atoms: N_26  and  C_27 
ROOT
HETATM    1  C   UNL     1       6.520  25.641  51.880  1.00  0.00     0.070 C 
HETATM    2  C   UNL     1       6.141  26.716  52.869  1.00  0.00     0.037 C 
HETATM    3  N   UNL     1       5.781  27.946  52.311  1.00  0.00    -0.192 N 
HETATM    4  C   UNL     1       5.135  28.892  53.025  1.00  0.00     0.726 A 
HETATM    5  N   UNL     1       5.095  28.784  54.383  1.00  0.00    -0.083 N 
HETATM    6  N   UNL     1       4.306  29.722  54.939  1.00  0.00    -0.135 NA
HETATM    7  C   UNL     1       3.921  30.416  53.850  1.00  0.00     0.199 A 
HETATM    8  N   UNL     1       4.431  29.929  52.656  1.00  0.00    -0.041 NA
HETATM    9  C   UNL     1       5.747  27.711  55.134  1.00  0.00     0.202 C 
HETATM   10  C   UNL     1       6.113  26.547  54.218  1.00  0.00     0.062 C 
HETATM   11  H   UNL     1       5.667  27.966  51.301  1.00  0.00     0.184 HD
ENDROOT
BRANCH  10  12
HETATM   12  C   UNL     1       6.202  25.180  54.825  1.00  0.00     0.256 C 
HETATM   13  N   UNL     1       7.226  24.396  54.342  1.00  0.00    -0.323 N 
HETATM   14  H   UNL     1       7.768  24.733  53.556  1.00  0.00     0.169 HD
HETATM   15  O   UNL     1       5.425  24.878  55.724  1.00  0.00    -0.267 OA
BRANCH  13  16
HETATM   16  C   UNL     1       7.644  23.139  54.833  1.00  0.00     0.035 A 
HETATM   17  C   UNL     1       8.026  22.898  56.155  1.00  0.00     0.029 A 
HETATM   18  C   UNL     1       8.448  21.625  56.551  1.00  0.00     0.002 A 
HETATM   19  C   UNL     1       8.500  20.583  55.629  1.00  0.00     0.000 A 
HETATM   20  C   UNL     1       8.120  20.811  54.310  1.00  0.00     0.002 A 
HETATM   21  C   UNL     1       7.688  22.080  53.916  1.00  0.00     0.029 A 
ENDBRANCH  13  16
ENDBRANCH  10  12
BRANCH   9  22
HETATM   22  C   UNL     1       6.945  28.294  55.888  1.00  0.00    -0.025 A 
HETATM   23  C   UNL     1       6.920  28.505  57.281  1.00  0.00     0.046 A 
HETATM   24  C   UNL     1       8.024  29.061  57.923  1.00  0.00     0.066 A 
HETATM   25  C   UNL     1       9.167  29.400  57.212  1.00  0.00     0.036 A 
HETATM   26  C   UNL     1       9.217  29.172  55.839  1.00  0.00     0.003 A 
HETATM   27  C   UNL     1       8.115  28.622  55.180  1.00  0.00     0.010 A 
BRANCH  24  28
HETATM   28  O   UNL     1       8.021  29.294  59.266  1.00  0.00    -0.361 OA
HETATM   29  H   UNL     1       7.509  28.598  59.711  1.00  0.00     0.217 HD
ENDBRANCH  24  28
ENDBRANCH   9  22
BRANCH   7  30
HETATM   30  C   UNL     1       3.003  31.551  53.902  1.00  0.00     0.014 A 
HETATM   31  C   UNL     1       2.381  31.920  55.105  1.00  0.00     0.017 A 
HETATM   32  C   UNL     1       1.485  32.992  55.147  1.00  0.00     0.025 A 
HETATM   33  C   UNL     1       1.202  33.702  53.982  1.00  0.00     0.034 A 
HETATM   34 CL   UNL     1       0.091  35.014  54.029  1.00  0.00    -0.084 Cl
HETATM   35  C   UNL     1       1.810  33.352  52.779  1.00  0.00     0.025 A 
HETATM   36  C   UNL     1       2.709  32.280  52.740  1.00  0.00     0.017 A 
ENDBRANCH   7  30
TORSDOF 5
ENDMDL
MODEL 7
REMARK VINA RESULT:      -9.2      4.092      9.083
REMARK  5 active torsions:
REMARK  status: ('A' for Active; 'I' for Inactive)
REMARK    1  A    between atoms: C_7  and  C_8 
REMARK    2  A    between atoms: C_16  and  C_17 
REMARK    3  A    between atoms: C_19  and  O_20 
REMARK    4  A    between atoms: C_24  and  C_25 
REMARK       I    between atoms: C_25  and  N_26 
REMARK    5  A    between atoms: N_26  and  C_27 
ROOT
HETATM    1  C   UNL     1       4.945  28.713  53.921  1.00  0.00     0.070 C 
HETATM    2  C   UNL     1       5.424  29.378  55.187  1.00  0.00     0.037 C 
HETATM    3  N   UNL     1       5.131  30.740  55.300  1.00  0.00    -0.192 N 
HETATM    4  C   UNL     1       5.215  31.395  56.477  1.00  0.00     0.726 A 
HETATM    5  N   UNL     1       5.883  30.810  57.512  1.00  0.00    -0.083 N 
HETATM    6  N   UNL     1       5.766  31.520  58.650  1.00  0.00    -0.135 NA
HETATM    7  C   UNL     1       5.039  32.572  58.226  1.00  0.00     0.199 A 
HETATM    8  N   UNL     1       4.697  32.523  56.883  1.00  0.00    -0.041 NA
HETATM    9  C   UNL     1       6.555  29.515  57.419  1.00  0.00     0.202 C 
HETATM   10  C   UNL     1       6.082  28.740  56.191  1.00  0.00     0.062 C 
HETATM   11  H   UNL     1       4.503  31.124  54.598  1.00  0.00     0.184 HD
ENDROOT
BRANCH  10  12
HETATM   12  C   UNL     1       6.150  27.245  56.239  1.00  0.00     0.256 C 
HETATM   13  N   UNL     1       7.115  26.682  55.433  1.00  0.00    -0.323 N 
HETATM   14  H   UNL     1       7.625  27.279  54.795  1.00  0.00     0.169 HD
HETATM   15  O   UNL     1       5.413  26.641  57.011  1.00  0.00    -0.267 OA
BRANCH  13  16
HETATM   16  C   UNL     1       7.509  25.325  55.392  1.00  0.00     0.035 A 
HETATM   17  C   UNL     1       7.257  24.464  54.322  1.00  0.00     0.029 A 
HETATM   18  C   UNL     1       7.664  23.128  54.375  1.00  0.00     0.002 A 
HETATM   19  C   UNL     1       8.319  22.636  55.501  1.00  0.00     0.000 A 
HETATM   20  C   UNL     1       8.577  23.485  56.573  1.00  0.00     0.002 A 
HETATM   21  C   UNL     1       8.180  24.824  56.516  1.00  0.00     0.029 A 
ENDBRANCH  13  16
ENDBRANCH  10  12
BRANCH   9  22
HETATM   22  C   UNL     1       8.069  29.740  57.452  1.00  0.00    -0.025 A 
HETATM   23  C   UNL     1       8.648  30.825  58.140  1.00  0.00     0.046 A 
HETATM   24  C   UNL     1      10.029  31.006  58.123  1.00  0.00     0.066 A 
HETATM   25  C   UNL     1      10.856  30.119  57.449  1.00  0.00     0.036 A 
HETATM   26  C   UNL     1      10.301  29.026  56.787  1.00  0.00     0.003 A 
HETATM   27  C   UNL     1       8.917  28.835  56.789  1.00  0.00     0.010 A 
BRANCH  24  28
HETATM   28  O   UNL     1      10.615  32.057  58.764  1.00  0.00    -0.361 OA
HETATM   29  H   UNL     1      10.367  32.883  58.317  1.00  0.00     0.217 HD
ENDBRANCH  24  28
ENDBRANCH   9  22
BRANCH   7  30
HETATM   30  C   UNL     1       4.596  33.651  59.106  1.00  0.00     0.014 A 
HETATM   31  C   UNL     1       3.814  34.708  58.612  1.00  0.00     0.017 A 
HETATM   32  C   UNL     1       3.411  35.751  59.452  1.00  0.00     0.025 A 
HETATM   33  C   UNL     1       3.791  35.744  60.792  1.00  0.00     0.034 A 
HETATM   34 CL   UNL     1       3.305  37.033  61.824  1.00  0.00    -0.084 Cl
HETATM   35  C   UNL     1       4.565  34.704  61.300  1.00  0.00     0.025 A 
HETATM   36  C   UNL     1       4.964  33.660  60.459  1.00  0.00     0.017 A 
ENDBRANCH   7  30
TORSDOF 5
ENDMDL
MODEL 8
REMARK VINA RESULT:      -9.2      2.530      3.240
REMARK  5 active torsions:
REMARK  status: ('A' for Active; 'I' for Inactive)
REMARK    1  A    between atoms: C_7  and  C_8 
REMARK    2  A    between atoms: C_16  and  C_17 
REMARK    3  A    between atoms: C_19  and  O_20 
REMARK    4  A    between atoms: C_24  and  C_25 
REMARK       I    between atoms: C_25  and  N_26 
REMARK    5  A    between atoms: N_26  and  C_27 
ROOT
HETATM    1  C   UNL     1      10.279  32.250  60.507  1.00  0.00     0.070 C 
HETATM    2  C   UNL     1       9.145  31.586  59.766  1.00  0.00     0.037 C 
HETATM    3  N   UNL     1       9.445  31.151  58.472  1.00  0.00    -0.192 N 
HETATM    4  C   UNL     1       8.652  30.284  57.808  1.00  0.00     0.726 A 
HETATM    5  N   UNL     1       7.389  30.057  58.268  1.00  0.00    -0.083 N 
HETATM    6  N   UNL     1       6.774  29.075  57.583  1.00  0.00    -0.135 NA
HETATM    7  C   UNL     1       7.715  28.766  56.670  1.00  0.00     0.199 A 
HETATM    8  N   UNL     1       8.881  29.509  56.781  1.00  0.00    -0.041 NA
HETATM    9  C   UNL     1       6.814  30.729  59.433  1.00  0.00     0.202 C 
HETATM   10  C   UNL     1       7.903  31.382  60.281  1.00  0.00     0.062 C 
HETATM   11  H   UNL     1      10.425  31.186  58.202  1.00  0.00     0.184 HD
ENDROOT
BRANCH  10  12
HETATM   12  C   UNL     1       7.636  31.563  61.743  1.00  0.00     0.256 C 
HETATM   13  N   UNL     1       7.149  32.802  62.095  1.00  0.00    -0.323 N 
HETATM   14  H   UNL     1       7.109  33.527  61.390  1.00  0.00     0.169 HD
HETATM   15  O   UNL     1       7.804  30.612  62.500  1.00  0.00    -0.267 OA
BRANCH  13  16
HETATM   16  C   UNL     1       6.666  33.202  63.361  1.00  0.00     0.035 A 
HETATM   17  C   UNL     1       7.475  33.437  64.474  1.00  0.00     0.029 A 
HETATM   18  C   UNL     1       6.910  33.808  65.698  1.00  0.00     0.002 A 
HETATM   19  C   UNL     1       5.529  33.941  65.823  1.00  0.00     0.000 A 
HETATM   20  C   UNL     1       4.712  33.711  64.720  1.00  0.00     0.002 A 
HETATM   21  C   UNL     1       5.278  33.350  63.494  1.00  0.00     0.029 A 
ENDBRANCH  13  16
ENDBRANCH  10  12
BRANCH   9  22
HETATM   22  C   UNL     1       5.741  31.711  58.956  1.00  0.00    -0.025 A 
HETATM   23  C   UNL     1       4.610  32.019  59.739  1.00  0.00     0.046 A 
HETATM   24  C   UNL     1       3.646  32.900  59.255  1.00  0.00     0.066 A 
HETATM   25  C   UNL     1       3.788  33.500  58.012  1.00  0.00     0.036 A 
HETATM   26  C   UNL     1       4.913  33.228  57.239  1.00  0.00     0.003 A 
HETATM   27  C   UNL     1       5.886  32.341  57.707  1.00  0.00     0.010 A 
BRANCH  24  28
HETATM   28  O   UNL     1       2.532  33.201  59.981  1.00  0.00    -0.361 OA
HETATM   29  H   UNL     1       1.767  33.259  59.384  1.00  0.00     0.217 HD
ENDBRANCH  24  28
ENDBRANCH   9  22
BRANCH   7  30
HETATM   30  C   UNL     1       7.556  27.706  55.677  1.00  0.00     0.014 A 
HETATM   31  C   UNL     1       7.456  26.361  56.070  1.00  0.00     0.017 A 
HETATM   32  C   UNL     1       7.328  25.347  55.117  1.00  0.00     0.025 A 
HETATM   33  C   UNL     1       7.302  25.671  53.762  1.00  0.00     0.034 A 
HETATM   34 CL   UNL     1       7.155  24.423  52.587  1.00  0.00    -0.084 Cl
HETATM   35  C   UNL     1       7.398  26.999  53.354  1.00  0.00     0.025 A 
HETATM   36  C   UNL     1       7.523  28.013  54.309  1.00  0.00     0.017 A 
ENDBRANCH   7  30
TORSDOF 5
ENDMDL
MODEL 9
REMARK VINA RESULT:      -9.2      3.783      7.777
REMARK  5 active torsions:
REMARK  status: ('A' for Active; 'I' for Inactive)
REMARK    1  A    between atoms: C_7  and  C_8 
REMARK    2  A    between atoms: C_16  and  C_17 
REMARK    3  A    between atoms: C_19  and  O_20 
REMARK    4  A    between atoms: C_24  and  C_25 
REMARK       I    between atoms: C_25  and  N_26 
REMARK    5  A    between atoms: N_26  and  C_27 
ROOT
HETATM    1  C   UNL     1       2.313  28.926  51.647  1.00  0.00     0.070 C 
HETATM    2  C   UNL     1       3.475  28.465  52.492  1.00  0.00     0.037 C 
HETATM    3  N   UNL     1       3.439  27.124  52.884  1.00  0.00    -0.192 N 
HETATM    4  C   UNL     1       4.528  26.492  53.369  1.00  0.00     0.726 A 
HETATM    5  N   UNL     1       5.599  27.235  53.772  1.00  0.00    -0.083 N 
HETATM    6  N   UNL     1       6.650  26.462  54.103  1.00  0.00    -0.135 NA
HETATM    7  C   UNL     1       6.134  25.230  53.922  1.00  0.00     0.199 A 
HETATM    8  N   UNL     1       4.819  25.223  53.480  1.00  0.00    -0.041 NA
HETATM    9  C   UNL     1       5.632  28.696  53.745  1.00  0.00     0.202 C 
HETATM   10  C   UNL     1       4.521  29.253  52.858  1.00  0.00     0.062 C 
HETATM   11  H   UNL     1       2.721  26.548  52.451  1.00  0.00     0.184 HD
ENDROOT
BRANCH  10  12
HETATM   12  C   UNL     1       4.740  30.590  52.219  1.00  0.00     0.256 C 
HETATM   13  N   UNL     1       5.395  30.553  51.008  1.00  0.00    -0.323 N 
HETATM   14  H   UNL     1       5.776  29.673  50.687  1.00  0.00     0.169 HD
HETATM   15  O   UNL     1       4.284  31.590  52.763  1.00  0.00    -0.267 OA
BRANCH  13  16
HETATM   16  C   UNL     1       5.598  31.629  50.115  1.00  0.00     0.035 A 
HETATM   17  C   UNL     1       6.013  32.906  50.501  1.00  0.00     0.029 A 
HETATM   18  C   UNL     1       6.166  33.920  49.551  1.00  0.00     0.002 A 
HETATM   19  C   UNL     1       5.901  33.671  48.207  1.00  0.00     0.000 A 
HETATM   20  C   UNL     1       5.489  32.402  47.810  1.00  0.00     0.002 A 
HETATM   21  C   UNL     1       5.345  31.385  48.758  1.00  0.00     0.029 A 
ENDBRANCH  13  16
ENDBRANCH  10  12
BRANCH   9  22
HETATM   22  C   UNL     1       5.582  29.218  55.184  1.00  0.00    -0.025 A 
HETATM   23  C   UNL     1       4.364  29.429  55.860  1.00  0.00     0.046 A 
HETATM   24  C   UNL     1       4.366  29.929  57.160  1.00  0.00     0.066 A 
HETATM   25  C   UNL     1       5.557  30.209  57.815  1.00  0.00     0.036 A 
HETATM   26  C   UNL     1       6.769  29.980  57.170  1.00  0.00     0.003 A 
HETATM   27  C   UNL     1       6.784  29.485  55.863  1.00  0.00     0.010 A 
BRANCH  24  28
HETATM   28  O   UNL     1       3.203  30.162  57.833  1.00  0.00    -0.361 OA
HETATM   29  H   UNL     1       3.335  30.895  58.456  1.00  0.00     0.217 HD
ENDBRANCH  24  28
ENDBRANCH   9  22
BRANCH   7  30
HETATM   30  C   UNL     1       6.898  24.000  54.116  1.00  0.00     0.014 A 
HETATM   31  C   UNL     1       7.365  23.261  53.018  1.00  0.00     0.017 A 
HETATM   32  C   UNL     1       8.076  22.072  53.207  1.00  0.00     0.025 A 
HETATM   33  C   UNL     1       8.323  21.614  54.499  1.00  0.00     0.034 A 
HETATM   34 CL   UNL     1       9.188  20.145  54.734  1.00  0.00    -0.084 Cl
HETATM   35  C   UNL     1       7.870  22.334  55.601  1.00  0.00     0.025 A 
HETATM   36  C   UNL     1       7.161  23.525  55.409  1.00  0.00     0.017 A 
ENDBRANCH   7  30
TORSDOF 5
ENDMDL
MODEL 10
REMARK VINA RESULT:      -8.9      4.633      7.609
REMARK  5 active torsions:
REMARK  status: ('A' for Active; 'I' for Inactive)
REMARK    1  A    between atoms: C_7  and  C_8 
REMARK    2  A    between atoms: C_16  and  C_17 
REMARK    3  A    between atoms: C_19  and  O_20 
REMARK    4  A    between atoms: C_24  and  C_25 
REMARK       I    between atoms: C_25  and  N_26 
REMARK    5  A    between atoms: N_26  and  C_27 
ROOT
HETATM    1  C   UNL     1       3.664  28.414  49.344  1.00  0.00     0.070 C 
HETATM    2  C   UNL     1       4.417  28.055  50.600  1.00  0.00     0.037 C 
HETATM    3  N   UNL     1       4.277  26.732  51.029  1.00  0.00    -0.192 N 
HETATM    4  C   UNL     1       5.111  26.184  51.938  1.00  0.00     0.726 A 
HETATM    5  N   UNL     1       5.912  27.001  52.679  1.00  0.00    -0.083 N 
HETATM    6  N   UNL     1       6.775  26.303  53.439  1.00  0.00    -0.135 NA
HETATM    7  C   UNL     1       6.414  25.037  53.148  1.00  0.00     0.199 A 
HETATM    8  N   UNL     1       5.378  24.939  52.231  1.00  0.00    -0.041 NA
HETATM    9  C   UNL     1       5.903  28.460  52.577  1.00  0.00     0.202 C 
HETATM   10  C   UNL     1       5.209  28.915  51.296  1.00  0.00     0.062 C 
HETATM   11  H   UNL     1       3.806  26.099  50.388  1.00  0.00     0.184 HD
ENDROOT
BRANCH  10  12
HETATM   12  C   UNL     1       5.615  30.233  50.711  1.00  0.00     0.256 C 
HETATM   13  N   UNL     1       4.902  31.317  51.175  1.00  0.00    -0.323 N 
HETATM   14  H   UNL     1       4.104  31.154  51.775  1.00  0.00     0.169 HD
HETATM   15  O   UNL     1       6.560  30.271  49.931  1.00  0.00    -0.267 OA
BRANCH  13  16
HETATM   16  C   UNL     1       5.165  32.682  50.924  1.00  0.00     0.035 A 
HETATM   17  C   UNL     1       5.192  33.257  49.651  1.00  0.00     0.029 A 
HETATM   18  C   UNL     1       5.484  34.615  49.492  1.00  0.00     0.002 A 
HETATM   19  C   UNL     1       5.758  35.411  50.601  1.00  0.00     0.000 A 
HETATM   20  C   UNL     1       5.732  34.849  51.875  1.00  0.00     0.002 A 
HETATM   21  C   UNL     1       5.431  33.494  52.035  1.00  0.00     0.029 A 
ENDBRANCH  13  16
ENDBRANCH  10  12
BRANCH   9  22
HETATM   22  C   UNL     1       5.277  29.039  53.848  1.00  0.00    -0.025 A 
HETATM   23  C   UNL     1       5.963  29.054  55.079  1.00  0.00     0.046 A 
HETATM   24  C   UNL     1       5.345  29.569  56.217  1.00  0.00     0.066 A 
HETATM   25  C   UNL     1       4.060  30.089  56.156  1.00  0.00     0.036 A 
HETATM   26  C   UNL     1       3.379  30.107  54.942  1.00  0.00     0.003 A 
HETATM   27  C   UNL     1       3.983  29.588  53.794  1.00  0.00     0.010 A 
BRANCH  24  28
HETATM   28  O   UNL     1       5.977  29.579  57.424  1.00  0.00    -0.361 OA
HETATM   29  H   UNL     1       5.392  29.980  58.089  1.00  0.00     0.217 HD
ENDBRANCH  24  28
ENDBRANCH   9  22
BRANCH   7  30
HETATM   30  C   UNL     1       7.083  23.862  53.700  1.00  0.00     0.014 A 
HETATM   31  C   UNL     1       7.734  22.944  52.860  1.00  0.00     0.017 A 
HETATM   32  C   UNL     1       8.353  21.807  53.389  1.00  0.00     0.025 A 
HETATM   33  C   UNL     1       8.323  21.580  54.764  1.00  0.00     0.034 A 
HETATM   34 CL   UNL     1       9.075  20.177  55.415  1.00  0.00    -0.084 Cl
HETATM   35  C   UNL     1       7.684  22.481  55.612  1.00  0.00     0.025 A 
HETATM   36  C   UNL     1       7.067  23.619  55.081  1.00  0.00     0.017 A 
ENDBRANCH   7  30
TORSDOF 5
ENDMDL
