MODEL 1
REMARK VINA RESULT:      -7.8      0.000      0.000
REMARK  5 active torsions:
REMARK  status: ('A' for Active; 'I' for Inactive)
REMARK    1  A    between atoms: C_8  and  N_9 
REMARK       I    between atoms: N_9  and  C_10 
REMARK       I    between atoms: C_10  and  N_11 
REMARK    2  A    between atoms: N_11  and  C_12 
REMARK    3  A    between atoms: C_13  and  O_14 
REMARK    4  A    between atoms: O_14  and  C_15 
REMARK    5  A    between atoms: C_15  and  C_16 
ROOT
HETATM    1  N   UNL     1       7.114  26.114  52.963  1.00  0.00    -0.305 N 
HETATM    2  C   UNL     1       6.875  24.805  53.341  1.00  0.00     0.325 C 
HETATM    3  N   UNL     1       8.057  24.083  53.330  1.00  0.00    -0.306 N 
HETATM    4  O   UNL     1       5.783  24.349  53.649  1.00  0.00    -0.247 OA
HETATM    5  H   UNL     1       8.057  26.447  53.089  1.00  0.00     0.171 HD
HETATM    6  H   UNL     1       8.832  24.486  52.820  1.00  0.00     0.171 HD
ENDROOT
BRANCH   3   7
HETATM    7  C   UNL     1       8.263  22.754  53.761  1.00  0.00     0.069 A 
HETATM    8  C   UNL     1       8.832  22.570  55.034  1.00  0.00     0.095 A 
HETATM    9  C   UNL     1       9.028  21.290  55.557  1.00  0.00     0.039 A 
HETATM   10  C   UNL     1       8.689  20.176  54.793  1.00  0.00     0.003 A 
HETATM   11  C   UNL     1       8.143  20.346  53.521  1.00  0.00     0.002 A 
HETATM   12  C   UNL     1       7.925  21.630  53.008  1.00  0.00     0.032 A 
BRANCH   8  13
HETATM   13  O   UNL     1       9.147  23.689  55.767  1.00  0.00    -0.340 OA
BRANCH  13  14
HETATM   14  C   UNL     1       8.399  23.742  56.997  1.00  0.00     0.293 C 
BRANCH  14  15
HETATM   15  C   UNL     1       7.576  25.019  57.046  1.00  0.00     0.408 C 
HETATM   16  F   UNL     1       6.273  24.773  56.775  1.00  0.00    -0.169 F 
HETATM   17  F   UNL     1       7.643  25.610  58.258  1.00  0.00    -0.169 F 
HETATM   18  F   UNL     1       8.022  25.910  56.132  1.00  0.00    -0.169 F 
ENDBRANCH  14  15
ENDBRANCH  13  14
ENDBRANCH   8  13
ENDBRANCH   3   7
BRANCH   1  19
HETATM   19  C   UNL     1       6.160  27.086  52.710  1.00  0.00     0.086 A 
HETATM   20  C   UNL     1       5.954  28.155  53.563  1.00  0.00     0.052 A 
HETATM   21  C   UNL     1       6.575  28.550  54.849  1.00  0.00     0.072 C 
HETATM   22  N   UNL     1       4.959  28.898  52.995  1.00  0.00    -0.280 N 
HETATM   23  H   UNL     1       4.538  29.752  53.344  1.00  0.00     0.189 HD
HETATM   24  N   UNL     1       4.519  28.414  51.832  1.00  0.00    -0.177 NA
HETATM   25  C   UNL     1       5.247  27.305  51.636  1.00  0.00     0.079 A 
HETATM   26  C   UNL     1       5.042  26.545  50.377  1.00  0.00     0.075 C 
ENDBRANCH   1  19
TORSDOF 5
ENDMDL
MODEL 2
REMARK VINA RESULT:      -7.6      7.804     10.491
REMARK  5 active torsions:
REMARK  status: ('A' for Active; 'I' for Inactive)
REMARK    1  A    between atoms: C_8  and  N_9 
REMARK       I    between atoms: N_9  and  C_10 
REMARK       I    between atoms: C_10  and  N_11 
REMARK    2  A    between atoms: N_11  and  C_12 
REMARK    3  A    between atoms: C_13  and  O_14 
REMARK    4  A    between atoms: O_14  and  C_15 
REMARK    5  A    between atoms: C_15  and  C_16 
ROOT
HETATM    1  N   UNL     1       7.891  30.014  59.456  1.00  0.00    -0.305 N 
HETATM    2  C   UNL     1       7.706  31.200  60.143  1.00  0.00     0.325 C 
HETATM    3  N   UNL     1       7.290  30.940  61.438  1.00  0.00    -0.306 N 
HETATM    4  O   UNL     1       7.889  32.318  59.682  1.00  0.00    -0.247 OA
HETATM    5  H   UNL     1       8.061  29.197  60.019  1.00  0.00     0.171 HD
HETATM    6  H   UNL     1       6.929  30.014  61.623  1.00  0.00     0.171 HD
ENDROOT
BRANCH   3   7
HETATM    7  C   UNL     1       7.105  31.864  62.489  1.00  0.00     0.069 A 
HETATM    8  C   UNL     1       5.782  32.187  62.840  1.00  0.00     0.095 A 
HETATM    9  C   UNL     1       5.509  33.056  63.898  1.00  0.00     0.039 A 
HETATM   10  C   UNL     1       6.563  33.643  64.594  1.00  0.00     0.003 A 
HETATM   11  C   UNL     1       7.879  33.348  64.242  1.00  0.00     0.002 A 
HETATM   12  C   UNL     1       8.151  32.457  63.197  1.00  0.00     0.032 A 
BRANCH   8  13
HETATM   13  O   UNL     1       4.765  31.584  62.140  1.00  0.00    -0.340 OA
BRANCH  13  14
HETATM   14  C   UNL     1       3.835  32.554  61.621  1.00  0.00     0.293 C 
BRANCH  14  15
HETATM   15  C   UNL     1       4.158  32.849  60.165  1.00  0.00     0.408 C 
HETATM   16  F   UNL     1       5.143  33.771  60.058  1.00  0.00    -0.169 F 
HETATM   17  F   UNL     1       4.557  31.739  59.507  1.00  0.00    -0.169 F 
HETATM   18  F   UNL     1       3.072  33.335  59.523  1.00  0.00    -0.169 F 
ENDBRANCH  14  15
ENDBRANCH  13  14
ENDBRANCH   8  13
ENDBRANCH   3   7
BRANCH   1  19
HETATM   19  C   UNL     1       8.152  29.879  58.102  1.00  0.00     0.086 A 
HETATM   20  C   UNL     1       7.155  29.608  57.183  1.00  0.00     0.052 A 
HETATM   21  C   UNL     1       5.696  29.385  57.317  1.00  0.00     0.072 C 
HETATM   22  N   UNL     1       7.774  29.556  55.967  1.00  0.00    -0.280 N 
HETATM   23  H   UNL     1       7.359  29.369  55.060  1.00  0.00     0.189 HD
HETATM   24  N   UNL     1       9.086  29.795  56.016  1.00  0.00    -0.177 NA
HETATM   25  C   UNL     1       9.338  30.002  57.317  1.00  0.00     0.079 A 
HETATM   26  C   UNL     1      10.724  30.358  57.715  1.00  0.00     0.075 C 
ENDBRANCH   1  19
TORSDOF 5
ENDMDL
MODEL 3
REMARK VINA RESULT:      -7.5      2.823      6.660
REMARK  5 active torsions:
REMARK  status: ('A' for Active; 'I' for Inactive)
REMARK    1  A    between atoms: C_8  and  N_9 
REMARK       I    between atoms: N_9  and  C_10 
REMARK       I    between atoms: C_10  and  N_11 
REMARK    2  A    between atoms: N_11  and  C_12 
REMARK    3  A    between atoms: C_13  and  O_14 
REMARK    4  A    between atoms: O_14  and  C_15 
REMARK    5  A    between atoms: C_15  and  C_16 
ROOT
HETATM    1  N   UNL     1       7.236  22.640  55.346  1.00  0.00    -0.305 N 
HETATM    2  C   UNL     1       7.776  23.898  55.538  1.00  0.00     0.325 C 
HETATM    3  N   UNL     1       6.786  24.862  55.442  1.00  0.00    -0.306 N 
HETATM    4  O   UNL     1       8.955  24.132  55.766  1.00  0.00    -0.247 OA
HETATM    5  H   UNL     1       6.249  22.548  55.528  1.00  0.00     0.171 HD
HETATM    6  H   UNL     1       5.920  24.582  55.001  1.00  0.00     0.171 HD
ENDROOT
BRANCH   3   7
HETATM    7  C   UNL     1       6.901  26.247  55.688  1.00  0.00     0.069 A 
HETATM    8  C   UNL     1       7.036  27.092  54.573  1.00  0.00     0.095 A 
HETATM    9  C   UNL     1       7.110  28.479  54.724  1.00  0.00     0.039 A 
HETATM   10  C   UNL     1       7.085  29.033  56.001  1.00  0.00     0.003 A 
HETATM   11  C   UNL     1       6.972  28.203  57.116  1.00  0.00     0.002 A 
HETATM   12  C   UNL     1       6.874  26.816  56.962  1.00  0.00     0.032 A 
BRANCH   8  13
HETATM   13  O   UNL     1       7.048  26.515  53.325  1.00  0.00    -0.340 OA
BRANCH  13  14
HETATM   14  C   UNL     1       5.770  26.644  52.673  1.00  0.00     0.293 C 
BRANCH  14  15
HETATM   15  C   UNL     1       5.240  25.268  52.303  1.00  0.00     0.408 C 
HETATM   16  F   UNL     1       6.217  24.334  52.364  1.00  0.00    -0.169 F 
HETATM   17  F   UNL     1       4.242  24.879  53.126  1.00  0.00    -0.169 F 
HETATM   18  F   UNL     1       4.751  25.266  51.042  1.00  0.00    -0.169 F 
ENDBRANCH  14  15
ENDBRANCH  13  14
ENDBRANCH   8  13
ENDBRANCH   3   7
BRANCH   1  19
HETATM   19  C   UNL     1       7.938  21.453  55.217  1.00  0.00     0.086 A 
HETATM   20  C   UNL     1       8.473  20.792  56.308  1.00  0.00     0.052 A 
HETATM   21  C   UNL     1       8.491  21.095  57.759  1.00  0.00     0.072 C 
HETATM   22  N   UNL     1       9.075  19.673  55.808  1.00  0.00    -0.280 N 
HETATM   23  H   UNL     1       9.581  18.954  56.314  1.00  0.00     0.189 HD
HETATM   24  N   UNL     1       8.955  19.539  54.485  1.00  0.00    -0.177 NA
HETATM   25  C   UNL     1       8.254  20.618  54.104  1.00  0.00     0.079 A 
HETATM   26  C   UNL     1       7.890  20.747  52.670  1.00  0.00     0.075 C 
ENDBRANCH   1  19
TORSDOF 5
ENDMDL
MODEL 4
REMARK VINA RESULT:      -7.5      4.104      5.759
REMARK  5 active torsions:
REMARK  status: ('A' for Active; 'I' for Inactive)
REMARK    1  A    between atoms: C_8  and  N_9 
REMARK       I    between atoms: N_9  and  C_10 
REMARK       I    between atoms: C_10  and  N_11 
REMARK    2  A    between atoms: N_11  and  C_12 
REMARK    3  A    between atoms: C_13  and  O_14 
REMARK    4  A    between atoms: O_14  and  C_15 
REMARK    5  A    between atoms: C_15  and  C_16 
ROOT
HETATM    1  N   UNL     1       8.254  28.723  57.675  1.00  0.00    -0.305 N 
HETATM    2  C   UNL     1       7.748  28.391  56.432  1.00  0.00     0.325 C 
HETATM    3  N   UNL     1       7.418  27.047  56.395  1.00  0.00    -0.306 N 
HETATM    4  O   UNL     1       7.604  29.169  55.499  1.00  0.00    -0.247 OA
HETATM    5  H   UNL     1       7.990  28.119  58.438  1.00  0.00     0.171 HD
HETATM    6  H   UNL     1       7.814  26.461  57.118  1.00  0.00     0.171 HD
ENDROOT
BRANCH   3   7
HETATM    7  C   UNL     1       6.768  26.343  55.358  1.00  0.00     0.069 A 
HETATM    8  C   UNL     1       7.208  25.035  55.091  1.00  0.00     0.095 A 
HETATM    9  C   UNL     1       6.591  24.252  54.113  1.00  0.00     0.039 A 
HETATM   10  C   UNL     1       5.546  24.787  53.364  1.00  0.00     0.003 A 
HETATM   11  C   UNL     1       5.115  26.091  53.605  1.00  0.00     0.002 A 
HETATM   12  C   UNL     1       5.719  26.865  54.602  1.00  0.00     0.032 A 
BRANCH   8  13
HETATM   13  O   UNL     1       8.236  24.532  55.854  1.00  0.00    -0.340 OA
BRANCH  13  14
HETATM   14  C   UNL     1       8.760  23.313  55.295  1.00  0.00     0.293 C 
BRANCH  14  15
HETATM   15  C   UNL     1       8.435  22.144  56.210  1.00  0.00     0.408 C 
HETATM   16  F   UNL     1       8.331  22.544  57.498  1.00  0.00    -0.169 F 
HETATM   17  F   UNL     1       7.272  21.549  55.866  1.00  0.00    -0.169 F 
HETATM   18  F   UNL     1       9.406  21.205  56.150  1.00  0.00    -0.169 F 
ENDBRANCH  14  15
ENDBRANCH  13  14
ENDBRANCH   8  13
ENDBRANCH   3   7
BRANCH   1  19
HETATM   19  C   UNL     1       8.830  29.931  58.034  1.00  0.00     0.086 A 
HETATM   20  C   UNL     1      10.135  30.250  57.705  1.00  0.00     0.052 A 
HETATM   21  C   UNL     1      11.200  29.514  56.985  1.00  0.00     0.072 C 
HETATM   22  N   UNL     1      10.350  31.502  58.205  1.00  0.00    -0.280 N 
HETATM   23  H   UNL     1      11.198  32.058  58.163  1.00  0.00     0.189 HD
HETATM   24  N   UNL     1       9.286  32.033  58.812  1.00  0.00    -0.177 NA
HETATM   25  C   UNL     1       8.340  31.086  58.712  1.00  0.00     0.079 A 
HETATM   26  C   UNL     1       6.987  31.388  59.246  1.00  0.00     0.075 C 
ENDBRANCH   1  19
TORSDOF 5
ENDMDL
MODEL 5
REMARK VINA RESULT:      -7.5      1.986      2.715
REMARK  5 active torsions:
REMARK  status: ('A' for Active; 'I' for Inactive)
REMARK    1  A    between atoms: C_8  and  N_9 
REMARK       I    between atoms: N_9  and  C_10 
REMARK       I    between atoms: C_10  and  N_11 
REMARK    2  A    between atoms: N_11  and  C_12 
REMARK    3  A    between atoms: C_13  and  O_14 
REMARK    4  A    between atoms: O_14  and  C_15 
REMARK    5  A    between atoms: C_15  and  C_16 
ROOT
HETATM    1  N   UNL     1       5.819  26.725  50.968  1.00  0.00    -0.305 N 
HETATM    2  C   UNL     1       5.850  25.632  51.816  1.00  0.00     0.325 C 
HETATM    3  N   UNL     1       7.160  25.294  52.109  1.00  0.00    -0.306 N 
HETATM    4  O   UNL     1       4.866  25.051  52.252  1.00  0.00    -0.247 OA
HETATM    5  H   UNL     1       6.635  27.316  50.976  1.00  0.00     0.171 HD
HETATM    6  H   UNL     1       7.874  25.669  51.500  1.00  0.00     0.171 HD
ENDROOT
BRANCH   3   7
HETATM    7  C   UNL     1       7.618  24.320  53.022  1.00  0.00     0.069 A 
HETATM    8  C   UNL     1       7.816  24.727  54.354  1.00  0.00     0.095 A 
HETATM    9  C   UNL     1       8.224  23.817  55.332  1.00  0.00     0.039 A 
HETATM   10  C   UNL     1       8.474  22.494  54.978  1.00  0.00     0.003 A 
HETATM   11  C   UNL     1       8.301  22.083  53.657  1.00  0.00     0.002 A 
HETATM   12  C   UNL     1       7.869  22.990  52.683  1.00  0.00     0.032 A 
BRANCH   8  13
HETATM   13  O   UNL     1       7.552  26.037  54.673  1.00  0.00    -0.340 OA
BRANCH  13  14
HETATM   14  C   UNL     1       7.122  26.170  56.042  1.00  0.00     0.293 C 
BRANCH  14  15
HETATM   15  C   UNL     1       5.606  26.263  56.100  1.00  0.00     0.408 C 
HETATM   16  F   UNL     1       5.098  26.722  54.933  1.00  0.00    -0.169 F 
HETATM   17  F   UNL     1       5.042  25.062  56.354  1.00  0.00    -0.169 F 
HETATM   18  F   UNL     1       5.215  27.111  57.077  1.00  0.00    -0.169 F 
ENDBRANCH  14  15
ENDBRANCH  13  14
ENDBRANCH   8  13
ENDBRANCH   3   7
BRANCH   1  19
HETATM   19  C   UNL     1       4.701  27.249  50.340  1.00  0.00     0.086 A 
HETATM   20  C   UNL     1       3.837  28.119  50.981  1.00  0.00     0.052 A 
HETATM   21  C   UNL     1       3.809  28.682  52.351  1.00  0.00     0.072 C 
HETATM   22  N   UNL     1       2.873  28.429  50.064  1.00  0.00    -0.280 N 
HETATM   23  H   UNL     1       2.068  29.034  50.182  1.00  0.00     0.189 HD
HETATM   24  N   UNL     1       3.052  27.852  48.874  1.00  0.00    -0.177 NA
HETATM   25  C   UNL     1       4.173  27.128  49.020  1.00  0.00     0.079 A 
HETATM   26  C   UNL     1       4.692  26.394  47.839  1.00  0.00     0.075 C 
ENDBRANCH   1  19
TORSDOF 5
ENDMDL
MODEL 6
REMARK VINA RESULT:      -7.3      2.114      3.285
REMARK  5 active torsions:
REMARK  status: ('A' for Active; 'I' for Inactive)
REMARK    1  A    between atoms: C_8  and  N_9 
REMARK       I    between atoms: N_9  and  C_10 
REMARK       I    between atoms: C_10  and  N_11 
REMARK    2  A    between atoms: N_11  and  C_12 
REMARK    3  A    between atoms: C_13  and  O_14 
REMARK    4  A    between atoms: O_14  and  C_15 
REMARK    5  A    between atoms: C_15  and  C_16 
ROOT
HETATM    1  N   UNL     1       4.881  25.791  51.262  1.00  0.00    -0.305 N 
HETATM    2  C   UNL     1       6.067  25.425  51.872  1.00  0.00     0.325 C 
HETATM    3  N   UNL     1       5.834  24.429  52.805  1.00  0.00    -0.306 N 
HETATM    4  O   UNL     1       7.164  25.904  51.623  1.00  0.00    -0.247 OA
HETATM    5  H   UNL     1       4.142  25.106  51.279  1.00  0.00     0.171 HD
HETATM    6  H   UNL     1       4.877  24.300  53.105  1.00  0.00     0.171 HD
ENDROOT
BRANCH   3   7
HETATM    7  C   UNL     1       6.788  23.705  53.554  1.00  0.00     0.069 A 
HETATM    8  C   UNL     1       6.856  23.964  54.934  1.00  0.00     0.095 A 
HETATM    9  C   UNL     1       7.739  23.261  55.756  1.00  0.00     0.039 A 
HETATM   10  C   UNL     1       8.591  22.312  55.196  1.00  0.00     0.003 A 
HETATM   11  C   UNL     1       8.547  22.061  53.825  1.00  0.00     0.002 A 
HETATM   12  C   UNL     1       7.645  22.751  53.007  1.00  0.00     0.032 A 
BRANCH   8  13
HETATM   13  O   UNL     1       5.995  24.899  55.458  1.00  0.00    -0.340 OA
BRANCH  13  14
HETATM   14  C   UNL     1       6.710  25.956  56.129  1.00  0.00     0.293 C 
BRANCH  14  15
HETATM   15  C   UNL     1       6.780  27.180  55.232  1.00  0.00     0.408 C 
HETATM   16  F   UNL     1       6.928  28.312  55.958  1.00  0.00    -0.169 F 
HETATM   17  F   UNL     1       7.815  27.106  54.365  1.00  0.00    -0.169 F 
HETATM   18  F   UNL     1       5.648  27.307  54.504  1.00  0.00    -0.169 F 
ENDBRANCH  14  15
ENDBRANCH  13  14
ENDBRANCH   8  13
ENDBRANCH   3   7
BRANCH   1  19
HETATM   19  C   UNL     1       4.696  26.855  50.394  1.00  0.00     0.086 A 
HETATM   20  C   UNL     1       4.098  26.700  49.156  1.00  0.00     0.052 A 
HETATM   21  C   UNL     1       3.557  25.520  48.441  1.00  0.00     0.072 C 
HETATM   22  N   UNL     1       4.077  27.944  48.594  1.00  0.00    -0.280 N 
HETATM   23  H   UNL     1       3.721  28.214  47.683  1.00  0.00     0.189 HD
HETATM   24  N   UNL     1       4.588  28.899  49.373  1.00  0.00    -0.177 NA
HETATM   25  C   UNL     1       4.968  28.253  50.486  1.00  0.00     0.079 A 
HETATM   26  C   UNL     1       5.535  29.052  51.602  1.00  0.00     0.075 C 
ENDBRANCH   1  19
TORSDOF 5
ENDMDL
MODEL 7
REMARK VINA RESULT:      -7.3      2.232      6.048
REMARK  5 active torsions:
REMARK  status: ('A' for Active; 'I' for Inactive)
REMARK    1  A    between atoms: C_8  and  N_9 
REMARK       I    between atoms: N_9  and  C_10 
REMARK       I    between atoms: C_10  and  N_11 
REMARK    2  A    between atoms: N_11  and  C_12 
REMARK    3  A    between atoms: C_13  and  O_14 
REMARK    4  A    between atoms: O_14  and  C_15 
REMARK    5  A    between atoms: C_15  and  C_16 
ROOT
HETATM    1  N   UNL     1       7.190  22.654  55.002  1.00  0.00    -0.305 N 
HETATM    2  C   UNL     1       7.275  23.642  54.038  1.00  0.00     0.325 C 
HETATM    3  N   UNL     1       6.253  24.560  54.206  1.00  0.00    -0.306 N 
HETATM    4  O   UNL     1       8.132  23.704  53.167  1.00  0.00    -0.247 OA
HETATM    5  H   UNL     1       6.695  22.898  55.845  1.00  0.00     0.171 HD
HETATM    6  H   UNL     1       5.472  24.273  54.780  1.00  0.00     0.171 HD
ENDROOT
BRANCH   3   7
HETATM    7  C   UNL     1       6.056  25.772  53.508  1.00  0.00     0.069 A 
HETATM    8  C   UNL     1       6.692  26.919  54.016  1.00  0.00     0.095 A 
HETATM    9  C   UNL     1       6.588  28.149  53.363  1.00  0.00     0.039 A 
HETATM   10  C   UNL     1       5.813  28.252  52.211  1.00  0.00     0.003 A 
HETATM   11  C   UNL     1       5.161  27.126  51.709  1.00  0.00     0.002 A 
HETATM   12  C   UNL     1       5.286  25.889  52.352  1.00  0.00     0.032 A 
BRANCH   8  13
HETATM   13  O   UNL     1       7.457  26.783  55.150  1.00  0.00    -0.340 OA
BRANCH  13  14
HETATM   14  C   UNL     1       6.783  27.316  56.307  1.00  0.00     0.293 C 
BRANCH  14  15
HETATM   15  C   UNL     1       7.706  27.259  57.513  1.00  0.00     0.408 C 
HETATM   16  F   UNL     1       9.005  27.234  57.135  1.00  0.00    -0.169 F 
HETATM   17  F   UNL     1       7.532  28.323  58.326  1.00  0.00    -0.169 F 
HETATM   18  F   UNL     1       7.472  26.145  58.243  1.00  0.00    -0.169 F 
ENDBRANCH  14  15
ENDBRANCH  13  14
ENDBRANCH   8  13
ENDBRANCH   3   7
BRANCH   1  19
HETATM   19  C   UNL     1       7.941  21.491  55.059  1.00  0.00     0.086 A 
HETATM   20  C   UNL     1       8.445  20.998  56.248  1.00  0.00     0.052 A 
HETATM   21  C   UNL     1       8.380  21.483  57.647  1.00  0.00     0.072 C 
HETATM   22  N   UNL     1       9.112  19.851  55.923  1.00  0.00    -0.280 N 
HETATM   23  H   UNL     1       9.618  19.224  56.540  1.00  0.00     0.189 HD
HETATM   24  N   UNL     1       9.062  19.546  54.625  1.00  0.00    -0.177 NA
HETATM   25  C   UNL     1       8.342  20.536  54.077  1.00  0.00     0.079 A 
HETATM   26  C   UNL     1       8.045  20.466  52.624  1.00  0.00     0.075 C 
ENDBRANCH   1  19
TORSDOF 5
ENDMDL
MODEL 8
REMARK VINA RESULT:      -7.3      1.952      6.088
REMARK  5 active torsions:
REMARK  status: ('A' for Active; 'I' for Inactive)
REMARK    1  A    between atoms: C_8  and  N_9 
REMARK       I    between atoms: N_9  and  C_10 
REMARK       I    between atoms: C_10  and  N_11 
REMARK    2  A    between atoms: N_11  and  C_12 
REMARK    3  A    between atoms: C_13  and  O_14 
REMARK    4  A    between atoms: O_14  and  C_15 
REMARK    5  A    between atoms: C_15  and  C_16 
ROOT
HETATM    1  N   UNL     1       6.748  23.440  54.382  1.00  0.00    -0.305 N 
HETATM    2  C   UNL     1       6.836  24.338  53.334  1.00  0.00     0.325 C 
HETATM    3  N   UNL     1       5.618  24.968  53.144  1.00  0.00    -0.306 N 
HETATM    4  O   UNL     1       7.842  24.553  52.673  1.00  0.00    -0.247 OA
HETATM    5  H   UNL     1       6.017  23.612  55.054  1.00  0.00     0.171 HD
HETATM    6  H   UNL     1       4.809  24.533  53.566  1.00  0.00     0.171 HD
ENDROOT
BRANCH   3   7
HETATM    7  C   UNL     1       5.321  26.029  52.260  1.00  0.00     0.069 A 
HETATM    8  C   UNL     1       5.143  27.306  52.821  1.00  0.00     0.095 A 
HETATM    9  C   UNL     1       4.892  28.418  52.016  1.00  0.00     0.039 A 
HETATM   10  C   UNL     1       4.780  28.256  50.637  1.00  0.00     0.003 A 
HETATM   11  C   UNL     1       4.935  26.992  50.071  1.00  0.00     0.002 A 
HETATM   12  C   UNL     1       5.210  25.882  50.878  1.00  0.00     0.032 A 
BRANCH   8  13
HETATM   13  O   UNL     1       5.268  27.434  54.184  1.00  0.00    -0.340 OA
BRANCH  13  14
HETATM   14  C   UNL     1       6.204  28.473  54.532  1.00  0.00     0.293 C 
BRANCH  14  15
HETATM   15  C   UNL     1       7.586  27.874  54.736  1.00  0.00     0.408 C 
HETATM   16  F   UNL     1       7.523  26.727  55.451  1.00  0.00    -0.169 F 
HETATM   17  F   UNL     1       8.188  27.597  53.559  1.00  0.00    -0.169 F 
HETATM   18  F   UNL     1       8.385  28.732  55.410  1.00  0.00    -0.169 F 
ENDBRANCH  14  15
ENDBRANCH  13  14
ENDBRANCH   8  13
ENDBRANCH   3   7
BRANCH   1  19
HETATM   19  C   UNL     1       7.713  22.521  54.763  1.00  0.00     0.086 A 
HETATM   20  C   UNL     1       8.398  22.626  55.960  1.00  0.00     0.052 A 
HETATM   21  C   UNL     1       8.353  23.617  57.061  1.00  0.00     0.072 C 
HETATM   22  N   UNL     1       9.246  21.557  55.998  1.00  0.00    -0.280 N 
HETATM   23  H   UNL     1       9.913  21.311  56.723  1.00  0.00     0.189 HD
HETATM   24  N   UNL     1       9.152  20.752  54.938  1.00  0.00    -0.177 NA
HETATM   25  C   UNL     1       8.211  21.323  54.170  1.00  0.00     0.079 A 
HETATM   26  C   UNL     1       7.817  20.633  52.915  1.00  0.00     0.075 C 
ENDBRANCH   1  19
TORSDOF 5
ENDMDL
MODEL 9
REMARK VINA RESULT:      -7.2      2.904      4.123
REMARK  5 active torsions:
REMARK  status: ('A' for Active; 'I' for Inactive)
REMARK    1  A    between atoms: C_8  and  N_9 
REMARK       I    between atoms: N_9  and  C_10 
REMARK       I    between atoms: C_10  and  N_11 
REMARK    2  A    between atoms: N_11  and  C_12 
REMARK    3  A    between atoms: C_13  and  O_14 
REMARK    4  A    between atoms: O_14  and  C_15 
REMARK    5  A    between atoms: C_15  and  C_16 
ROOT
HETATM    1  N   UNL     1       7.399  27.441  56.667  1.00  0.00    -0.305 N 
HETATM    2  C   UNL     1       7.075  26.096  56.681  1.00  0.00     0.325 C 
HETATM    3  N   UNL     1       8.029  25.369  55.990  1.00  0.00    -0.306 N 
HETATM    4  O   UNL     1       6.094  25.614  57.229  1.00  0.00    -0.247 OA
HETATM    5  H   UNL     1       8.371  27.661  56.516  1.00  0.00     0.171 HD
HETATM    6  H   UNL     1       8.639  25.889  55.372  1.00  0.00     0.171 HD
ENDROOT
BRANCH   3   7
HETATM    7  C   UNL     1       8.129  23.966  55.871  1.00  0.00     0.069 A 
HETATM    8  C   UNL     1       8.050  23.420  54.578  1.00  0.00     0.095 A 
HETATM    9  C   UNL     1       8.184  22.047  54.365  1.00  0.00     0.039 A 
HETATM   10  C   UNL     1       8.364  21.198  55.455  1.00  0.00     0.003 A 
HETATM   11  C   UNL     1       8.424  21.725  56.744  1.00  0.00     0.002 A 
HETATM   12  C   UNL     1       8.313  23.104  56.952  1.00  0.00     0.032 A 
BRANCH   8  13
HETATM   13  O   UNL     1       7.881  24.285  53.523  1.00  0.00    -0.340 OA
BRANCH  13  14
HETATM   14  C   UNL     1       6.614  24.078  52.869  1.00  0.00     0.293 C 
BRANCH  14  15
HETATM   15  C   UNL     1       5.653  25.195  53.240  1.00  0.00     0.408 C 
HETATM   16  F   UNL     1       4.980  24.906  54.378  1.00  0.00    -0.169 F 
HETATM   17  F   UNL     1       6.299  26.367  53.427  1.00  0.00    -0.169 F 
HETATM   18  F   UNL     1       4.739  25.386  52.262  1.00  0.00    -0.169 F 
ENDBRANCH  14  15
ENDBRANCH  13  14
ENDBRANCH   8  13
ENDBRANCH   3   7
BRANCH   1  19
HETATM   19  C   UNL     1       6.607  28.484  57.119  1.00  0.00     0.086 A 
HETATM   20  C   UNL     1       7.085  29.447  57.990  1.00  0.00     0.052 A 
HETATM   21  C   UNL     1       8.397  29.646  58.649  1.00  0.00     0.072 C 
HETATM   22  N   UNL     1       6.044  30.305  58.202  1.00  0.00    -0.280 N 
HETATM   23  H   UNL     1       6.022  31.129  58.794  1.00  0.00     0.189 HD
HETATM   24  N   UNL     1       4.938  29.994  57.523  1.00  0.00    -0.177 NA
HETATM   25  C   UNL     1       5.265  28.882  56.847  1.00  0.00     0.079 A 
HETATM   26  C   UNL     1       4.254  28.298  55.929  1.00  0.00     0.075 C 
ENDBRANCH   1  19
TORSDOF 5
ENDMDL
MODEL 10
REMARK VINA RESULT:      -7.2      1.859      6.156
REMARK  5 active torsions:
REMARK  status: ('A' for Active; 'I' for Inactive)
REMARK    1  A    between atoms: C_8  and  N_9 
REMARK       I    between atoms: N_9  and  C_10 
REMARK       I    between atoms: C_10  and  N_11 
REMARK    2  A    between atoms: N_11  and  C_12 
REMARK    3  A    between atoms: C_13  and  O_14 
REMARK    4  A    between atoms: O_14  and  C_15 
REMARK    5  A    between atoms: C_15  and  C_16 
ROOT
HETATM    1  N   UNL     1       8.193  23.458  53.719  1.00  0.00    -0.305 N 
HETATM    2  C   UNL     1       7.086  24.268  53.550  1.00  0.00     0.325 C 
HETATM    3  N   UNL     1       7.385  25.310  52.688  1.00  0.00    -0.306 N 
HETATM    4  O   UNL     1       5.996  24.092  54.078  1.00  0.00    -0.247 OA
HETATM    5  H   UNL     1       8.882  23.488  52.984  1.00  0.00     0.171 HD
HETATM    6  H   UNL     1       8.365  25.499  52.525  1.00  0.00     0.171 HD
ENDROOT
BRANCH   3   7
HETATM    7  C   UNL     1       6.503  26.282  52.168  1.00  0.00     0.069 A 
HETATM    8  C   UNL     1       6.532  27.560  52.756  1.00  0.00     0.095 A 
HETATM    9  C   UNL     1       5.726  28.593  52.274  1.00  0.00     0.039 A 
HETATM   10  C   UNL     1       4.853  28.347  51.217  1.00  0.00     0.003 A 
HETATM   11  C   UNL     1       4.801  27.079  50.639  1.00  0.00     0.002 A 
HETATM   12  C   UNL     1       5.626  26.051  51.108  1.00  0.00     0.032 A 
BRANCH   8  13
HETATM   13  O   UNL     1       7.410  27.773  53.791  1.00  0.00    -0.340 OA
BRANCH  13  14
HETATM   14  C   UNL     1       6.750  28.358  54.931  1.00  0.00     0.293 C 
BRANCH  14  15
HETATM   15  C   UNL     1       6.510  27.294  55.989  1.00  0.00     0.408 C 
HETATM   16  F   UNL     1       6.432  27.839  57.224  1.00  0.00    -0.169 F 
HETATM   17  F   UNL     1       5.365  26.614  55.763  1.00  0.00    -0.169 F 
HETATM   18  F   UNL     1       7.521  26.395  56.002  1.00  0.00    -0.169 F 
ENDBRANCH  14  15
ENDBRANCH  13  14
ENDBRANCH   8  13
ENDBRANCH   3   7
BRANCH   1  19
HETATM   19  C   UNL     1       8.321  22.414  54.621  1.00  0.00     0.086 A 
HETATM   20  C   UNL     1       8.399  21.095  54.215  1.00  0.00     0.052 A 
HETATM   21  C   UNL     1       8.358  20.448  52.882  1.00  0.00     0.072 C 
HETATM   22  N   UNL     1       8.527  20.359  55.358  1.00  0.00    -0.280 N 
HETATM   23  H   UNL     1       8.601  19.352  55.451  1.00  0.00     0.189 HD
HETATM   24  N   UNL     1       8.562  21.093  56.473  1.00  0.00    -0.177 NA
HETATM   25  C   UNL     1       8.444  22.358  56.042  1.00  0.00     0.079 A 
HETATM   26  C   UNL     1       8.508  23.450  57.047  1.00  0.00     0.075 C 
ENDBRANCH   1  19
TORSDOF 5
ENDMDL
