MODEL 1
REMARK VINA RESULT:     -10.1      0.000      0.000
REMARK  9 active torsions:
REMARK  status: ('A' for Active; 'I' for Inactive)
REMARK    1  A    between atoms: C_2  and  C_3 
REMARK    2  A    between atoms: C_6  and  C_7 
REMARK    3  A    between atoms: C_7  and  C_8 
REMARK    4  A    between atoms: C_8  and  N_9 
REMARK    5  A    between atoms: N_9  and  C_11 
REMARK    6  A    between atoms: N_9  and  C_25 
REMARK    7  A    between atoms: C_11  and  C_12 
REMARK       I    between atoms: C_12  and  N_13 
REMARK    8  A    between atoms: N_13  and  C_14 
REMARK    9  A    between atoms: C_17  and  N_18 
REMARK       I    between atoms: N_18  and  C_19 
ROOT
HETATM    1  N   UNL     1       8.128  29.009  57.600  1.00  0.00    -0.056 N 
HETATM    2  H   UNL     1       7.691  28.629  58.455  1.00  0.00     0.280 HD
ENDROOT
BRANCH   1   3
HETATM    3  C   UNL     1       8.644  27.767  56.825  1.00  0.00     0.319 C 
BRANCH   3   4
HETATM    4  C   UNL     1       8.010  26.497  57.370  1.00  0.00     0.187 C 
HETATM    5  O   UNL     1       7.459  26.583  58.475  1.00  0.00    -0.290 OA
BRANCH   4   6
HETATM    6  C   UNL     1       8.175  25.218  56.690  1.00  0.00     0.039 A 
HETATM    7  C   UNL     1       7.909  24.807  55.334  1.00  0.00     0.006 A 
HETATM    8  C   UNL     1       8.378  23.493  55.202  1.00  0.00     0.049 A 
HETATM    9  C   UNL     1       7.329  25.408  54.194  1.00  0.00     0.015 A 
HETATM   10  C   UNL     1       8.352  22.770  53.992  1.00  0.00    -0.031 A 
HETATM   11  N   UNL     1       8.826  23.093  56.439  1.00  0.00    -0.364 N 
HETATM   12  C   UNL     1       7.786  23.421  52.885  1.00  0.00     0.009 A 
HETATM   13  C   UNL     1       7.278  24.710  52.982  1.00  0.00     0.002 A 
HETATM   14  C   UNL     1       8.712  24.116  57.334  1.00  0.00     0.104 A 
HETATM   15  H   UNL     1       9.193  22.173  56.644  1.00  0.00     0.165 HD
BRANCH  10  16
HETATM   16  C   UNL     1       8.868  21.358  53.848  1.00  0.00     0.036 C 
HETATM   17  C   UNL     1       8.088  20.579  52.801  1.00  0.00     0.010 C 
ENDBRANCH  10  16
ENDBRANCH   4   6
ENDBRANCH   3   4
ENDBRANCH   1   3
BRANCH   1  18
HETATM   18  C   UNL     1       9.300  29.889  58.097  1.00  0.00     0.338 C 
BRANCH  18  19
HETATM   19  C   UNL     1       8.854  31.084  58.953  1.00  0.00     0.248 C 
HETATM   20  N   UNL     1       7.952  30.757  59.947  1.00  0.00    -0.326 N 
HETATM   21  H   UNL     1       7.464  29.869  59.894  1.00  0.00     0.169 HD
HETATM   22  O   UNL     1       9.347  32.192  58.752  1.00  0.00    -0.271 OA
BRANCH  20  23
HETATM   23  C   UNL     1       7.556  31.582  61.024  1.00  0.00     0.034 A 
HETATM   24  C   UNL     1       8.285  31.484  62.212  1.00  0.00     0.032 A 
HETATM   25  C   UNL     1       7.961  32.276  63.323  1.00  0.00     0.032 A 
HETATM   26  C   UNL     1       6.911  33.191  63.259  1.00  0.00     0.034 A 
HETATM   27  C   UNL     1       6.195  33.302  62.064  1.00  0.00     0.032 A 
HETATM   28  C   UNL     1       6.512  32.505  60.956  1.00  0.00     0.032 A 
BRANCH  26  29
HETATM   29  N   UNL     1       6.511  34.013  64.332  1.00  0.00    -0.328 N 
HETATM   30  C   UNL     1       5.374  33.888  65.109  1.00  0.00     0.218 C 
HETATM   31  C   UNL     1       5.255  34.974  66.149  1.00  0.00     0.117 C 
HETATM   32  O   UNL     1       4.531  33.000  65.033  1.00  0.00    -0.274 OA
HETATM   33  H   UNL     1       7.127  34.786  64.553  1.00  0.00     0.169 HD
ENDBRANCH  26  29
ENDBRANCH  20  23
ENDBRANCH  18  19
ENDBRANCH   1  18
BRANCH   1  34
HETATM   34  C   UNL     1       7.101  29.798  56.825  1.00  0.00     0.231 C 
HETATM   35  C   UNL     1       5.705  29.465  57.322  1.00  0.00     0.034 C 
ENDBRANCH   1  34
TORSDOF 9
ENDMDL
MODEL 2
REMARK VINA RESULT:     -10.0      1.298      1.841
REMARK  9 active torsions:
REMARK  status: ('A' for Active; 'I' for Inactive)
REMARK    1  A    between atoms: C_2  and  C_3 
REMARK    2  A    between atoms: C_6  and  C_7 
REMARK    3  A    between atoms: C_7  and  C_8 
REMARK    4  A    between atoms: C_8  and  N_9 
REMARK    5  A    between atoms: N_9  and  C_11 
REMARK    6  A    between atoms: N_9  and  C_25 
REMARK    7  A    between atoms: C_11  and  C_12 
REMARK       I    between atoms: C_12  and  N_13 
REMARK    8  A    between atoms: N_13  and  C_14 
REMARK    9  A    between atoms: C_17  and  N_18 
REMARK       I    between atoms: N_18  and  C_19 
ROOT
HETATM    1  N   UNL     1       8.342  29.597  57.365  1.00  0.00    -0.056 N 
HETATM    2  H   UNL     1       7.752  30.425  57.184  1.00  0.00     0.280 HD
ENDROOT
BRANCH   1   3
HETATM    3  C   UNL     1       7.343  28.433  57.600  1.00  0.00     0.319 C 
BRANCH   3   4
HETATM    4  C   UNL     1       6.819  27.904  56.274  1.00  0.00     0.187 C 
HETATM    5  O   UNL     1       6.201  28.707  55.562  1.00  0.00    -0.290 OA
BRANCH   4   6
HETATM    6  C   UNL     1       6.915  26.490  55.933  1.00  0.00     0.039 A 
HETATM    7  C   UNL     1       7.261  25.816  54.707  1.00  0.00     0.006 A 
HETATM    8  C   UNL     1       7.318  24.446  54.990  1.00  0.00     0.049 A 
HETATM    9  C   UNL     1       7.542  26.217  53.380  1.00  0.00     0.015 A 
HETATM   10  C   UNL     1       7.692  23.465  54.049  1.00  0.00    -0.031 A 
HETATM   11  N   UNL     1       6.941  24.285  56.303  1.00  0.00    -0.364 N 
HETATM   12  C   UNL     1       7.983  23.920  52.753  1.00  0.00     0.009 A 
HETATM   13  C   UNL     1       7.904  25.266  52.421  1.00  0.00     0.002 A 
HETATM   14  C   UNL     1       6.701  25.499  56.876  1.00  0.00     0.104 A 
HETATM   15  H   UNL     1       6.863  23.390  56.770  1.00  0.00     0.165 HD
BRANCH  10  16
HETATM   16  C   UNL     1       7.765  21.989  54.359  1.00  0.00     0.036 C 
HETATM   17  C   UNL     1       8.057  21.167  53.114  1.00  0.00     0.010 C 
ENDBRANCH  10  16
ENDBRANCH   4   6
ENDBRANCH   3   4
ENDBRANCH   1   3
BRANCH   1  18
HETATM   18  C   UNL     1       9.130  29.931  58.654  1.00  0.00     0.338 C 
BRANCH  18  19
HETATM   19  C   UNL     1       8.590  31.155  59.409  1.00  0.00     0.248 C 
HETATM   20  N   UNL     1       7.886  30.840  60.555  1.00  0.00    -0.326 N 
HETATM   21  H   UNL     1       7.558  29.889  60.684  1.00  0.00     0.169 HD
HETATM   22  O   UNL     1       8.854  32.285  59.003  1.00  0.00    -0.271 OA
BRANCH  20  23
HETATM   23  C   UNL     1       7.486  31.742  61.567  1.00  0.00     0.034 A 
HETATM   24  C   UNL     1       6.274  32.414  61.388  1.00  0.00     0.032 A 
HETATM   25  C   UNL     1       5.803  33.317  62.352  1.00  0.00     0.032 A 
HETATM   26  C   UNL     1       6.529  33.554  63.518  1.00  0.00     0.034 A 
HETATM   27  C   UNL     1       7.732  32.866  63.704  1.00  0.00     0.032 A 
HETATM   28  C   UNL     1       8.209  31.969  62.739  1.00  0.00     0.032 A 
BRANCH  26  29
HETATM   29  N   UNL     1       6.135  34.454  64.528  1.00  0.00    -0.328 N 
HETATM   30  C   UNL     1       5.110  34.295  65.443  1.00  0.00     0.218 C 
HETATM   31  C   UNL     1       4.955  35.484  66.358  1.00  0.00     0.117 C 
HETATM   32  O   UNL     1       4.389  33.310  65.568  1.00  0.00    -0.274 OA
HETATM   33  H   UNL     1       6.662  35.316  64.585  1.00  0.00     0.169 HD
ENDBRANCH  26  29
ENDBRANCH  20  23
ENDBRANCH  18  19
ENDBRANCH   1  18
BRANCH   1  34
HETATM   34  C   UNL     1       9.246  29.363  56.178  1.00  0.00     0.231 C 
HETATM   35  C   UNL     1      10.676  29.731  56.533  1.00  0.00     0.034 C 
ENDBRANCH   1  34
TORSDOF 9
ENDMDL
MODEL 3
REMARK VINA RESULT:      -9.6      1.862      2.605
REMARK  9 active torsions:
REMARK  status: ('A' for Active; 'I' for Inactive)
REMARK    1  A    between atoms: C_2  and  C_3 
REMARK    2  A    between atoms: C_6  and  C_7 
REMARK    3  A    between atoms: C_7  and  C_8 
REMARK    4  A    between atoms: C_8  and  N_9 
REMARK    5  A    between atoms: N_9  and  C_11 
REMARK    6  A    between atoms: N_9  and  C_25 
REMARK    7  A    between atoms: C_11  and  C_12 
REMARK       I    between atoms: C_12  and  N_13 
REMARK    8  A    between atoms: N_13  and  C_14 
REMARK    9  A    between atoms: C_17  and  N_18 
REMARK       I    between atoms: N_18  and  C_19 
ROOT
HETATM    1  N   UNL     1       7.288  28.507  55.687  1.00  0.00    -0.056 N 
HETATM    2  H   UNL     1       7.158  27.681  56.293  1.00  0.00     0.280 HD
ENDROOT
BRANCH   1   3
HETATM    3  C   UNL     1       7.629  27.930  54.288  1.00  0.00     0.319 C 
BRANCH   3   4
HETATM    4  C   UNL     1       6.677  26.800  53.930  1.00  0.00     0.187 C 
HETATM    5  O   UNL     1       5.727  27.088  53.191  1.00  0.00    -0.290 OA
BRANCH   4   6
HETATM    6  C   UNL     1       6.801  25.484  54.546  1.00  0.00     0.039 A 
HETATM    7  C   UNL     1       7.244  24.215  54.027  1.00  0.00     0.006 A 
HETATM    8  C   UNL     1       7.278  23.317  55.101  1.00  0.00     0.049 A 
HETATM    9  C   UNL     1       7.633  23.724  52.759  1.00  0.00     0.015 A 
HETATM   10  C   UNL     1       7.727  21.985  54.997  1.00  0.00    -0.031 A 
HETATM   11  N   UNL     1       6.795  23.983  56.204  1.00  0.00    -0.364 N 
HETATM   12  C   UNL     1       8.123  21.556  53.720  1.00  0.00     0.009 A 
HETATM   13  C   UNL     1       8.072  22.403  52.621  1.00  0.00     0.002 A 
HETATM   14  C   UNL     1       6.509  25.277  55.884  1.00  0.00     0.104 A 
HETATM   15  H   UNL     1       6.678  23.565  57.119  1.00  0.00     0.165 HD
BRANCH  10  16
HETATM   16  C   UNL     1       7.773  21.022  56.159  1.00  0.00     0.036 C 
HETATM   17  C   UNL     1       9.142  20.377  56.301  1.00  0.00     0.010 C 
ENDBRANCH  10  16
ENDBRANCH   4   6
ENDBRANCH   3   4
ENDBRANCH   1   3
BRANCH   1  18
HETATM   18  C   UNL     1       8.492  29.270  56.291  1.00  0.00     0.338 C 
BRANCH  18  19
HETATM   19  C   UNL     1       8.423  29.423  57.818  1.00  0.00     0.248 C 
HETATM   20  N   UNL     1       8.827  30.662  58.275  1.00  0.00    -0.326 N 
HETATM   21  H   UNL     1       9.359  31.265  57.655  1.00  0.00     0.169 HD
HETATM   22  O   UNL     1       7.979  28.503  58.501  1.00  0.00    -0.271 OA
BRANCH  20  23
HETATM   23  C   UNL     1       8.647  31.173  59.581  1.00  0.00     0.034 A 
HETATM   24  C   UNL     1       7.660  32.146  59.762  1.00  0.00     0.032 A 
HETATM   25  C   UNL     1       7.414  32.694  61.029  1.00  0.00     0.032 A 
HETATM   26  C   UNL     1       8.142  32.269  62.139  1.00  0.00     0.034 A 
HETATM   27  C   UNL     1       9.116  31.282  61.960  1.00  0.00     0.032 A 
HETATM   28  C   UNL     1       9.369  30.739  60.693  1.00  0.00     0.032 A 
BRANCH  26  29
HETATM   29  N   UNL     1       7.968  32.777  63.442  1.00  0.00    -0.328 N 
HETATM   30  C   UNL     1       6.778  32.952  64.124  1.00  0.00     0.218 C 
HETATM   31  C   UNL     1       6.972  33.555  65.493  1.00  0.00     0.117 C 
HETATM   32  O   UNL     1       5.658  32.647  63.729  1.00  0.00    -0.274 OA
HETATM   33  H   UNL     1       8.813  33.047  63.930  1.00  0.00     0.169 HD
ENDBRANCH  26  29
ENDBRANCH  20  23
ENDBRANCH  18  19
ENDBRANCH   1  18
BRANCH   1  34
HETATM   34  C   UNL     1       6.022  29.329  55.690  1.00  0.00     0.231 C 
HETATM   35  C   UNL     1       4.978  28.674  56.576  1.00  0.00     0.034 C 
ENDBRANCH   1  34
TORSDOF 9
ENDMDL
MODEL 4
REMARK VINA RESULT:      -9.2      1.911      2.841
REMARK  9 active torsions:
REMARK  status: ('A' for Active; 'I' for Inactive)
REMARK    1  A    between atoms: C_2  and  C_3 
REMARK    2  A    between atoms: C_6  and  C_7 
REMARK    3  A    between atoms: C_7  and  C_8 
REMARK    4  A    between atoms: C_8  and  N_9 
REMARK    5  A    between atoms: N_9  and  C_11 
REMARK    6  A    between atoms: N_9  and  C_25 
REMARK    7  A    between atoms: C_11  and  C_12 
REMARK       I    between atoms: C_12  and  N_13 
REMARK    8  A    between atoms: N_13  and  C_14 
REMARK    9  A    between atoms: C_17  and  N_18 
REMARK       I    between atoms: N_18  and  C_19 
ROOT
HETATM    1  N   UNL     1       7.216  28.415  55.413  1.00  0.00    -0.056 N 
HETATM    2  H   UNL     1       7.096  27.463  55.797  1.00  0.00     0.280 HD
ENDROOT
BRANCH   1   3
HETATM    3  C   UNL     1       7.403  28.212  53.886  1.00  0.00     0.319 C 
BRANCH   3   4
HETATM    4  C   UNL     1       6.637  26.988  53.412  1.00  0.00     0.187 C 
HETATM    5  O   UNL     1       5.429  27.141  53.192  1.00  0.00    -0.290 OA
BRANCH   4   6
HETATM    6  C   UNL     1       7.267  25.674  53.362  1.00  0.00     0.039 A 
HETATM    7  C   UNL     1       7.690  24.768  54.401  1.00  0.00     0.006 A 
HETATM    8  C   UNL     1       8.115  23.590  53.774  1.00  0.00     0.049 A 
HETATM    9  C   UNL     1       7.752  24.811  55.813  1.00  0.00     0.015 A 
HETATM   10  C   UNL     1       8.542  22.441  54.470  1.00  0.00    -0.031 A 
HETATM   11  N   UNL     1       8.037  23.799  52.417  1.00  0.00    -0.364 N 
HETATM   12  C   UNL     1       8.562  22.529  55.871  1.00  0.00     0.009 A 
HETATM   13  C   UNL     1       8.182  23.691  56.531  1.00  0.00     0.002 A 
HETATM   14  C   UNL     1       7.531  25.039  52.160  1.00  0.00     0.104 A 
HETATM   15  H   UNL     1       8.313  23.122  51.717  1.00  0.00     0.165 HD
BRANCH  10  16
HETATM   16  C   UNL     1       8.989  21.168  53.794  1.00  0.00     0.036 C 
HETATM   17  C   UNL     1       7.841  20.483  53.069  1.00  0.00     0.010 C 
ENDBRANCH  10  16
ENDBRANCH   4   6
ENDBRANCH   3   4
ENDBRANCH   1   3
BRANCH   1  18
HETATM   18  C   UNL     1       8.504  28.961  56.072  1.00  0.00     0.338 C 
BRANCH  18  19
HETATM   19  C   UNL     1       8.408  29.096  57.599  1.00  0.00     0.248 C 
HETATM   20  N   UNL     1       8.653  30.373  58.065  1.00  0.00    -0.326 N 
HETATM   21  H   UNL     1       9.111  31.040  57.452  1.00  0.00     0.169 HD
HETATM   22  O   UNL     1       8.076  28.125  58.275  1.00  0.00    -0.271 OA
BRANCH  20  23
HETATM   23  C   UNL     1       8.404  30.851  59.372  1.00  0.00     0.034 A 
HETATM   24  C   UNL     1       9.434  30.732  60.309  1.00  0.00     0.032 A 
HETATM   25  C   UNL     1       9.268  31.191  61.623  1.00  0.00     0.032 A 
HETATM   26  C   UNL     1       8.074  31.790  62.020  1.00  0.00     0.034 A 
HETATM   27  C   UNL     1       7.051  31.926  61.076  1.00  0.00     0.032 A 
HETATM   28  C   UNL     1       7.212  31.460  59.765  1.00  0.00     0.032 A 
BRANCH  26  29
HETATM   29  N   UNL     1       7.820  32.265  63.322  1.00  0.00    -0.328 N 
HETATM   30  C   UNL     1       7.152  33.422  63.679  1.00  0.00     0.218 C 
HETATM   31  C   UNL     1       7.099  33.628  65.173  1.00  0.00     0.117 C 
HETATM   32  O   UNL     1       6.614  34.220  62.919  1.00  0.00    -0.274 OA
HETATM   33  H   UNL     1       8.173  31.694  64.080  1.00  0.00     0.169 HD
ENDBRANCH  26  29
ENDBRANCH  20  23
ENDBRANCH  18  19
ENDBRANCH   1  18
BRANCH   1  34
HETATM   34  C   UNL     1       5.998  29.243  55.749  1.00  0.00     0.231 C 
HETATM   35  C   UNL     1       4.957  28.380  56.440  1.00  0.00     0.034 C 
ENDBRANCH   1  34
TORSDOF 9
ENDMDL
MODEL 5
REMARK VINA RESULT:      -9.1      4.140      8.459
REMARK  9 active torsions:
REMARK  status: ('A' for Active; 'I' for Inactive)
REMARK    1  A    between atoms: C_2  and  C_3 
REMARK    2  A    between atoms: C_6  and  C_7 
REMARK    3  A    between atoms: C_7  and  C_8 
REMARK    4  A    between atoms: C_8  and  N_9 
REMARK    5  A    between atoms: N_9  and  C_11 
REMARK    6  A    between atoms: N_9  and  C_25 
REMARK    7  A    between atoms: C_11  and  C_12 
REMARK       I    between atoms: C_12  and  N_13 
REMARK    8  A    between atoms: N_13  and  C_14 
REMARK    9  A    between atoms: C_17  and  N_18 
REMARK       I    between atoms: N_18  and  C_19 
ROOT
HETATM    1  N   UNL     1       7.036  29.317  57.318  1.00  0.00    -0.056 N 
HETATM    2  H   UNL     1       7.524  29.503  56.427  1.00  0.00     0.280 HD
ENDROOT
BRANCH   1   3
HETATM    3  C   UNL     1       6.948  27.771  57.416  1.00  0.00     0.319 C 
BRANCH   3   4
HETATM    4  C   UNL     1       7.694  27.121  56.261  1.00  0.00     0.187 C 
HETATM    5  O   UNL     1       7.951  27.843  55.290  1.00  0.00    -0.290 OA
BRANCH   4   6
HETATM    6  C   UNL     1       7.958  25.686  56.245  1.00  0.00     0.039 A 
HETATM    7  C   UNL     1       7.935  24.715  55.180  1.00  0.00     0.006 A 
HETATM    8  C   UNL     1       8.399  23.506  55.713  1.00  0.00     0.049 A 
HETATM    9  C   UNL     1       7.577  24.727  53.812  1.00  0.00     0.015 A 
HETATM   10  C   UNL     1       8.581  22.332  54.954  1.00  0.00    -0.031 A 
HETATM   11  N   UNL     1       8.613  23.709  57.057  1.00  0.00    -0.364 N 
HETATM   12  C   UNL     1       8.232  22.405  53.596  1.00  0.00     0.009 A 
HETATM   13  C   UNL     1       7.735  23.574  53.035  1.00  0.00     0.002 A 
HETATM   14  C   UNL     1       8.354  25.007  57.384  1.00  0.00     0.104 A 
HETATM   15  H   UNL     1       8.923  22.992  57.701  1.00  0.00     0.165 HD
BRANCH  10  16
HETATM   16  C   UNL     1       9.093  21.033  55.528  1.00  0.00     0.036 C 
HETATM   17  C   UNL     1       7.963  20.176  56.076  1.00  0.00     0.010 C 
ENDBRANCH  10  16
ENDBRANCH   4   6
ENDBRANCH   3   4
ENDBRANCH   1   3
BRANCH   1  18
HETATM   18  C   UNL     1       5.635  29.952  57.157  1.00  0.00     0.338 C 
BRANCH  18  19
HETATM   19  C   UNL     1       4.828  29.378  55.982  1.00  0.00     0.248 C 
HETATM   20  N   UNL     1       5.362  29.666  54.742  1.00  0.00    -0.326 N 
HETATM   21  H   UNL     1       6.050  30.407  54.663  1.00  0.00     0.169 HD
HETATM   22  O   UNL     1       3.841  28.680  56.207  1.00  0.00    -0.271 OA
BRANCH  20  23
HETATM   23  C   UNL     1       4.986  29.080  53.511  1.00  0.00     0.034 A 
HETATM   24  C   UNL     1       5.671  27.931  53.108  1.00  0.00     0.032 A 
HETATM   25  C   UNL     1       5.350  27.286  51.906  1.00  0.00     0.032 A 
HETATM   26  C   UNL     1       4.328  27.771  51.091  1.00  0.00     0.034 A 
HETATM   27  C   UNL     1       3.630  28.910  51.505  1.00  0.00     0.032 A 
HETATM   28  C   UNL     1       3.955  29.561  52.702  1.00  0.00     0.032 A 
BRANCH  26  29
HETATM   29  N   UNL     1       3.952  27.192  49.863  1.00  0.00    -0.328 N 
HETATM   30  C   UNL     1       4.485  27.451  48.613  1.00  0.00     0.218 C 
HETATM   31  C   UNL     1       3.809  26.667  47.516  1.00  0.00     0.117 C 
HETATM   32  O   UNL     1       5.423  28.199  48.360  1.00  0.00    -0.274 OA
HETATM   33  H   UNL     1       3.202  26.514  49.902  1.00  0.00     0.169 HD
ENDBRANCH  26  29
ENDBRANCH  20  23
ENDBRANCH  18  19
ENDBRANCH   1  18
BRANCH   1  34
HETATM   34  C   UNL     1       7.823  29.932  58.451  1.00  0.00     0.231 C 
HETATM   35  C   UNL     1       9.288  30.039  58.070  1.00  0.00     0.034 C 
ENDBRANCH   1  34
TORSDOF 9
ENDMDL
MODEL 6
REMARK VINA RESULT:      -8.9      3.047      5.290
REMARK  9 active torsions:
REMARK  status: ('A' for Active; 'I' for Inactive)
REMARK    1  A    between atoms: C_2  and  C_3 
REMARK    2  A    between atoms: C_6  and  C_7 
REMARK    3  A    between atoms: C_7  and  C_8 
REMARK    4  A    between atoms: C_8  and  N_9 
REMARK    5  A    between atoms: N_9  and  C_11 
REMARK    6  A    between atoms: N_9  and  C_25 
REMARK    7  A    between atoms: C_11  and  C_12 
REMARK       I    between atoms: C_12  and  N_13 
REMARK    8  A    between atoms: N_13  and  C_14 
REMARK    9  A    between atoms: C_17  and  N_18 
REMARK       I    between atoms: N_18  and  C_19 
ROOT
HETATM    1  N   UNL     1       4.358  28.081  52.303  1.00  0.00    -0.056 N 
HETATM    2  H   UNL     1       3.765  27.287  52.594  1.00  0.00     0.280 HD
ENDROOT
BRANCH   1   3
HETATM    3  C   UNL     1       5.816  27.597  52.523  1.00  0.00     0.319 C 
BRANCH   3   4
HETATM    4  C   UNL     1       5.901  26.084  52.397  1.00  0.00     0.187 C 
HETATM    5  O   UNL     1       5.497  25.593  51.335  1.00  0.00    -0.290 OA
BRANCH   4   6
HETATM    6  C   UNL     1       6.300  25.253  53.527  1.00  0.00     0.039 A 
HETATM    7  C   UNL     1       6.991  23.990  53.596  1.00  0.00     0.006 A 
HETATM    8  C   UNL     1       7.221  23.719  54.951  1.00  0.00     0.049 A 
HETATM    9  C   UNL     1       7.459  23.043  52.656  1.00  0.00     0.015 A 
HETATM   10  C   UNL     1       7.934  22.595  55.416  1.00  0.00    -0.031 A 
HETATM   11  N   UNL     1       6.622  24.723  55.675  1.00  0.00    -0.364 N 
HETATM   12  C   UNL     1       8.397  21.699  54.439  1.00  0.00     0.009 A 
HETATM   13  C   UNL     1       8.160  21.912  53.087  1.00  0.00     0.002 A 
HETATM   14  C   UNL     1       6.072  25.645  54.834  1.00  0.00     0.104 A 
HETATM   15  H   UNL     1       6.604  24.767  56.686  1.00  0.00     0.165 HD
BRANCH  10  16
HETATM   16  C   UNL     1       8.191  22.310  56.876  1.00  0.00     0.036 C 
HETATM   17  C   UNL     1       8.582  20.859  57.106  1.00  0.00     0.010 C 
ENDBRANCH  10  16
ENDBRANCH   4   6
ENDBRANCH   3   4
ENDBRANCH   1   3
BRANCH   1  18
HETATM   18  C   UNL     1       3.997  29.235  53.268  1.00  0.00     0.338 C 
BRANCH  18  19
HETATM   19  C   UNL     1       4.544  29.046  54.691  1.00  0.00     0.248 C 
HETATM   20  N   UNL     1       5.669  29.801  54.963  1.00  0.00    -0.326 N 
HETATM   21  H   UNL     1       6.190  30.201  54.191  1.00  0.00     0.169 HD
HETATM   22  O   UNL     1       3.945  28.320  55.481  1.00  0.00    -0.271 OA
BRANCH  20  23
HETATM   23  C   UNL     1       6.243  30.019  56.236  1.00  0.00     0.034 A 
HETATM   24  C   UNL     1       7.292  29.180  56.622  1.00  0.00     0.032 A 
HETATM   25  C   UNL     1       7.921  29.339  57.865  1.00  0.00     0.032 A 
HETATM   26  C   UNL     1       7.521  30.349  58.738  1.00  0.00     0.034 A 
HETATM   27  C   UNL     1       6.484  31.200  58.343  1.00  0.00     0.032 A 
HETATM   28  C   UNL     1       5.849  31.037  57.105  1.00  0.00     0.032 A 
BRANCH  26  29
HETATM   29  N   UNL     1       8.089  30.569  60.009  1.00  0.00    -0.328 N 
HETATM   30  C   UNL     1       8.917  31.609  60.391  1.00  0.00     0.218 C 
HETATM   31  C   UNL     1       9.363  31.502  61.829  1.00  0.00     0.117 C 
HETATM   32  O   UNL     1       9.265  32.558  59.698  1.00  0.00    -0.274 OA
HETATM   33  H   UNL     1       7.868  29.883  60.720  1.00  0.00     0.169 HD
ENDBRANCH  26  29
ENDBRANCH  20  23
ENDBRANCH  18  19
ENDBRANCH   1  18
BRANCH   1  34
HETATM   34  C   UNL     1       4.063  28.419  50.861  1.00  0.00     0.231 C 
HETATM   35  C   UNL     1       5.271  29.083  50.225  1.00  0.00     0.034 C 
ENDBRANCH   1  34
TORSDOF 9
ENDMDL
MODEL 7
REMARK VINA RESULT:      -8.8      1.991     11.671
REMARK  9 active torsions:
REMARK  status: ('A' for Active; 'I' for Inactive)
REMARK    1  A    between atoms: C_2  and  C_3 
REMARK    2  A    between atoms: C_6  and  C_7 
REMARK    3  A    between atoms: C_7  and  C_8 
REMARK    4  A    between atoms: C_8  and  N_9 
REMARK    5  A    between atoms: N_9  and  C_11 
REMARK    6  A    between atoms: N_9  and  C_25 
REMARK    7  A    between atoms: C_11  and  C_12 
REMARK       I    between atoms: C_12  and  N_13 
REMARK    8  A    between atoms: N_13  and  C_14 
REMARK    9  A    between atoms: C_17  and  N_18 
REMARK       I    between atoms: N_18  and  C_19 
ROOT
HETATM    1  N   UNL     1       8.482  30.057  58.746  1.00  0.00    -0.056 N 
HETATM    2  H   UNL     1       8.695  29.585  59.640  1.00  0.00     0.280 HD
ENDROOT
BRANCH   1   3
HETATM    3  C   UNL     1       8.067  31.499  59.140  1.00  0.00     0.319 C 
BRANCH   3   4
HETATM    4  C   UNL     1       8.098  31.669  60.651  1.00  0.00     0.187 C 
HETATM    5  O   UNL     1       8.976  31.046  61.261  1.00  0.00    -0.290 OA
BRANCH   4   6
HETATM    6  C   UNL     1       7.055  32.412  61.350  1.00  0.00     0.039 A 
HETATM    7  C   UNL     1       6.984  32.945  62.687  1.00  0.00     0.006 A 
HETATM    8  C   UNL     1       5.795  33.679  62.776  1.00  0.00     0.049 A 
HETATM    9  C   UNL     1       7.804  32.894  63.838  1.00  0.00     0.015 A 
HETATM   10  C   UNL     1       5.407  34.408  63.919  1.00  0.00    -0.031 A 
HETATM   11  N   UNL     1       5.132  33.529  61.580  1.00  0.00    -0.364 N 
HETATM   12  C   UNL     1       6.268  34.343  65.026  1.00  0.00     0.009 A 
HETATM   13  C   UNL     1       7.440  33.597  64.991  1.00  0.00     0.002 A 
HETATM   14  C   UNL     1       5.877  32.776  60.721  1.00  0.00     0.104 A 
HETATM   15  H   UNL     1       4.225  33.929  61.375  1.00  0.00     0.165 HD
BRANCH  10  16
HETATM   16  C   UNL     1       4.131  35.209  64.010  1.00  0.00     0.036 C 
HETATM   17  C   UNL     1       4.076  36.038  65.283  1.00  0.00     0.010 C 
ENDBRANCH  10  16
ENDBRANCH   4   6
ENDBRANCH   3   4
ENDBRANCH   1   3
BRANCH   1  18
HETATM   18  C   UNL     1       7.291  29.273  58.145  1.00  0.00     0.338 C 
BRANCH  18  19
HETATM   19  C   UNL     1       7.712  28.155  57.178  1.00  0.00     0.248 C 
HETATM   20  N   UNL     1       7.615  26.886  57.714  1.00  0.00    -0.326 N 
HETATM   21  H   UNL     1       7.536  26.782  58.720  1.00  0.00     0.169 HD
HETATM   22  O   UNL     1       8.035  28.438  56.026  1.00  0.00    -0.271 OA
BRANCH  20  23
HETATM   23  C   UNL     1       7.698  25.667  57.002  1.00  0.00     0.034 A 
HETATM   24  C   UNL     1       6.616  25.322  56.188  1.00  0.00     0.032 A 
HETATM   25  C   UNL     1       6.627  24.134  55.442  1.00  0.00     0.032 A 
HETATM   26  C   UNL     1       7.727  23.279  55.486  1.00  0.00     0.034 A 
HETATM   27  C   UNL     1       8.817  23.636  56.286  1.00  0.00     0.032 A 
HETATM   28  C   UNL     1       8.804  24.818  57.038  1.00  0.00     0.032 A 
BRANCH  26  29
HETATM   29  N   UNL     1       7.813  22.062  54.780  1.00  0.00    -0.328 N 
HETATM   30  C   UNL     1       7.920  21.890  53.412  1.00  0.00     0.218 C 
HETATM   31  C   UNL     1       7.955  20.437  53.007  1.00  0.00     0.117 C 
HETATM   32  O   UNL     1       8.010  22.777  52.569  1.00  0.00    -0.274 OA
HETATM   33  H   UNL     1       7.789  21.220  55.341  1.00  0.00     0.169 HD
ENDBRANCH  26  29
ENDBRANCH  20  23
ENDBRANCH  18  19
ENDBRANCH   1  18
BRANCH   1  34
HETATM   34  C   UNL     1       9.705  30.019  57.861  1.00  0.00     0.231 C 
HETATM   35  C   UNL     1      10.509  31.296  58.032  1.00  0.00     0.034 C 
ENDBRANCH   1  34
TORSDOF 9
ENDMDL
MODEL 8
REMARK VINA RESULT:      -8.8      3.309      6.238
REMARK  9 active torsions:
REMARK  status: ('A' for Active; 'I' for Inactive)
REMARK    1  A    between atoms: C_2  and  C_3 
REMARK    2  A    between atoms: C_6  and  C_7 
REMARK    3  A    between atoms: C_7  and  C_8 
REMARK    4  A    between atoms: C_8  and  N_9 
REMARK    5  A    between atoms: N_9  and  C_11 
REMARK    6  A    between atoms: N_9  and  C_25 
REMARK    7  A    between atoms: C_11  and  C_12 
REMARK       I    between atoms: C_12  and  N_13 
REMARK    8  A    between atoms: N_13  and  C_14 
REMARK    9  A    between atoms: C_17  and  N_18 
REMARK       I    between atoms: N_18  and  C_19 
ROOT
HETATM    1  N   UNL     1       4.519  27.365  51.034  1.00  0.00    -0.056 N 
HETATM    2  H   UNL     1       3.844  26.941  51.691  1.00  0.00     0.280 HD
ENDROOT
BRANCH   1   3
HETATM    3  C   UNL     1       5.722  26.387  51.004  1.00  0.00     0.319 C 
BRANCH   3   4
HETATM    4  C   UNL     1       5.479  25.212  51.938  1.00  0.00     0.187 C 
HETATM    5  O   UNL     1       4.428  24.579  51.770  1.00  0.00    -0.290 OA
BRANCH   4   6
HETATM    6  C   UNL     1       6.367  24.943  53.063  1.00  0.00     0.039 A 
HETATM    7  C   UNL     1       6.212  25.139  54.482  1.00  0.00     0.006 A 
HETATM    8  C   UNL     1       7.337  24.581  55.102  1.00  0.00     0.049 A 
HETATM    9  C   UNL     1       5.232  25.724  55.318  1.00  0.00     0.015 A 
HETATM   10  C   UNL     1       7.514  24.522  56.500  1.00  0.00    -0.031 A 
HETATM   11  N   UNL     1       8.177  24.144  54.105  1.00  0.00    -0.364 N 
HETATM   12  C   UNL     1       6.501  25.096  57.284  1.00  0.00     0.009 A 
HETATM   13  C   UNL     1       5.386  25.691  56.708  1.00  0.00     0.002 A 
HETATM   14  C   UNL     1       7.607  24.354  52.884  1.00  0.00     0.104 A 
HETATM   15  H   UNL     1       9.084  23.723  54.265  1.00  0.00     0.165 HD
BRANCH  10  16
HETATM   16  C   UNL     1       8.721  23.910  57.167  1.00  0.00     0.036 C 
HETATM   17  C   UNL     1       8.540  22.418  57.399  1.00  0.00     0.010 C 
ENDBRANCH  10  16
ENDBRANCH   4   6
ENDBRANCH   3   4
ENDBRANCH   1   3
BRANCH   1  18
HETATM   18  C   UNL     1       4.910  28.721  51.669  1.00  0.00     0.338 C 
BRANCH  18  19
HETATM   19  C   UNL     1       4.987  28.685  53.203  1.00  0.00     0.248 C 
HETATM   20  N   UNL     1       6.271  28.781  53.702  1.00  0.00    -0.326 N 
HETATM   21  H   UNL     1       7.054  28.611  53.079  1.00  0.00     0.169 HD
HETATM   22  O   UNL     1       3.950  28.639  53.862  1.00  0.00    -0.271 OA
BRANCH  20  23
HETATM   23  C   UNL     1       6.631  29.016  55.049  1.00  0.00     0.034 A 
HETATM   24  C   UNL     1       7.789  28.394  55.524  1.00  0.00     0.032 A 
HETATM   25  C   UNL     1       8.218  28.586  56.845  1.00  0.00     0.032 A 
HETATM   26  C   UNL     1       7.505  29.415  57.709  1.00  0.00     0.034 A 
HETATM   27  C   UNL     1       6.358  30.053  57.226  1.00  0.00     0.032 A 
HETATM   28  C   UNL     1       5.923  29.855  55.909  1.00  0.00     0.032 A 
BRANCH  26  29
HETATM   29  N   UNL     1       7.859  29.651  59.053  1.00  0.00    -0.328 N 
HETATM   30  C   UNL     1       8.494  30.765  59.572  1.00  0.00     0.218 C 
HETATM   31  C   UNL     1       8.744  30.656  61.056  1.00  0.00     0.117 C 
HETATM   32  O   UNL     1       8.818  31.774  58.956  1.00  0.00    -0.274 OA
HETATM   33  H   UNL     1       7.625  28.917  59.710  1.00  0.00     0.169 HD
ENDBRANCH  26  29
ENDBRANCH  20  23
ENDBRANCH  18  19
ENDBRANCH   1  18
BRANCH   1  34
HETATM   34  C   UNL     1       3.861  27.527  49.684  1.00  0.00     0.231 C 
HETATM   35  C   UNL     1       4.422  26.510  48.707  1.00  0.00     0.034 C 
ENDBRANCH   1  34
TORSDOF 9
ENDMDL
MODEL 9
REMARK VINA RESULT:      -8.8      2.132      3.342
REMARK  9 active torsions:
REMARK  status: ('A' for Active; 'I' for Inactive)
REMARK    1  A    between atoms: C_2  and  C_3 
REMARK    2  A    between atoms: C_6  and  C_7 
REMARK    3  A    between atoms: C_7  and  C_8 
REMARK    4  A    between atoms: C_8  and  N_9 
REMARK    5  A    between atoms: N_9  and  C_11 
REMARK    6  A    between atoms: N_9  and  C_25 
REMARK    7  A    between atoms: C_11  and  C_12 
REMARK       I    between atoms: C_12  and  N_13 
REMARK    8  A    between atoms: N_13  and  C_14 
REMARK    9  A    between atoms: C_17  and  N_18 
REMARK       I    between atoms: N_18  and  C_19 
ROOT
HETATM    1  N   UNL     1       5.862  27.925  54.367  1.00  0.00    -0.056 N 
HETATM    2  H   UNL     1       5.534  27.201  55.026  1.00  0.00     0.280 HD
ENDROOT
BRANCH   1   3
HETATM    3  C   UNL     1       7.409  27.905  54.484  1.00  0.00     0.319 C 
BRANCH   3   4
HETATM    4  C   UNL     1       7.839  27.197  55.760  1.00  0.00     0.187 C 
HETATM    5  O   UNL     1       8.428  27.885  56.603  1.00  0.00    -0.290 OA
BRANCH   4   6
HETATM    6  C   UNL     1       7.691  25.754  55.910  1.00  0.00     0.039 A 
HETATM    7  C   UNL     1       7.728  24.677  54.954  1.00  0.00     0.006 A 
HETATM    8  C   UNL     1       7.656  23.480  55.677  1.00  0.00     0.049 A 
HETATM    9  C   UNL     1       7.825  24.581  53.546  1.00  0.00     0.015 A 
HETATM   10  C   UNL     1       7.732  22.201  55.087  1.00  0.00    -0.031 A 
HETATM   11  N   UNL     1       7.495  23.812  57.002  1.00  0.00    -0.364 N 
HETATM   12  C   UNL     1       7.850  22.163  53.688  1.00  0.00     0.009 A 
HETATM   13  C   UNL     1       7.889  23.327  52.930  1.00  0.00     0.002 A 
HETATM   14  C   UNL     1       7.517  25.168  57.152  1.00  0.00     0.104 A 
HETATM   15  H   UNL     1       7.384  23.141  57.750  1.00  0.00     0.165 HD
BRANCH  10  16
HETATM   16  C   UNL     1       7.666  20.912  55.868  1.00  0.00     0.036 C 
HETATM   17  C   UNL     1       8.805  19.973  55.503  1.00  0.00     0.010 C 
ENDBRANCH  10  16
ENDBRANCH   4   6
ENDBRANCH   3   4
ENDBRANCH   1   3
BRANCH   1  18
HETATM   18  C   UNL     1       5.275  29.255  54.897  1.00  0.00     0.338 C 
BRANCH  18  19
HETATM   19  C   UNL     1       5.477  29.461  56.406  1.00  0.00     0.248 C 
HETATM   20  N   UNL     1       6.425  30.415  56.718  1.00  0.00    -0.326 N 
HETATM   21  H   UNL     1       7.078  30.712  56.001  1.00  0.00     0.169 HD
HETATM   22  O   UNL     1       4.775  28.842  57.203  1.00  0.00    -0.271 OA
BRANCH  20  23
HETATM   23  C   UNL     1       6.651  30.987  57.992  1.00  0.00     0.034 A 
HETATM   24  C   UNL     1       5.792  32.010  58.400  1.00  0.00     0.032 A 
HETATM   25  C   UNL     1       5.944  32.620  59.654  1.00  0.00     0.032 A 
HETATM   26  C   UNL     1       6.951  32.208  60.525  1.00  0.00     0.034 A 
HETATM   27  C   UNL     1       7.798  31.171  60.123  1.00  0.00     0.032 A 
HETATM   28  C   UNL     1       7.652  30.566  58.868  1.00  0.00     0.032 A 
BRANCH  26  29
HETATM   29  N   UNL     1       7.181  32.776  61.794  1.00  0.00    -0.328 N 
HETATM   30  C   UNL     1       7.787  32.180  62.885  1.00  0.00     0.218 C 
HETATM   31  C   UNL     1       7.833  33.082  64.093  1.00  0.00     0.117 C 
HETATM   32  O   UNL     1       8.280  31.058  62.924  1.00  0.00    -0.274 OA
HETATM   33  H   UNL     1       6.861  33.729  61.920  1.00  0.00     0.169 HD
ENDBRANCH  26  29
ENDBRANCH  20  23
ENDBRANCH  18  19
ENDBRANCH   1  18
BRANCH   1  34
HETATM   34  C   UNL     1       5.375  27.591  52.977  1.00  0.00     0.231 C 
HETATM   35  C   UNL     1       4.685  26.239  52.980  1.00  0.00     0.034 C 
ENDBRANCH   1  34
TORSDOF 9
ENDMDL
MODEL 10
REMARK VINA RESULT:      -8.7      2.052     11.505
REMARK  9 active torsions:
REMARK  status: ('A' for Active; 'I' for Inactive)
REMARK    1  A    between atoms: C_2  and  C_3 
REMARK    2  A    between atoms: C_6  and  C_7 
REMARK    3  A    between atoms: C_7  and  C_8 
REMARK    4  A    between atoms: C_8  and  N_9 
REMARK    5  A    between atoms: N_9  and  C_11 
REMARK    6  A    between atoms: N_9  and  C_25 
REMARK    7  A    between atoms: C_11  and  C_12 
REMARK       I    between atoms: C_12  and  N_13 
REMARK    8  A    between atoms: N_13  and  C_14 
REMARK    9  A    between atoms: C_17  and  N_18 
REMARK       I    between atoms: N_18  and  C_19 
ROOT
HETATM    1  N   UNL     1       7.174  30.554  58.879  1.00  0.00    -0.056 N 
HETATM    2  H   UNL     1       6.441  29.958  59.295  1.00  0.00     0.280 HD
ENDROOT
BRANCH   1   3
HETATM    3  C   UNL     1       6.628  32.002  58.991  1.00  0.00     0.319 C 
BRANCH   3   4
HETATM    4  C   UNL     1       5.296  32.015  59.725  1.00  0.00     0.187 C 
HETATM    5  O   UNL     1       4.315  31.593  59.099  1.00  0.00    -0.290 OA
BRANCH   4   6
HETATM    6  C   UNL     1       5.164  32.628  61.041  1.00  0.00     0.039 A 
HETATM    7  C   UNL     1       6.082  32.746  62.146  1.00  0.00     0.006 A 
HETATM    8  C   UNL     1       5.464  33.549  63.113  1.00  0.00     0.049 A 
HETATM    9  C   UNL     1       7.380  32.266  62.434  1.00  0.00     0.015 A 
HETATM   10  C   UNL     1       6.083  33.945  64.316  1.00  0.00    -0.031 A 
HETATM   11  N   UNL     1       4.198  33.834  62.657  1.00  0.00    -0.364 N 
HETATM   12  C   UNL     1       7.381  33.459  64.542  1.00  0.00     0.009 A 
HETATM   13  C   UNL     1       8.016  32.631  63.625  1.00  0.00     0.002 A 
HETATM   14  C   UNL     1       4.009  33.291  61.421  1.00  0.00     0.104 A 
HETATM   15  H   UNL     1       3.514  34.376  63.171  1.00  0.00     0.165 HD
BRANCH  10  16
HETATM   16  C   UNL     1       5.420  34.820  65.352  1.00  0.00     0.036 C 
HETATM   17  C   UNL     1       4.628  34.000  66.358  1.00  0.00     0.010 C 
ENDBRANCH  10  16
ENDBRANCH   4   6
ENDBRANCH   3   4
ENDBRANCH   1   3
BRANCH   1  18
HETATM   18  C   UNL     1       7.277  30.104  57.403  1.00  0.00     0.338 C 
BRANCH  18  19
HETATM   19  C   UNL     1       7.269  28.578  57.220  1.00  0.00     0.248 C 
HETATM   20  N   UNL     1       6.784  28.164  55.995  1.00  0.00    -0.326 N 
HETATM   21  H   UNL     1       6.251  28.818  55.431  1.00  0.00     0.169 HD
HETATM   22  O   UNL     1       7.727  27.858  58.104  1.00  0.00    -0.271 OA
BRANCH  20  23
HETATM   23  C   UNL     1       6.878  26.862  55.453  1.00  0.00     0.034 A 
HETATM   24  C   UNL     1       7.387  26.738  54.158  1.00  0.00     0.032 A 
HETATM   25  C   UNL     1       7.522  25.479  53.555  1.00  0.00     0.032 A 
HETATM   26  C   UNL     1       7.163  24.321  54.242  1.00  0.00     0.034 A 
HETATM   27  C   UNL     1       6.671  24.445  55.545  1.00  0.00     0.032 A 
HETATM   28  C   UNL     1       6.528  25.702  56.146  1.00  0.00     0.032 A 
BRANCH  26  29
HETATM   29  N   UNL     1       7.253  23.022  53.705  1.00  0.00    -0.328 N 
HETATM   30  C   UNL     1       8.281  22.112  53.874  1.00  0.00     0.218 C 
HETATM   31  C   UNL     1       8.052  20.825  53.120  1.00  0.00     0.117 C 
HETATM   32  O   UNL     1       9.281  22.260  54.568  1.00  0.00    -0.274 OA
HETATM   33  H   UNL     1       6.477  22.725  53.127  1.00  0.00     0.169 HD
ENDBRANCH  26  29
ENDBRANCH  20  23
ENDBRANCH  18  19
ENDBRANCH   1  18
BRANCH   1  34
HETATM   34  C   UNL     1       8.466  30.354  59.636  1.00  0.00     0.231 C 
HETATM   35  C   UNL     1       9.539  31.277  59.088  1.00  0.00     0.034 C 
ENDBRANCH   1  34
TORSDOF 9
ENDMDL
