MODEL 1
REMARK VINA RESULT:      -9.7      0.000      0.000
REMARK  8 active torsions:
REMARK  status: ('A' for Active; 'I' for Inactive)
REMARK    1  A    between atoms: C_4  and  O_5 
REMARK    2  A    between atoms: O_5  and  C_6 
REMARK    3  A    between atoms: C_6  and  C_7 
REMARK    4  A    between atoms: C_7  and  N_8 
REMARK       I    between atoms: N_8  and  C_9 
REMARK    5  A    between atoms: C_9  and  C_10 
REMARK    6  A    between atoms: C_10  and  S_11 
REMARK    7  A    between atoms: S_11  and  C_12 
REMARK    8  A    between atoms: C_15  and  C_16 
ROOT
HETATM    1  C   UNL     1       8.110  28.562  55.743  1.00  0.00     0.185 C 
ENDROOT
BRANCH   1   2
HETATM    2  C   UNL     1       9.264  29.481  56.131  1.00  0.00     0.227 C 
HETATM    3  N   UNL     1       9.210  29.872  57.462  1.00  0.00    -0.358 N 
HETATM    4  H   UNL     1       8.632  29.325  58.088  1.00  0.00     0.162 HD
HETATM    5  O   UNL     1      10.129  29.881  55.358  1.00  0.00    -0.273 OA
BRANCH   3   6
HETATM    6  C   UNL     1      10.254  30.690  58.057  1.00  0.00     0.149 C 
BRANCH   6   7
HETATM    7  C   UNL     1       9.705  31.686  59.080  1.00  0.00     0.195 C 
BRANCH   7   8
HETATM    8  O   UNL     1       8.816  30.989  59.951  1.00  0.00    -0.350 OA
BRANCH   8   9
HETATM    9  C   UNL     1       8.041  31.739  60.793  1.00  0.00     0.069 A 
HETATM   10  C   UNL     1       8.333  32.053  62.122  1.00  0.00     0.043 A 
HETATM   11  C   UNL     1       7.443  32.831  62.883  1.00  0.00    -0.059 A 
HETATM   12  C   UNL     1       7.752  33.186  64.307  1.00  0.00     0.048 C 
HETATM   13  C   UNL     1       6.265  33.303  62.290  1.00  0.00     0.007 A 
HETATM   14  C   UNL     1       5.973  32.994  60.965  1.00  0.00     0.003 A 
HETATM   15  C   UNL     1       6.858  32.214  60.222  1.00  0.00     0.037 A 
ENDBRANCH   8   9
ENDBRANCH   7   8
ENDBRANCH   6   7
ENDBRANCH   3   6
ENDBRANCH   1   2
BRANCH   1  16
HETATM   16  S   UNL     1       7.504  27.582  57.142  1.00  0.00    -0.081 SA
BRANCH  16  17
HETATM   17  C   UNL     1       6.975  26.164  56.312  1.00  0.00     0.191 A 
HETATM   18  N   UNL     1       7.700  25.009  56.233  1.00  0.00    -0.312 N 
HETATM   19  C   UNL     1       8.903  24.688  56.956  1.00  0.00     0.160 C 
HETATM   20  C   UNL     1       7.010  24.192  55.361  1.00  0.00     0.164 A 
HETATM   21  N   UNL     1       5.883  24.803  55.032  1.00  0.00    -0.128 NA
HETATM   22  N   UNL     1       5.867  26.043  55.622  1.00  0.00    -0.122 NA
BRANCH  20  23
HETATM   23  C   UNL     1       7.448  22.879  54.883  1.00  0.00     0.018 A 
HETATM   24  C   UNL     1       7.881  22.679  53.555  1.00  0.00    -0.048 A 
HETATM   25  C   UNL     1       7.930  23.806  52.557  1.00  0.00     0.049 C 
HETATM   26  C   UNL     1       8.310  21.400  53.157  1.00  0.00     0.007 A 
HETATM   27  C   UNL     1       8.307  20.332  54.053  1.00  0.00     0.001 A 
HETATM   28  C   UNL     1       7.888  20.528  55.365  1.00  0.00     0.001 A 
HETATM   29  C   UNL     1       7.469  21.794  55.778  1.00  0.00     0.016 A 
ENDBRANCH  20  23
ENDBRANCH  16  17
ENDBRANCH   1  16
TORSDOF 8
ENDMDL
MODEL 2
REMARK VINA RESULT:      -9.5      1.480      2.084
REMARK  8 active torsions:
REMARK  status: ('A' for Active; 'I' for Inactive)
REMARK    1  A    between atoms: C_4  and  O_5 
REMARK    2  A    between atoms: O_5  and  C_6 
REMARK    3  A    between atoms: C_6  and  C_7 
REMARK    4  A    between atoms: C_7  and  N_8 
REMARK       I    between atoms: N_8  and  C_9 
REMARK    5  A    between atoms: C_9  and  C_10 
REMARK    6  A    between atoms: C_10  and  S_11 
REMARK    7  A    between atoms: S_11  and  C_12 
REMARK    8  A    between atoms: C_15  and  C_16 
ROOT
HETATM    1  C   UNL     1       7.653  28.857  56.100  1.00  0.00     0.185 C 
ENDROOT
BRANCH   1   2
HETATM    2  C   UNL     1       6.408  29.719  56.280  1.00  0.00     0.227 C 
HETATM    3  N   UNL     1       6.393  30.386  57.497  1.00  0.00    -0.358 N 
HETATM    4  H   UNL     1       7.271  30.476  57.993  1.00  0.00     0.162 HD
HETATM    5  O   UNL     1       5.486  29.792  55.473  1.00  0.00    -0.273 OA
BRANCH   3   6
HETATM    6  C   UNL     1       5.331  31.317  57.841  1.00  0.00     0.149 C 
BRANCH   6   7
HETATM    7  C   UNL     1       5.811  32.432  58.773  1.00  0.00     0.195 C 
BRANCH   7   8
HETATM    8  O   UNL     1       7.228  32.335  58.896  1.00  0.00    -0.350 OA
BRANCH   8   9
HETATM    9  C   UNL     1       7.734  32.022  60.128  1.00  0.00     0.069 A 
HETATM   10  C   UNL     1       7.430  32.662  61.331  1.00  0.00     0.043 A 
HETATM   11  C   UNL     1       8.029  32.244  62.533  1.00  0.00    -0.059 A 
HETATM   12  C   UNL     1       7.699  32.915  63.833  1.00  0.00     0.048 C 
HETATM   13  C   UNL     1       8.924  31.167  62.515  1.00  0.00     0.007 A 
HETATM   14  C   UNL     1       9.227  30.525  61.317  1.00  0.00     0.003 A 
HETATM   15  C   UNL     1       8.634  30.954  60.130  1.00  0.00     0.037 A 
ENDBRANCH   8   9
ENDBRANCH   7   8
ENDBRANCH   6   7
ENDBRANCH   3   6
ENDBRANCH   1   2
BRANCH   1  16
HETATM   16  S   UNL     1       7.772  27.543  57.343  1.00  0.00    -0.081 SA
BRANCH  16  17
HETATM   17  C   UNL     1       7.180  26.204  56.427  1.00  0.00     0.191 A 
HETATM   18  N   UNL     1       7.825  25.005  56.322  1.00  0.00    -0.312 N 
HETATM   19  C   UNL     1       8.972  24.566  57.076  1.00  0.00     0.160 C 
HETATM   20  C   UNL     1       7.117  24.279  55.387  1.00  0.00     0.164 A 
HETATM   21  N   UNL     1       6.050  24.983  55.043  1.00  0.00    -0.128 NA
HETATM   22  N   UNL     1       6.097  26.195  55.690  1.00  0.00    -0.122 NA
BRANCH  20  23
HETATM   23  C   UNL     1       7.482  22.960  54.865  1.00  0.00     0.018 A 
HETATM   24  C   UNL     1       7.810  22.764  53.507  1.00  0.00    -0.048 A 
HETATM   25  C   UNL     1       7.818  23.901  52.519  1.00  0.00     0.049 C 
HETATM   26  C   UNL     1       8.172  21.479  53.066  1.00  0.00     0.007 A 
HETATM   27  C   UNL     1       8.204  20.400  53.950  1.00  0.00     0.001 A 
HETATM   28  C   UNL     1       7.889  20.592  55.290  1.00  0.00     0.001 A 
HETATM   29  C   UNL     1       7.536  21.864  55.745  1.00  0.00     0.016 A 
ENDBRANCH  20  23
ENDBRANCH  16  17
ENDBRANCH   1  16
TORSDOF 8
ENDMDL
MODEL 3
REMARK VINA RESULT:      -9.3      1.591      2.266
REMARK  8 active torsions:
REMARK  status: ('A' for Active; 'I' for Inactive)
REMARK    1  A    between atoms: C_4  and  O_5 
REMARK    2  A    between atoms: O_5  and  C_6 
REMARK    3  A    between atoms: C_6  and  C_7 
REMARK    4  A    between atoms: C_7  and  N_8 
REMARK       I    between atoms: N_8  and  C_9 
REMARK    5  A    between atoms: C_9  and  C_10 
REMARK    6  A    between atoms: C_10  and  S_11 
REMARK    7  A    between atoms: S_11  and  C_12 
REMARK    8  A    between atoms: C_15  and  C_16 
ROOT
HETATM    1  C   UNL     1       6.431  29.863  57.167  1.00  0.00     0.185 C 
ENDROOT
BRANCH   1   2
HETATM    2  C   UNL     1       7.630  29.615  58.075  1.00  0.00     0.227 C 
HETATM    3  N   UNL     1       8.357  30.770  58.326  1.00  0.00    -0.358 N 
HETATM    4  H   UNL     1       7.903  31.658  58.148  1.00  0.00     0.162 HD
HETATM    5  O   UNL     1       7.963  28.516  58.510  1.00  0.00    -0.273 OA
BRANCH   3   6
HETATM    6  C   UNL     1       9.499  30.771  59.226  1.00  0.00     0.149 C 
BRANCH   6   7
HETATM    7  C   UNL     1       9.466  31.942  60.210  1.00  0.00     0.195 C 
BRANCH   7   8
HETATM    8  O   UNL     1       8.960  31.467  61.456  1.00  0.00    -0.350 OA
BRANCH   8   9
HETATM    9  C   UNL     1       8.060  32.260  62.115  1.00  0.00     0.069 A 
HETATM   10  C   UNL     1       8.067  32.558  63.479  1.00  0.00     0.043 A 
HETATM   11  C   UNL     1       7.075  33.385  64.033  1.00  0.00    -0.059 A 
HETATM   12  C   UNL     1       7.080  33.723  65.495  1.00  0.00     0.048 C 
HETATM   13  C   UNL     1       6.086  33.923  63.201  1.00  0.00     0.007 A 
HETATM   14  C   UNL     1       6.078  33.630  61.840  1.00  0.00     0.003 A 
HETATM   15  C   UNL     1       7.062  32.801  61.302  1.00  0.00     0.037 A 
ENDBRANCH   8   9
ENDBRANCH   7   8
ENDBRANCH   6   7
ENDBRANCH   3   6
ENDBRANCH   1   2
BRANCH   1  16
HETATM   16  S   UNL     1       5.368  28.403  57.010  1.00  0.00    -0.081 SA
BRANCH  16  17
HETATM   17  C   UNL     1       6.276  27.489  55.860  1.00  0.00     0.191 A 
HETATM   18  N   UNL     1       6.309  26.124  55.824  1.00  0.00    -0.312 N 
HETATM   19  C   UNL     1       5.480  25.214  56.572  1.00  0.00     0.160 C 
HETATM   20  C   UNL     1       7.261  25.798  54.879  1.00  0.00     0.164 A 
HETATM   21  N   UNL     1       7.684  26.919  54.319  1.00  0.00    -0.128 NA
HETATM   22  N   UNL     1       7.072  27.980  54.942  1.00  0.00    -0.122 NA
BRANCH  20  23
HETATM   23  C   UNL     1       7.723  24.446  54.555  1.00  0.00     0.018 A 
HETATM   24  C   UNL     1       8.543  23.711  55.437  1.00  0.00    -0.048 A 
HETATM   25  C   UNL     1       8.978  24.266  56.767  1.00  0.00     0.049 C 
HETATM   26  C   UNL     1       8.939  22.409  55.081  1.00  0.00     0.007 A 
HETATM   27  C   UNL     1       8.539  21.843  53.871  1.00  0.00     0.001 A 
HETATM   28  C   UNL     1       7.725  22.563  53.004  1.00  0.00     0.001 A 
HETATM   29  C   UNL     1       7.315  23.852  53.347  1.00  0.00     0.016 A 
ENDBRANCH  20  23
ENDBRANCH  16  17
ENDBRANCH   1  16
TORSDOF 8
ENDMDL
MODEL 4
REMARK VINA RESULT:      -9.3      2.633      4.240
REMARK  8 active torsions:
REMARK  status: ('A' for Active; 'I' for Inactive)
REMARK    1  A    between atoms: C_4  and  O_5 
REMARK    2  A    between atoms: O_5  and  C_6 
REMARK    3  A    between atoms: C_6  and  C_7 
REMARK    4  A    between atoms: C_7  and  N_8 
REMARK       I    between atoms: N_8  and  C_9 
REMARK    5  A    between atoms: C_9  and  C_10 
REMARK    6  A    between atoms: C_10  and  S_11 
REMARK    7  A    between atoms: S_11  and  C_12 
REMARK    8  A    between atoms: C_15  and  C_16 
ROOT
HETATM    1  C   UNL     1       3.642  27.998  53.693  1.00  0.00     0.185 C 
ENDROOT
BRANCH   1   2
HETATM    2  C   UNL     1       4.330  28.528  54.947  1.00  0.00     0.227 C 
HETATM    3  N   UNL     1       4.797  27.512  55.769  1.00  0.00    -0.358 N 
HETATM    4  H   UNL     1       4.901  26.590  55.362  1.00  0.00     0.162 HD
HETATM    5  O   UNL     1       4.430  29.716  55.241  1.00  0.00    -0.273 OA
BRANCH   3   6
HETATM    6  C   UNL     1       5.547  27.798  56.981  1.00  0.00     0.149 C 
BRANCH   6   7
HETATM    7  C   UNL     1       7.034  28.027  56.707  1.00  0.00     0.195 C 
BRANCH   7   8
HETATM    8  O   UNL     1       7.710  28.130  57.958  1.00  0.00    -0.350 OA
BRANCH   8   9
HETATM    9  C   UNL     1       8.444  29.262  58.188  1.00  0.00     0.069 A 
HETATM   10  C   UNL     1       8.168  30.246  59.139  1.00  0.00     0.043 A 
HETATM   11  C   UNL     1       9.003  31.369  59.268  1.00  0.00    -0.059 A 
HETATM   12  C   UNL     1       8.724  32.425  60.296  1.00  0.00     0.048 C 
HETATM   13  C   UNL     1      10.128  31.485  58.441  1.00  0.00     0.007 A 
HETATM   14  C   UNL     1      10.407  30.505  57.493  1.00  0.00     0.003 A 
HETATM   15  C   UNL     1       9.566  29.399  57.368  1.00  0.00     0.037 A 
ENDBRANCH   8   9
ENDBRANCH   7   8
ENDBRANCH   6   7
ENDBRANCH   3   6
ENDBRANCH   1   2
BRANCH   1  16
HETATM   16  S   UNL     1       4.722  28.048  52.237  1.00  0.00    -0.081 SA
BRANCH  16  17
HETATM   17  C   UNL     1       6.002  27.022  52.774  1.00  0.00     0.191 A 
HETATM   18  N   UNL     1       5.915  25.660  52.837  1.00  0.00    -0.312 N 
HETATM   19  C   UNL     1       4.861  24.832  52.308  1.00  0.00     0.160 C 
HETATM   20  C   UNL     1       7.071  25.239  53.461  1.00  0.00     0.164 A 
HETATM   21  N   UNL     1       7.841  26.297  53.655  1.00  0.00    -0.128 NA
HETATM   22  N   UNL     1       7.165  27.416  53.232  1.00  0.00    -0.122 NA
BRANCH  20  23
HETATM   23  C   UNL     1       7.390  23.861  53.841  1.00  0.00     0.018 A 
HETATM   24  C   UNL     1       7.261  23.410  55.172  1.00  0.00    -0.048 A 
HETATM   25  C   UNL     1       6.774  24.315  56.274  1.00  0.00     0.049 C 
HETATM   26  C   UNL     1       7.563  22.071  55.476  1.00  0.00     0.007 A 
HETATM   27  C   UNL     1       7.992  21.190  54.484  1.00  0.00     0.001 A 
HETATM   28  C   UNL     1       8.113  21.630  53.170  1.00  0.00     0.001 A 
HETATM   29  C   UNL     1       7.808  22.954  52.851  1.00  0.00     0.016 A 
ENDBRANCH  20  23
ENDBRANCH  16  17
ENDBRANCH   1  16
TORSDOF 8
ENDMDL
MODEL 5
REMARK VINA RESULT:      -9.1      1.816      2.588
REMARK  8 active torsions:
REMARK  status: ('A' for Active; 'I' for Inactive)
REMARK    1  A    between atoms: C_4  and  O_5 
REMARK    2  A    between atoms: O_5  and  C_6 
REMARK    3  A    between atoms: C_6  and  C_7 
REMARK    4  A    between atoms: C_7  and  N_8 
REMARK       I    between atoms: N_8  and  C_9 
REMARK    5  A    between atoms: C_9  and  C_10 
REMARK    6  A    between atoms: C_10  and  S_11 
REMARK    7  A    between atoms: S_11  and  C_12 
REMARK    8  A    between atoms: C_15  and  C_16 
ROOT
HETATM    1  C   UNL     1       7.184  28.617  56.969  1.00  0.00     0.185 C 
ENDROOT
BRANCH   1   2
HETATM    2  C   UNL     1       6.496  29.957  57.206  1.00  0.00     0.227 C 
HETATM    3  N   UNL     1       6.686  30.435  58.495  1.00  0.00    -0.358 N 
HETATM    4  H   UNL     1       7.447  30.039  59.034  1.00  0.00     0.162 HD
HETATM    5  O   UNL     1       5.805  30.544  56.377  1.00  0.00    -0.273 OA
BRANCH   3   6
HETATM    6  C   UNL     1       6.176  31.731  58.909  1.00  0.00     0.149 C 
BRANCH   6   7
HETATM    7  C   UNL     1       6.829  32.232  60.198  1.00  0.00     0.195 C 
BRANCH   7   8
HETATM    8  O   UNL     1       5.810  32.777  61.035  1.00  0.00    -0.350 OA
BRANCH   8   9
HETATM    9  C   UNL     1       6.115  32.972  62.354  1.00  0.00     0.069 A 
HETATM   10  C   UNL     1       5.213  33.297  63.369  1.00  0.00     0.043 A 
HETATM   11  C   UNL     1       5.661  33.477  64.690  1.00  0.00    -0.059 A 
HETATM   12  C   UNL     1       4.699  33.814  65.791  1.00  0.00     0.048 C 
HETATM   13  C   UNL     1       7.020  33.312  64.983  1.00  0.00     0.007 A 
HETATM   14  C   UNL     1       7.921  32.985  63.973  1.00  0.00     0.003 A 
HETATM   15  C   UNL     1       7.468  32.817  62.665  1.00  0.00     0.037 A 
ENDBRANCH   8   9
ENDBRANCH   7   8
ENDBRANCH   6   7
ENDBRANCH   3   6
ENDBRANCH   1   2
BRANCH   1  16
HETATM   16  S   UNL     1       6.033  27.220  57.071  1.00  0.00    -0.081 SA
BRANCH  16  17
HETATM   17  C   UNL     1       7.079  25.931  56.596  1.00  0.00     0.191 A 
HETATM   18  N   UNL     1       6.765  25.005  55.643  1.00  0.00    -0.312 N 
HETATM   19  C   UNL     1       5.640  25.029  54.744  1.00  0.00     0.160 C 
HETATM   20  C   UNL     1       7.781  24.071  55.680  1.00  0.00     0.164 A 
HETATM   21  N   UNL     1       8.693  24.491  56.540  1.00  0.00    -0.128 NA
HETATM   22  N   UNL     1       8.247  25.654  57.121  1.00  0.00    -0.122 NA
BRANCH  20  23
HETATM   23  C   UNL     1       7.837  22.830  54.903  1.00  0.00     0.018 A 
HETATM   24  C   UNL     1       7.992  22.840  53.500  1.00  0.00    -0.048 A 
HETATM   25  C   UNL     1       8.123  24.124  52.724  1.00  0.00     0.049 C 
HETATM   26  C   UNL     1       8.060  21.618  52.809  1.00  0.00     0.007 A 
HETATM   27  C   UNL     1       7.970  20.403  53.488  1.00  0.00     0.001 A 
HETATM   28  C   UNL     1       7.825  20.391  54.870  1.00  0.00     0.001 A 
HETATM   29  C   UNL     1       7.766  21.596  55.573  1.00  0.00     0.016 A 
ENDBRANCH  20  23
ENDBRANCH  16  17
ENDBRANCH   1  16
TORSDOF 8
ENDMDL
MODEL 6
REMARK VINA RESULT:      -9.1      1.636      2.331
REMARK  8 active torsions:
REMARK  status: ('A' for Active; 'I' for Inactive)
REMARK    1  A    between atoms: C_4  and  O_5 
REMARK    2  A    between atoms: O_5  and  C_6 
REMARK    3  A    between atoms: C_6  and  C_7 
REMARK    4  A    between atoms: C_7  and  N_8 
REMARK       I    between atoms: N_8  and  C_9 
REMARK    5  A    between atoms: C_9  and  C_10 
REMARK    6  A    between atoms: C_10  and  S_11 
REMARK    7  A    between atoms: S_11  and  C_12 
REMARK    8  A    between atoms: C_15  and  C_16 
ROOT
HETATM    1  C   UNL     1       5.877  29.635  55.815  1.00  0.00     0.185 C 
ENDROOT
BRANCH   1   2
HETATM    2  C   UNL     1       6.284  30.011  57.236  1.00  0.00     0.227 C 
HETATM    3  N   UNL     1       7.595  29.661  57.525  1.00  0.00    -0.358 N 
HETATM    4  H   UNL     1       8.214  29.474  56.745  1.00  0.00     0.162 HD
HETATM    5  O   UNL     1       5.537  30.524  58.065  1.00  0.00    -0.273 OA
BRANCH   3   6
HETATM    6  C   UNL     1       8.208  29.994  58.801  1.00  0.00     0.149 C 
BRANCH   6   7
HETATM    7  C   UNL     1       9.289  31.068  58.667  1.00  0.00     0.195 C 
BRANCH   7   8
HETATM    8  O   UNL     1       8.738  32.315  59.086  1.00  0.00    -0.350 OA
BRANCH   8   9
HETATM    9  C   UNL     1       8.155  32.363  60.323  1.00  0.00     0.069 A 
HETATM   10  C   UNL     1       6.822  32.674  60.596  1.00  0.00     0.043 A 
HETATM   11  C   UNL     1       6.351  32.695  61.920  1.00  0.00    -0.059 A 
HETATM   12  C   UNL     1       4.917  33.015  62.224  1.00  0.00     0.048 C 
HETATM   13  C   UNL     1       7.229  32.387  62.966  1.00  0.00     0.007 A 
HETATM   14  C   UNL     1       8.559  32.074  62.697  1.00  0.00     0.003 A 
HETATM   15  C   UNL     1       9.018  32.064  61.380  1.00  0.00     0.037 A 
ENDBRANCH   8   9
ENDBRANCH   7   8
ENDBRANCH   6   7
ENDBRANCH   3   6
ENDBRANCH   1   2
BRANCH   1  16
HETATM   16  S   UNL     1       4.894  28.113  55.757  1.00  0.00    -0.081 SA
BRANCH  16  17
HETATM   17  C   UNL     1       6.153  26.945  55.586  1.00  0.00     0.191 A 
HETATM   18  N   UNL     1       6.037  25.798  54.854  1.00  0.00    -0.312 N 
HETATM   19  C   UNL     1       4.966  25.442  53.959  1.00  0.00     0.160 C 
HETATM   20  C   UNL     1       7.187  25.075  55.104  1.00  0.00     0.164 A 
HETATM   21  N   UNL     1       7.979  25.816  55.862  1.00  0.00    -0.128 NA
HETATM   22  N   UNL     1       7.326  26.985  56.171  1.00  0.00    -0.122 NA
BRANCH  20  23
HETATM   23  C   UNL     1       7.477  23.725  54.617  1.00  0.00     0.018 A 
HETATM   24  C   UNL     1       7.853  23.485  53.278  1.00  0.00    -0.048 A 
HETATM   25  C   UNL     1       7.989  24.602  52.278  1.00  0.00     0.049 C 
HETATM   26  C   UNL     1       8.139  22.169  52.871  1.00  0.00     0.007 A 
HETATM   27  C   UNL     1       8.051  21.106  53.769  1.00  0.00     0.001 A 
HETATM   28  C   UNL     1       7.689  21.341  55.090  1.00  0.00     0.001 A 
HETATM   29  C   UNL     1       7.411  22.643  55.512  1.00  0.00     0.016 A 
ENDBRANCH  20  23
ENDBRANCH  16  17
ENDBRANCH   1  16
TORSDOF 8
ENDMDL
MODEL 7
REMARK VINA RESULT:      -8.9      1.820      2.518
REMARK  8 active torsions:
REMARK  status: ('A' for Active; 'I' for Inactive)
REMARK    1  A    between atoms: C_4  and  O_5 
REMARK    2  A    between atoms: O_5  and  C_6 
REMARK    3  A    between atoms: C_6  and  C_7 
REMARK    4  A    between atoms: C_7  and  N_8 
REMARK       I    between atoms: N_8  and  C_9 
REMARK    5  A    between atoms: C_9  and  C_10 
REMARK    6  A    between atoms: C_10  and  S_11 
REMARK    7  A    between atoms: S_11  and  C_12 
REMARK    8  A    between atoms: C_15  and  C_16 
ROOT
HETATM    1  C   UNL     1       5.434  29.619  57.445  1.00  0.00     0.185 C 
ENDROOT
BRANCH   1   2
HETATM    2  C   UNL     1       6.913  29.856  57.731  1.00  0.00     0.227 C 
HETATM    3  N   UNL     1       7.165  30.097  59.074  1.00  0.00    -0.358 N 
HETATM    4  H   UNL     1       6.454  29.822  59.741  1.00  0.00     0.162 HD
HETATM    5  O   UNL     1       7.795  29.884  56.876  1.00  0.00    -0.273 OA
BRANCH   3   6
HETATM    6  C   UNL     1       8.518  30.277  59.574  1.00  0.00     0.149 C 
BRANCH   6   7
HETATM    7  C   UNL     1       8.621  31.426  60.578  1.00  0.00     0.195 C 
BRANCH   7   8
HETATM    8  O   UNL     1       8.073  30.988  61.820  1.00  0.00    -0.350 OA
BRANCH   8   9
HETATM    9  C   UNL     1       7.366  31.900  62.555  1.00  0.00     0.069 A 
HETATM   10  C   UNL     1       6.031  32.258  62.363  1.00  0.00     0.043 A 
HETATM   11  C   UNL     1       5.424  33.220  63.189  1.00  0.00    -0.059 A 
HETATM   12  C   UNL     1       3.985  33.602  63.001  1.00  0.00     0.048 C 
HETATM   13  C   UNL     1       6.168  33.807  64.220  1.00  0.00     0.007 A 
HETATM   14  C   UNL     1       7.500  33.450  64.415  1.00  0.00     0.003 A 
HETATM   15  C   UNL     1       8.095  32.502  63.584  1.00  0.00     0.037 A 
ENDBRANCH   8   9
ENDBRANCH   7   8
ENDBRANCH   6   7
ENDBRANCH   3   6
ENDBRANCH   1   2
BRANCH   1  16
HETATM   16  S   UNL     1       5.138  29.063  55.745  1.00  0.00    -0.081 SA
BRANCH  16  17
HETATM   17  C   UNL     1       5.553  27.394  55.895  1.00  0.00     0.191 A 
HETATM   18  N   UNL     1       6.519  26.777  55.152  1.00  0.00    -0.312 N 
HETATM   19  C   UNL     1       7.476  27.405  54.278  1.00  0.00     0.160 C 
HETATM   20  C   UNL     1       6.425  25.434  55.457  1.00  0.00     0.164 A 
HETATM   21  N   UNL     1       5.519  25.292  56.410  1.00  0.00    -0.128 NA
HETATM   22  N   UNL     1       4.965  26.521  56.677  1.00  0.00    -0.122 NA
BRANCH  20  23
HETATM   23  C   UNL     1       7.195  24.355  54.834  1.00  0.00     0.018 A 
HETATM   24  C   UNL     1       6.897  23.884  53.538  1.00  0.00    -0.048 A 
HETATM   25  C   UNL     1       5.780  24.472  52.716  1.00  0.00     0.049 C 
HETATM   26  C   UNL     1       7.682  22.859  52.982  1.00  0.00     0.007 A 
HETATM   27  C   UNL     1       8.743  22.301  53.695  1.00  0.00     0.001 A 
HETATM   28  C   UNL     1       9.044  22.769  54.969  1.00  0.00     0.001 A 
HETATM   29  C   UNL     1       8.279  23.793  55.532  1.00  0.00     0.016 A 
ENDBRANCH  20  23
ENDBRANCH  16  17
ENDBRANCH   1  16
TORSDOF 8
ENDMDL
MODEL 8
REMARK VINA RESULT:      -8.9      2.015      3.138
REMARK  8 active torsions:
REMARK  status: ('A' for Active; 'I' for Inactive)
REMARK    1  A    between atoms: C_4  and  O_5 
REMARK    2  A    between atoms: O_5  and  C_6 
REMARK    3  A    between atoms: C_6  and  C_7 
REMARK    4  A    between atoms: C_7  and  N_8 
REMARK       I    between atoms: N_8  and  C_9 
REMARK    5  A    between atoms: C_9  and  C_10 
REMARK    6  A    between atoms: C_10  and  S_11 
REMARK    7  A    between atoms: S_11  and  C_12 
REMARK    8  A    between atoms: C_15  and  C_16 
ROOT
HETATM    1  C   UNL     1       6.156  28.942  56.433  1.00  0.00     0.185 C 
ENDROOT
BRANCH   1   2
HETATM    2  C   UNL     1       5.313  30.181  56.715  1.00  0.00     0.227 C 
HETATM    3  N   UNL     1       4.889  30.249  58.035  1.00  0.00    -0.358 N 
HETATM    4  H   UNL     1       5.379  29.681  58.715  1.00  0.00     0.162 HD
HETATM    5  O   UNL     1       4.993  31.015  55.872  1.00  0.00    -0.273 OA
BRANCH   3   6
HETATM    6  C   UNL     1       4.134  31.387  58.533  1.00  0.00     0.149 C 
BRANCH   6   7
HETATM    7  C   UNL     1       5.034  32.561  58.923  1.00  0.00     0.195 C 
BRANCH   7   8
HETATM    8  O   UNL     1       5.521  32.333  60.243  1.00  0.00    -0.350 OA
BRANCH   8   9
HETATM    9  C   UNL     1       6.871  32.170  60.398  1.00  0.00     0.069 A 
HETATM   10  C   UNL     1       7.794  31.923  59.381  1.00  0.00     0.043 A 
HETATM   11  C   UNL     1       9.159  31.768  59.679  1.00  0.00    -0.059 A 
HETATM   12  C   UNL     1      10.163  31.515  58.592  1.00  0.00     0.048 C 
HETATM   13  C   UNL     1       9.589  31.881  61.007  1.00  0.00     0.007 A 
HETATM   14  C   UNL     1       8.671  32.130  62.023  1.00  0.00     0.003 A 
HETATM   15  C   UNL     1       7.318  32.273  61.718  1.00  0.00     0.037 A 
ENDBRANCH   8   9
ENDBRANCH   7   8
ENDBRANCH   6   7
ENDBRANCH   3   6
ENDBRANCH   1   2
BRANCH   1  16
HETATM   16  S   UNL     1       5.225  27.404  56.661  1.00  0.00    -0.081 SA
BRANCH  16  17
HETATM   17  C   UNL     1       6.445  26.249  56.264  1.00  0.00     0.191 A 
HETATM   18  N   UNL     1       6.267  25.222  55.381  1.00  0.00    -0.312 N 
HETATM   19  C   UNL     1       5.148  25.021  54.497  1.00  0.00     0.160 C 
HETATM   20  C   UNL     1       7.407  24.449  55.470  1.00  0.00     0.164 A 
HETATM   21  N   UNL     1       8.251  25.057  56.288  1.00  0.00    -0.128 NA
HETATM   22  N   UNL     1       7.642  26.180  56.793  1.00  0.00    -0.122 NA
BRANCH  20  23
HETATM   23  C   UNL     1       7.641  23.179  54.780  1.00  0.00     0.018 A 
HETATM   24  C   UNL     1       7.918  23.125  53.397  1.00  0.00    -0.048 A 
HETATM   25  C   UNL     1       8.003  24.371  52.556  1.00  0.00     0.049 C 
HETATM   26  C   UNL     1       8.154  21.878  52.792  1.00  0.00     0.007 A 
HETATM   27  C   UNL     1       8.111  20.700  53.537  1.00  0.00     0.001 A 
HETATM   28  C   UNL     1       7.846  20.751  54.901  1.00  0.00     0.001 A 
HETATM   29  C   UNL     1       7.619  21.982  55.519  1.00  0.00     0.016 A 
ENDBRANCH  20  23
ENDBRANCH  16  17
ENDBRANCH   1  16
TORSDOF 8
ENDMDL
MODEL 9
REMARK VINA RESULT:      -8.8      2.255     11.086
REMARK  8 active torsions:
REMARK  status: ('A' for Active; 'I' for Inactive)
REMARK    1  A    between atoms: C_4  and  O_5 
REMARK    2  A    between atoms: O_5  and  C_6 
REMARK    3  A    between atoms: C_6  and  C_7 
REMARK    4  A    between atoms: C_7  and  N_8 
REMARK       I    between atoms: N_8  and  C_9 
REMARK    5  A    between atoms: C_9  and  C_10 
REMARK    6  A    between atoms: C_10  and  S_11 
REMARK    7  A    between atoms: S_11  and  C_12 
REMARK    8  A    between atoms: C_15  and  C_16 
ROOT
HETATM    1  C   UNL     1       7.098  29.249  57.792  1.00  0.00     0.185 C 
ENDROOT
BRANCH   1   2
HETATM    2  C   UNL     1       7.444  28.466  56.530  1.00  0.00     0.227 C 
HETATM    3  N   UNL     1       6.494  27.502  56.223  1.00  0.00    -0.358 N 
HETATM    4  H   UNL     1       5.581  27.590  56.651  1.00  0.00     0.162 HD
HETATM    5  O   UNL     1       8.468  28.621  55.870  1.00  0.00    -0.273 OA
BRANCH   3   6
HETATM    6  C   UNL     1       6.594  26.692  55.020  1.00  0.00     0.149 C 
BRANCH   6   7
HETATM    7  C   UNL     1       7.238  25.329  55.285  1.00  0.00     0.195 C 
BRANCH   7   8
HETATM    8  O   UNL     1       7.278  24.606  54.057  1.00  0.00    -0.350 OA
BRANCH   8   9
HETATM    9  C   UNL     1       7.541  23.264  54.123  1.00  0.00     0.069 A 
HETATM   10  C   UNL     1       7.607  22.493  55.284  1.00  0.00     0.043 A 
HETATM   11  C   UNL     1       7.895  21.119  55.212  1.00  0.00    -0.059 A 
HETATM   12  C   UNL     1       7.955  20.277  56.452  1.00  0.00     0.048 C 
HETATM   13  C   UNL     1       8.100  20.525  53.960  1.00  0.00     0.007 A 
HETATM   14  C   UNL     1       8.032  21.292  52.800  1.00  0.00     0.003 A 
HETATM   15  C   UNL     1       7.755  22.656  52.884  1.00  0.00     0.037 A 
ENDBRANCH   8   9
ENDBRANCH   7   8
ENDBRANCH   6   7
ENDBRANCH   3   6
ENDBRANCH   1   2
BRANCH   1  16
HETATM   16  S   UNL     1       8.556  30.000  58.564  1.00  0.00    -0.081 SA
BRANCH  16  17
HETATM   17  C   UNL     1       7.800  31.240  59.498  1.00  0.00     0.191 A 
HETATM   18  N   UNL     1       7.886  31.332  60.857  1.00  0.00    -0.312 N 
HETATM   19  C   UNL     1       8.743  30.569  61.728  1.00  0.00     0.160 C 
HETATM   20  C   UNL     1       7.024  32.347  61.219  1.00  0.00     0.164 A 
HETATM   21  N   UNL     1       6.540  32.889  60.113  1.00  0.00    -0.128 NA
HETATM   22  N   UNL     1       7.021  32.187  59.034  1.00  0.00    -0.122 NA
BRANCH  20  23
HETATM   23  C   UNL     1       6.699  32.753  62.589  1.00  0.00     0.018 A 
HETATM   24  C   UNL     1       5.375  32.734  63.074  1.00  0.00    -0.048 A 
HETATM   25  C   UNL     1       4.221  32.283  62.218  1.00  0.00     0.049 C 
HETATM   26  C   UNL     1       5.126  33.116  64.405  1.00  0.00     0.007 A 
HETATM   27  C   UNL     1       6.166  33.517  65.243  1.00  0.00     0.001 A 
HETATM   28  C   UNL     1       7.473  33.528  64.769  1.00  0.00     0.001 A 
HETATM   29  C   UNL     1       7.738  33.143  63.454  1.00  0.00     0.016 A 
ENDBRANCH  20  23
ENDBRANCH  16  17
ENDBRANCH   1  16
TORSDOF 8
ENDMDL
MODEL 10
REMARK VINA RESULT:      -8.8      2.313      3.552
REMARK  8 active torsions:
REMARK  status: ('A' for Active; 'I' for Inactive)
REMARK    1  A    between atoms: C_4  and  O_5 
REMARK    2  A    between atoms: O_5  and  C_6 
REMARK    3  A    between atoms: C_6  and  C_7 
REMARK    4  A    between atoms: C_7  and  N_8 
REMARK       I    between atoms: N_8  and  C_9 
REMARK    5  A    between atoms: C_9  and  C_10 
REMARK    6  A    between atoms: C_10  and  S_11 
REMARK    7  A    between atoms: S_11  and  C_12 
REMARK    8  A    between atoms: C_15  and  C_16 
ROOT
HETATM    1  C   UNL     1       4.955  30.296  57.554  1.00  0.00     0.185 C 
ENDROOT
BRANCH   1   2
HETATM    2  C   UNL     1       6.074  31.166  58.116  1.00  0.00     0.227 C 
HETATM    3  N   UNL     1       7.055  30.424  58.759  1.00  0.00    -0.358 N 
HETATM    4  H   UNL     1       7.100  29.433  58.559  1.00  0.00     0.162 HD
HETATM    5  O   UNL     1       6.101  32.393  58.061  1.00  0.00    -0.273 OA
BRANCH   3   6
HETATM    6  C   UNL     1       8.248  31.052  59.304  1.00  0.00     0.149 C 
BRANCH   6   7
HETATM    7  C   UNL     1       8.409  30.797  60.804  1.00  0.00     0.195 C 
BRANCH   7   8
HETATM    8  O   UNL     1       8.835  32.010  61.422  1.00  0.00    -0.350 OA
BRANCH   8   9
HETATM    9  C   UNL     1       7.921  32.683  62.187  1.00  0.00     0.069 A 
HETATM   10  C   UNL     1       6.854  33.449  61.716  1.00  0.00     0.043 A 
HETATM   11  C   UNL     1       5.990  34.098  62.615  1.00  0.00    -0.059 A 
HETATM   12  C   UNL     1       4.832  34.913  62.119  1.00  0.00     0.048 C 
HETATM   13  C   UNL     1       6.199  33.955  63.992  1.00  0.00     0.007 A 
HETATM   14  C   UNL     1       7.261  33.189  64.465  1.00  0.00     0.003 A 
HETATM   15  C   UNL     1       8.118  32.557  63.565  1.00  0.00     0.037 A 
ENDBRANCH   8   9
ENDBRANCH   7   8
ENDBRANCH   6   7
ENDBRANCH   3   6
ENDBRANCH   1   2
BRANCH   1  16
HETATM   16  S   UNL     1       4.917  30.302  55.742  1.00  0.00    -0.081 SA
BRANCH  16  17
HETATM   17  C   UNL     1       6.123  29.113  55.409  1.00  0.00     0.191 A 
HETATM   18  N   UNL     1       5.895  27.973  54.691  1.00  0.00    -0.312 N 
HETATM   19  C   UNL     1       4.714  27.644  53.935  1.00  0.00     0.160 C 
HETATM   20  C   UNL     1       7.053  27.228  54.793  1.00  0.00     0.164 A 
HETATM   21  N   UNL     1       7.947  27.948  55.451  1.00  0.00    -0.128 NA
HETATM   22  N   UNL     1       7.359  29.126  55.845  1.00  0.00    -0.122 NA
BRANCH  20  23
HETATM   23  C   UNL     1       7.255  25.877  54.266  1.00  0.00     0.018 A 
HETATM   24  C   UNL     1       6.997  24.730  55.047  1.00  0.00    -0.048 A 
HETATM   25  C   UNL     1       6.486  24.829  56.459  1.00  0.00     0.049 C 
HETATM   26  C   UNL     1       7.190  23.457  54.481  1.00  0.00     0.007 A 
HETATM   27  C   UNL     1       7.637  23.316  53.168  1.00  0.00     0.001 A 
HETATM   28  C   UNL     1       7.885  24.444  52.394  1.00  0.00     0.001 A 
HETATM   29  C   UNL     1       7.688  25.715  52.938  1.00  0.00     0.016 A 
ENDBRANCH  20  23
ENDBRANCH  16  17
ENDBRANCH   1  16
TORSDOF 8
ENDMDL
