MODEL 1
REMARK VINA RESULT:     -11.1      0.000      0.000
REMARK  7 active torsions:
REMARK  status: ('A' for Active; 'I' for Inactive)
REMARK    1  A    between atoms: C_4  and  C_5 
REMARK    2  A    between atoms: C_5  and  N_6 
REMARK    3  A    between atoms: C_14  and  C_15 
REMARK    4  A    between atoms: C_18  and  O_19 
REMARK    5  A    between atoms: O_19  and  C_20 
REMARK    6  A    between atoms: C_20  and  C_21 
REMARK    7  A    between atoms: C_22  and  C_23 
ROOT
HETATM    1  N   UNL     1       4.921  27.591  49.472  1.00  0.00    -0.063 N 
HETATM    2  H   UNL     1       5.897  27.818  49.692  1.00  0.00     0.280 HD
HETATM    3  C   UNL     1       4.091  28.514  50.355  1.00  0.00     0.282 C 
HETATM    4  C   UNL     1       4.293  28.160  51.789  1.00  0.00     0.018 A 
HETATM    5  C   UNL     1       4.837  26.971  52.243  1.00  0.00    -0.023 A 
HETATM    6  C   UNL     1       4.909  26.951  53.673  1.00  0.00     0.073 A 
HETATM    7  C   UNL     1       4.339  28.072  54.227  1.00  0.00     0.088 A 
HETATM    8  N   UNL     1       4.221  28.265  55.554  1.00  0.00    -0.358 N 
HETATM    9  C   UNL     1       4.988  27.452  56.478  1.00  0.00     0.219 C 
HETATM   10  N   UNL     1       5.405  26.209  55.883  1.00  0.00    -0.332 N 
HETATM   11  C   UNL     1       5.465  25.937  54.547  1.00  0.00     0.256 C 
HETATM   12  O   UNL     1       5.967  24.903  54.119  1.00  0.00    -0.267 OA
HETATM   13  S   UNL     1       3.809  29.186  53.057  1.00  0.00    -0.074 SA
HETATM   14  C   UNL     1       5.293  25.901  51.294  1.00  0.00     0.068 C 
HETATM   15  C   UNL     1       4.735  26.133  49.875  1.00  0.00     0.240 C 
HETATM   16  H   UNL     1       3.980  29.187  55.906  1.00  0.00     0.162 HD
HETATM   17  H   UNL     1       5.849  25.527  56.480  1.00  0.00     0.165 HD
ENDROOT
BRANCH   9  18
HETATM   18  C   UNL     1       6.143  28.262  57.034  1.00  0.00    -0.016 A 
HETATM   19  C   UNL     1       7.407  27.662  57.178  1.00  0.00     0.014 A 
HETATM   20  C   UNL     1       8.461  28.353  57.781  1.00  0.00     0.038 A 
HETATM   21  C   UNL     1       8.260  29.653  58.241  1.00  0.00     0.079 A 
HETATM   22  C   UNL     1       7.021  30.272  58.102  1.00  0.00     0.038 A 
HETATM   23  C   UNL     1       5.971  29.581  57.494  1.00  0.00     0.014 A 
BRANCH  21  24
HETATM   24  O   UNL     1       9.328  30.217  58.968  1.00  0.00    -0.276 OA
BRANCH  24  25
HETATM   25  C   UNL     1       9.476  31.587  59.117  1.00  0.00     0.288 C 
HETATM   26  O   UNL     1      10.195  32.325  58.459  1.00  0.00    -0.260 OA
BRANCH  25  27
HETATM   27  C   UNL     1       8.587  32.095  60.184  1.00  0.00     0.085 C 
HETATM   28  C   UNL     1       8.678  31.735  61.473  1.00  0.00     0.043 C 
BRANCH  28  29
HETATM   29  C   UNL     1       7.739  32.205  62.431  1.00  0.00     0.075 A 
HETATM   30  O   UNL     1       6.373  32.105  62.289  1.00  0.00    -0.323 OA
HETATM   31  C   UNL     1       5.788  32.625  63.395  1.00  0.00     0.142 A 
HETATM   32  C   UNL     1       6.740  33.075  64.273  1.00  0.00     0.027 A 
HETATM   33  C   UNL     1       7.986  32.810  63.658  1.00  0.00     0.039 A 
ENDBRANCH  28  29
ENDBRANCH  25  27
ENDBRANCH  24  25
ENDBRANCH  21  24
ENDBRANCH   9  18
BRANCH   1  34
HETATM   34  C   UNL     1       4.770  27.859  47.996  1.00  0.00     0.273 C 
BRANCH  34  35
HETATM   35  C   UNL     1       3.361  28.037  47.500  1.00  0.00    -0.033 A 
HETATM   36  C   UNL     1       2.512  26.924  47.371  1.00  0.00     0.009 A 
HETATM   37  C   UNL     1       1.214  27.075  46.884  1.00  0.00     0.001 A 
HETATM   38  C   UNL     1       0.746  28.336  46.525  1.00  0.00     0.000 A 
HETATM   39  C   UNL     1       1.572  29.449  46.659  1.00  0.00     0.001 A 
HETATM   40  C   UNL     1       2.873  29.303  47.147  1.00  0.00     0.009 A 
ENDBRANCH  34  35
ENDBRANCH   1  34
TORSDOF 7
ENDMDL
MODEL 2
REMARK VINA RESULT:     -10.9      4.984     12.634
REMARK  7 active torsions:
REMARK  status: ('A' for Active; 'I' for Inactive)
REMARK    1  A    between atoms: C_4  and  C_5 
REMARK    2  A    between atoms: C_5  and  N_6 
REMARK    3  A    between atoms: C_14  and  C_15 
REMARK    4  A    between atoms: C_18  and  O_19 
REMARK    5  A    between atoms: O_19  and  C_20 
REMARK    6  A    between atoms: C_20  and  C_21 
REMARK    7  A    between atoms: C_22  and  C_23 
ROOT
HETATM    1  N   UNL     1       4.541  33.572  62.919  1.00  0.00    -0.063 N 
HETATM    2  H   UNL     1       4.225  32.601  63.023  1.00  0.00     0.280 HD
HETATM    3  C   UNL     1       4.446  33.863  61.427  1.00  0.00     0.282 C 
HETATM    4  C   UNL     1       5.426  33.020  60.684  1.00  0.00     0.018 A 
HETATM    5  C   UNL     1       6.499  32.360  61.256  1.00  0.00    -0.023 A 
HETATM    6  C   UNL     1       7.236  31.625  60.273  1.00  0.00     0.073 A 
HETATM    7  C   UNL     1       6.744  31.835  59.007  1.00  0.00     0.088 A 
HETATM    8  N   UNL     1       7.300  31.309  57.898  1.00  0.00    -0.358 N 
HETATM    9  C   UNL     1       8.253  30.222  58.010  1.00  0.00     0.219 C 
HETATM   10  N   UNL     1       8.861  30.170  59.313  1.00  0.00    -0.332 N 
HETATM   11  C   UNL     1       8.380  30.752  60.449  1.00  0.00     0.256 C 
HETATM   12  O   UNL     1       8.882  30.541  61.548  1.00  0.00    -0.267 OA
HETATM   13  S   UNL     1       5.358  32.821  58.995  1.00  0.00    -0.074 SA
HETATM   14  C   UNL     1       6.774  32.436  62.730  1.00  0.00     0.068 C 
HETATM   15  C   UNL     1       5.990  33.588  63.390  1.00  0.00     0.240 C 
HETATM   16  H   UNL     1       6.785  31.330  57.023  1.00  0.00     0.162 HD
HETATM   17  H   UNL     1       9.618  29.516  59.453  1.00  0.00     0.165 HD
ENDROOT
BRANCH   9  18
HETATM   18  C   UNL     1       7.588  28.917  57.611  1.00  0.00    -0.016 A 
HETATM   19  C   UNL     1       8.381  27.787  57.341  1.00  0.00     0.014 A 
HETATM   20  C   UNL     1       7.803  26.605  56.874  1.00  0.00     0.038 A 
HETATM   21  C   UNL     1       6.425  26.541  56.678  1.00  0.00     0.079 A 
HETATM   22  C   UNL     1       5.617  27.643  56.946  1.00  0.00     0.038 A 
HETATM   23  C   UNL     1       6.198  28.822  57.418  1.00  0.00     0.014 A 
BRANCH  21  24
HETATM   24  O   UNL     1       5.948  25.365  56.064  1.00  0.00    -0.276 OA
BRANCH  24  25
HETATM   25  C   UNL     1       5.819  25.252  54.688  1.00  0.00     0.288 C 
HETATM   26  O   UNL     1       5.316  26.064  53.926  1.00  0.00    -0.260 OA
BRANCH  25  27
HETATM   27  C   UNL     1       6.435  23.995  54.210  1.00  0.00     0.085 C 
HETATM   28  C   UNL     1       7.188  23.188  54.974  1.00  0.00     0.043 C 
BRANCH  28  29
HETATM   29  C   UNL     1       7.811  22.036  54.425  1.00  0.00     0.075 A 
HETATM   30  O   UNL     1       8.347  21.013  55.175  1.00  0.00    -0.323 OA
HETATM   31  C   UNL     1       8.831  20.069  54.332  1.00  0.00     0.142 A 
HETATM   32  C   UNL     1       8.631  20.445  53.029  1.00  0.00     0.027 A 
HETATM   33  C   UNL     1       7.982  21.701  53.085  1.00  0.00     0.039 A 
ENDBRANCH  28  29
ENDBRANCH  25  27
ENDBRANCH  24  25
ENDBRANCH  21  24
ENDBRANCH   9  18
BRANCH   1  34
HETATM   34  C   UNL     1       3.597  34.392  63.762  1.00  0.00     0.273 C 
BRANCH  34  35
HETATM   35  C   UNL     1       4.095  34.767  65.131  1.00  0.00    -0.033 A 
HETATM   36  C   UNL     1       4.255  36.121  65.478  1.00  0.00     0.009 A 
HETATM   37  C   UNL     1       4.745  36.477  66.734  1.00  0.00     0.001 A 
HETATM   38  C   UNL     1       5.076  35.491  67.659  1.00  0.00     0.000 A 
HETATM   39  C   UNL     1       4.911  34.147  67.334  1.00  0.00     0.001 A 
HETATM   40  C   UNL     1       4.420  33.785  66.077  1.00  0.00     0.009 A 
ENDBRANCH  34  35
ENDBRANCH   1  34
TORSDOF 7
ENDMDL
MODEL 3
REMARK VINA RESULT:     -10.5      4.892      7.337
REMARK  7 active torsions:
REMARK  status: ('A' for Active; 'I' for Inactive)
REMARK    1  A    between atoms: C_4  and  C_5 
REMARK    2  A    between atoms: C_5  and  N_6 
REMARK    3  A    between atoms: C_14  and  C_15 
REMARK    4  A    between atoms: C_18  and  O_19 
REMARK    5  A    between atoms: O_19  and  C_20 
REMARK    6  A    between atoms: C_20  and  C_21 
REMARK    7  A    between atoms: C_22  and  C_23 
ROOT
HETATM    1  N   UNL     1       6.630  26.135  56.791  1.00  0.00    -0.063 N 
HETATM    2  H   UNL     1       6.146  25.986  57.683  1.00  0.00     0.280 HD
HETATM    3  C   UNL     1       7.770  27.093  57.114  1.00  0.00     0.282 C 
HETATM    4  C   UNL     1       7.219  28.417  57.520  1.00  0.00     0.018 A 
HETATM    5  C   UNL     1       5.921  28.840  57.291  1.00  0.00    -0.023 A 
HETATM    6  C   UNL     1       5.707  30.153  57.820  1.00  0.00     0.073 A 
HETATM    7  C   UNL     1       6.862  30.689  58.336  1.00  0.00     0.088 A 
HETATM    8  N   UNL     1       6.943  31.938  58.835  1.00  0.00    -0.358 N 
HETATM    9  C   UNL     1       5.734  32.669  59.160  1.00  0.00     0.219 C 
HETATM   10  N   UNL     1       4.590  32.163  58.448  1.00  0.00    -0.332 N 
HETATM   11  C   UNL     1       4.488  30.938  57.856  1.00  0.00     0.256 C 
HETATM   12  O   UNL     1       3.429  30.529  57.393  1.00  0.00    -0.267 OA
HETATM   13  S   UNL     1       8.171  29.605  58.280  1.00  0.00    -0.074 SA
HETATM   14  C   UNL     1       4.920  27.966  56.594  1.00  0.00     0.068 C 
HETATM   15  C   UNL     1       5.608  26.791  55.870  1.00  0.00     0.240 C 
HETATM   16  H   UNL     1       7.757  32.206  59.379  1.00  0.00     0.162 HD
HETATM   17  H   UNL     1       3.724  32.677  58.524  1.00  0.00     0.165 HD
ENDROOT
BRANCH   9  18
HETATM   18  C   UNL     1       5.538  32.687  60.665  1.00  0.00    -0.016 A 
HETATM   19  C   UNL     1       4.240  32.582  61.198  1.00  0.00     0.014 A 
HETATM   20  C   UNL     1       4.022  32.698  62.572  1.00  0.00     0.038 A 
HETATM   21  C   UNL     1       5.101  32.916  63.426  1.00  0.00     0.079 A 
HETATM   22  C   UNL     1       6.395  33.015  62.925  1.00  0.00     0.038 A 
HETATM   23  C   UNL     1       6.611  32.893  61.550  1.00  0.00     0.014 A 
BRANCH  21  24
HETATM   24  O   UNL     1       4.773  33.171  64.774  1.00  0.00    -0.276 OA
BRANCH  24  25
HETATM   25  C   UNL     1       5.132  34.350  65.409  1.00  0.00     0.288 C 
HETATM   26  O   UNL     1       4.837  35.487  65.073  1.00  0.00    -0.260 OA
BRANCH  25  27
HETATM   27  C   UNL     1       5.912  34.065  66.633  1.00  0.00     0.085 C 
HETATM   28  C   UNL     1       5.789  34.750  67.780  1.00  0.00     0.043 C 
BRANCH  28  29
HETATM   29  C   UNL     1       6.628  34.470  68.892  1.00  0.00     0.075 A 
HETATM   30  O   UNL     1       6.339  33.540  69.866  1.00  0.00    -0.323 OA
HETATM   31  C   UNL     1       7.364  33.513  70.752  1.00  0.00     0.142 A 
HETATM   32  C   UNL     1       8.332  34.413  70.390  1.00  0.00     0.027 A 
HETATM   33  C   UNL     1       7.864  35.027  69.204  1.00  0.00     0.039 A 
ENDBRANCH  28  29
ENDBRANCH  25  27
ENDBRANCH  24  25
ENDBRANCH  21  24
ENDBRANCH   9  18
BRANCH   1  34
HETATM   34  C   UNL     1       7.088  24.768  56.350  1.00  0.00     0.273 C 
BRANCH  34  35
HETATM   35  C   UNL     1       7.330  24.599  54.875  1.00  0.00    -0.033 A 
HETATM   36  C   UNL     1       7.312  23.317  54.299  1.00  0.00     0.009 A 
HETATM   37  C   UNL     1       7.565  23.148  52.937  1.00  0.00     0.001 A 
HETATM   38  C   UNL     1       7.834  24.254  52.136  1.00  0.00     0.000 A 
HETATM   39  C   UNL     1       7.843  25.531  52.690  1.00  0.00     0.001 A 
HETATM   40  C   UNL     1       7.589  25.705  54.053  1.00  0.00     0.009 A 
ENDBRANCH  34  35
ENDBRANCH   1  34
TORSDOF 7
ENDMDL
MODEL 4
REMARK VINA RESULT:     -10.3      4.329      6.065
REMARK  7 active torsions:
REMARK  status: ('A' for Active; 'I' for Inactive)
REMARK    1  A    between atoms: C_4  and  C_5 
REMARK    2  A    between atoms: C_5  and  N_6 
REMARK    3  A    between atoms: C_14  and  C_15 
REMARK    4  A    between atoms: C_18  and  O_19 
REMARK    5  A    between atoms: O_19  and  C_20 
REMARK    6  A    between atoms: C_20  and  C_21 
REMARK    7  A    between atoms: C_22  and  C_23 
ROOT
HETATM    1  N   UNL     1       7.354  24.489  53.623  1.00  0.00    -0.063 N 
HETATM    2  H   UNL     1       7.650  24.368  54.598  1.00  0.00     0.280 HD
HETATM    3  C   UNL     1       7.876  25.862  53.219  1.00  0.00     0.282 C 
HETATM    4  C   UNL     1       7.180  26.920  54.006  1.00  0.00     0.018 A 
HETATM    5  C   UNL     1       6.003  26.739  54.711  1.00  0.00    -0.023 A 
HETATM    6  C   UNL     1       5.607  27.946  55.370  1.00  0.00     0.073 A 
HETATM    7  C   UNL     1       6.443  28.992  55.063  1.00  0.00     0.088 A 
HETATM    8  N   UNL     1       6.251  30.250  55.504  1.00  0.00    -0.358 N 
HETATM    9  C   UNL     1       5.336  30.504  56.600  1.00  0.00     0.219 C 
HETATM   10  N   UNL     1       4.373  29.445  56.754  1.00  0.00    -0.332 N 
HETATM   11  C   UNL     1       4.484  28.178  56.258  1.00  0.00     0.256 C 
HETATM   12  O   UNL     1       3.687  27.295  56.555  1.00  0.00    -0.267 OA
HETATM   13  S   UNL     1       7.745  28.524  54.074  1.00  0.00    -0.074 SA
HETATM   14  C   UNL     1       5.305  25.410  54.749  1.00  0.00     0.068 C 
HETATM   15  C   UNL     1       5.831  24.467  53.648  1.00  0.00     0.240 C 
HETATM   16  H   UNL     1       6.999  30.931  55.415  1.00  0.00     0.162 HD
HETATM   17  H   UNL     1       3.625  29.581  57.418  1.00  0.00     0.165 HD
ENDROOT
BRANCH   9  18
HETATM   18  C   UNL     1       6.121  30.782  57.868  1.00  0.00    -0.016 A 
HETATM   19  C   UNL     1       5.735  31.844  58.705  1.00  0.00     0.014 A 
HETATM   20  C   UNL     1       6.500  32.185  59.823  1.00  0.00     0.038 A 
HETATM   21  C   UNL     1       7.656  31.463  60.115  1.00  0.00     0.079 A 
HETATM   22  C   UNL     1       8.054  30.403  59.307  1.00  0.00     0.038 A 
HETATM   23  C   UNL     1       7.284  30.060  58.193  1.00  0.00     0.014 A 
BRANCH  21  24
HETATM   24  O   UNL     1       8.444  31.970  61.168  1.00  0.00    -0.276 OA
BRANCH  24  25
HETATM   25  C   UNL     1       8.383  31.448  62.452  1.00  0.00     0.288 C 
HETATM   26  O   UNL     1       8.880  30.403  62.845  1.00  0.00    -0.260 OA
BRANCH  25  27
HETATM   27  C   UNL     1       7.655  32.366  63.353  1.00  0.00     0.085 C 
HETATM   28  C   UNL     1       6.317  32.420  63.451  1.00  0.00     0.043 C 
BRANCH  28  29
HETATM   29  C   UNL     1       5.684  33.382  64.282  1.00  0.00     0.075 A 
HETATM   30  O   UNL     1       4.716  33.082  65.215  1.00  0.00    -0.323 OA
HETATM   31  C   UNL     1       4.356  34.228  65.844  1.00  0.00     0.142 A 
HETATM   32  C   UNL     1       5.064  35.290  65.344  1.00  0.00     0.027 A 
HETATM   33  C   UNL     1       5.911  34.753  64.345  1.00  0.00     0.039 A 
ENDBRANCH  28  29
ENDBRANCH  25  27
ENDBRANCH  24  25
ENDBRANCH  21  24
ENDBRANCH   9  18
BRANCH   1  34
HETATM   34  C   UNL     1       7.988  23.348  52.867  1.00  0.00     0.273 C 
BRANCH  34  35
HETATM   35  C   UNL     1       8.355  22.141  53.686  1.00  0.00    -0.033 A 
HETATM   36  C   UNL     1       8.420  20.873  53.082  1.00  0.00     0.009 A 
HETATM   37  C   UNL     1       8.730  19.743  53.839  1.00  0.00     0.001 A 
HETATM   38  C   UNL     1       8.983  19.865  55.203  1.00  0.00     0.000 A 
HETATM   39  C   UNL     1       8.934  21.117  55.811  1.00  0.00     0.001 A 
HETATM   40  C   UNL     1       8.625  22.251  55.057  1.00  0.00     0.009 A 
ENDBRANCH  34  35
ENDBRANCH   1  34
TORSDOF 7
ENDMDL
MODEL 5
REMARK VINA RESULT:     -10.1      3.276     12.073
REMARK  7 active torsions:
REMARK  status: ('A' for Active; 'I' for Inactive)
REMARK    1  A    between atoms: C_4  and  C_5 
REMARK    2  A    between atoms: C_5  and  N_6 
REMARK    3  A    between atoms: C_14  and  C_15 
REMARK    4  A    between atoms: C_18  and  O_19 
REMARK    5  A    between atoms: O_19  and  C_20 
REMARK    6  A    between atoms: C_20  and  C_21 
REMARK    7  A    between atoms: C_22  and  C_23 
ROOT
HETATM    1  N   UNL     1       4.507  33.575  62.335  1.00  0.00    -0.063 N 
HETATM    2  H   UNL     1       4.337  32.603  62.615  1.00  0.00     0.280 HD
HETATM    3  C   UNL     1       4.217  33.614  60.840  1.00  0.00     0.282 C 
HETATM    4  C   UNL     1       5.216  32.784  60.109  1.00  0.00     0.018 A 
HETATM    5  C   UNL     1       6.423  32.353  60.631  1.00  0.00    -0.023 A 
HETATM    6  C   UNL     1       7.143  31.563  59.679  1.00  0.00     0.073 A 
HETATM    7  C   UNL     1       6.497  31.511  58.468  1.00  0.00     0.088 A 
HETATM    8  N   UNL     1       6.998  30.885  57.385  1.00  0.00    -0.358 N 
HETATM    9  C   UNL     1       8.094  29.947  57.531  1.00  0.00     0.219 C 
HETATM   10  N   UNL     1       8.838  30.173  58.743  1.00  0.00    -0.332 N 
HETATM   11  C   UNL     1       8.406  30.867  59.835  1.00  0.00     0.256 C 
HETATM   12  O   UNL     1       9.046  30.892  60.881  1.00  0.00    -0.267 OA
HETATM   13  S   UNL     1       4.999  32.315  58.488  1.00  0.00    -0.074 SA
HETATM   14  C   UNL     1       6.840  32.691  62.033  1.00  0.00     0.068 C 
HETATM   15  C   UNL     1       5.983  33.834  62.614  1.00  0.00     0.240 C 
HETATM   16  H   UNL     1       6.396  30.708  56.588  1.00  0.00     0.162 HD
HETATM   17  H   UNL     1       9.687  29.643  58.880  1.00  0.00     0.165 HD
ENDROOT
BRANCH   9  18
HETATM   18  C   UNL     1       7.572  28.528  57.409  1.00  0.00    -0.016 A 
HETATM   19  C   UNL     1       8.481  27.460  57.306  1.00  0.00     0.014 A 
HETATM   20  C   UNL     1       8.028  26.156  57.091  1.00  0.00     0.038 A 
HETATM   21  C   UNL     1       6.661  25.910  56.982  1.00  0.00     0.079 A 
HETATM   22  C   UNL     1       5.741  26.948  57.090  1.00  0.00     0.038 A 
HETATM   23  C   UNL     1       6.196  28.250  57.310  1.00  0.00     0.014 A 
BRANCH  21  24
HETATM   24  O   UNL     1       6.303  24.596  56.616  1.00  0.00    -0.276 OA
BRANCH  24  25
HETATM   25  C   UNL     1       6.715  24.026  55.421  1.00  0.00     0.288 C 
HETATM   26  O   UNL     1       7.185  22.909  55.262  1.00  0.00    -0.260 OA
BRANCH  25  27
HETATM   27  C   UNL     1       6.464  24.947  54.291  1.00  0.00     0.085 C 
HETATM   28  C   UNL     1       5.261  25.138  53.730  1.00  0.00     0.043 C 
BRANCH  28  29
HETATM   29  C   UNL     1       5.109  25.981  52.596  1.00  0.00     0.075 A 
HETATM   30  O   UNL     1       4.481  27.206  52.620  1.00  0.00    -0.323 OA
HETATM   31  C   UNL     1       4.543  27.745  51.378  1.00  0.00     0.142 A 
HETATM   32  C   UNL     1       5.200  26.898  50.522  1.00  0.00     0.027 A 
HETATM   33  C   UNL     1       5.560  25.771  51.297  1.00  0.00     0.039 A 
ENDBRANCH  28  29
ENDBRANCH  25  27
ENDBRANCH  24  25
ENDBRANCH  21  24
ENDBRANCH   9  18
BRANCH   1  34
HETATM   34  C   UNL     1       3.556  34.403  63.163  1.00  0.00     0.273 C 
BRANCH  34  35
HETATM   35  C   UNL     1       4.016  34.736  64.556  1.00  0.00    -0.033 A 
HETATM   36  C   UNL     1       4.093  36.077  64.972  1.00  0.00     0.009 A 
HETATM   37  C   UNL     1       4.547  36.398  66.251  1.00  0.00     0.001 A 
HETATM   38  C   UNL     1       4.926  35.387  67.130  1.00  0.00     0.000 A 
HETATM   39  C   UNL     1       4.844  34.054  66.736  1.00  0.00     0.001 A 
HETATM   40  C   UNL     1       4.389  33.728  65.456  1.00  0.00     0.009 A 
ENDBRANCH  34  35
ENDBRANCH   1  34
TORSDOF 7
ENDMDL
MODEL 6
REMARK VINA RESULT:      -9.8      5.395     11.729
REMARK  7 active torsions:
REMARK  status: ('A' for Active; 'I' for Inactive)
REMARK    1  A    between atoms: C_4  and  C_5 
REMARK    2  A    between atoms: C_5  and  N_6 
REMARK    3  A    between atoms: C_14  and  C_15 
REMARK    4  A    between atoms: C_18  and  O_19 
REMARK    5  A    between atoms: O_19  and  C_20 
REMARK    6  A    between atoms: C_20  and  C_21 
REMARK    7  A    between atoms: C_22  and  C_23 
ROOT
HETATM    1  N   UNL     1       4.218  34.512  61.673  1.00  0.00    -0.063 N 
HETATM    2  H   UNL     1       5.196  34.245  61.512  1.00  0.00     0.280 HD
HETATM    3  C   UNL     1       3.442  33.202  61.658  1.00  0.00     0.282 C 
HETATM    4  C   UNL     1       3.496  32.597  60.296  1.00  0.00     0.018 A 
HETATM    5  C   UNL     1       3.860  33.270  59.143  1.00  0.00    -0.023 A 
HETATM    6  C   UNL     1       3.824  32.400  58.006  1.00  0.00     0.073 A 
HETATM    7  C   UNL     1       3.354  31.152  58.335  1.00  0.00     0.088 A 
HETATM    8  N   UNL     1       3.163  30.170  57.433  1.00  0.00    -0.358 N 
HETATM    9  C   UNL     1       3.758  30.269  56.115  1.00  0.00     0.219 C 
HETATM   10  N   UNL     1       4.066  31.631  55.764  1.00  0.00    -0.332 N 
HETATM   11  C   UNL     1       4.191  32.676  56.631  1.00  0.00     0.256 C 
HETATM   12  O   UNL     1       4.596  33.775  56.266  1.00  0.00    -0.267 OA
HETATM   13  S   UNL     1       3.047  30.983  59.999  1.00  0.00    -0.074 SA
HETATM   14  C   UNL     1       4.252  34.719  59.168  1.00  0.00     0.068 C 
HETATM   15  C   UNL     1       3.831  35.392  60.490  1.00  0.00     0.240 C 
HETATM   16  H   UNL     1       3.009  29.219  57.755  1.00  0.00     0.162 HD
HETATM   17  H   UNL     1       4.382  31.814  54.822  1.00  0.00     0.165 HD
ENDROOT
BRANCH   9  18
HETATM   18  C   UNL     1       4.959  29.345  56.026  1.00  0.00    -0.016 A 
HETATM   19  C   UNL     1       4.762  27.955  55.942  1.00  0.00     0.014 A 
HETATM   20  C   UNL     1       5.848  27.078  55.962  1.00  0.00     0.038 A 
HETATM   21  C   UNL     1       7.142  27.585  56.060  1.00  0.00     0.079 A 
HETATM   22  C   UNL     1       7.365  28.956  56.136  1.00  0.00     0.038 A 
HETATM   23  C   UNL     1       6.276  29.832  56.110  1.00  0.00     0.014 A 
BRANCH  21  24
HETATM   24  O   UNL     1       8.164  26.627  56.226  1.00  0.00    -0.276 OA
BRANCH  24  25
HETATM   25  C   UNL     1       8.095  25.635  57.192  1.00  0.00     0.288 C 
HETATM   26  O   UNL     1       7.900  25.786  58.389  1.00  0.00    -0.260 OA
BRANCH  25  27
HETATM   27  C   UNL     1       8.243  24.298  56.578  1.00  0.00     0.085 C 
HETATM   28  C   UNL     1       7.629  23.918  55.447  1.00  0.00     0.043 C 
BRANCH  28  29
HETATM   29  C   UNL     1       7.757  22.590  54.957  1.00  0.00     0.075 A 
HETATM   30  O   UNL     1       7.732  22.251  53.622  1.00  0.00    -0.323 OA
HETATM   31  C   UNL     1       7.909  20.912  53.516  1.00  0.00     0.142 A 
HETATM   32  C   UNL     1       8.048  20.348  54.758  1.00  0.00     0.027 A 
HETATM   33  C   UNL     1       7.949  21.418  55.679  1.00  0.00     0.039 A 
ENDBRANCH  28  29
ENDBRANCH  25  27
ENDBRANCH  24  25
ENDBRANCH  21  24
ENDBRANCH   9  18
BRANCH   1  34
HETATM   34  C   UNL     1       4.208  35.213  63.008  1.00  0.00     0.273 C 
BRANCH  34  35
HETATM   35  C   UNL     1       5.171  34.684  64.035  1.00  0.00    -0.033 A 
HETATM   36  C   UNL     1       4.826  34.695  65.398  1.00  0.00     0.009 A 
HETATM   37  C   UNL     1       5.724  34.235  66.361  1.00  0.00     0.001 A 
HETATM   38  C   UNL     1       6.973  33.755  65.976  1.00  0.00     0.000 A 
HETATM   39  C   UNL     1       7.324  33.727  64.629  1.00  0.00     0.001 A 
HETATM   40  C   UNL     1       6.427  34.186  63.661  1.00  0.00     0.009 A 
ENDBRANCH  34  35
ENDBRANCH   1  34
TORSDOF 7
ENDMDL
MODEL 7
REMARK VINA RESULT:      -9.8      4.385     10.603
REMARK  7 active torsions:
REMARK  status: ('A' for Active; 'I' for Inactive)
REMARK    1  A    between atoms: C_4  and  C_5 
REMARK    2  A    between atoms: C_5  and  N_6 
REMARK    3  A    between atoms: C_14  and  C_15 
REMARK    4  A    between atoms: C_18  and  O_19 
REMARK    5  A    between atoms: O_19  and  C_20 
REMARK    6  A    between atoms: C_20  and  C_21 
REMARK    7  A    between atoms: C_22  and  C_23 
ROOT
HETATM    1  N   UNL     1       7.979  24.811  55.990  1.00  0.00    -0.063 N 
HETATM    2  H   UNL     1       8.579  25.398  55.400  1.00  0.00     0.280 HD
HETATM    3  C   UNL     1       6.819  24.400  55.092  1.00  0.00     0.282 C 
HETATM    4  C   UNL     1       6.010  25.599  54.730  1.00  0.00     0.018 A 
HETATM    5  C   UNL     1       6.062  26.818  55.383  1.00  0.00    -0.023 A 
HETATM    6  C   UNL     1       5.174  27.764  54.779  1.00  0.00     0.073 A 
HETATM    7  C   UNL     1       4.436  27.196  53.769  1.00  0.00     0.088 A 
HETATM    8  N   UNL     1       3.483  27.857  53.084  1.00  0.00    -0.358 N 
HETATM    9  C   UNL     1       3.411  29.304  53.152  1.00  0.00     0.219 C 
HETATM   10  N   UNL     1       4.055  29.821  54.331  1.00  0.00    -0.332 N 
HETATM   11  C   UNL     1       4.967  29.162  55.104  1.00  0.00     0.256 C 
HETATM   12  O   UNL     1       5.575  29.724  56.008  1.00  0.00    -0.267 OA
HETATM   13  S   UNL     1       4.862  25.576  53.474  1.00  0.00    -0.074 SA
HETATM   14  C   UNL     1       6.976  27.046  56.552  1.00  0.00     0.068 C 
HETATM   15  C   UNL     1       7.503  25.714  57.122  1.00  0.00     0.240 C 
HETATM   16  H   UNL     1       3.115  27.457  52.226  1.00  0.00     0.162 HD
HETATM   17  H   UNL     1       3.963  30.807  54.524  1.00  0.00     0.165 HD
ENDROOT
BRANCH   9  18
HETATM   18  C   UNL     1       3.953  29.903  51.867  1.00  0.00    -0.016 A 
HETATM   19  C   UNL     1       3.127  30.727  51.082  1.00  0.00     0.014 A 
HETATM   20  C   UNL     1       3.566  31.207  49.846  1.00  0.00     0.038 A 
HETATM   21  C   UNL     1       4.838  30.871  49.387  1.00  0.00     0.079 A 
HETATM   22  C   UNL     1       5.678  30.064  50.150  1.00  0.00     0.038 A 
HETATM   23  C   UNL     1       5.238  29.590  51.388  1.00  0.00     0.014 A 
BRANCH  21  24
HETATM   24  O   UNL     1       5.139  31.272  48.070  1.00  0.00    -0.276 OA
BRANCH  24  25
HETATM   25  C   UNL     1       4.520  30.704  46.967  1.00  0.00     0.288 C 
HETATM   26  O   UNL     1       4.452  31.171  45.839  1.00  0.00    -0.260 OA
BRANCH  25  27
HETATM   27  C   UNL     1       3.963  29.377  47.308  1.00  0.00     0.085 C 
HETATM   28  C   UNL     1       4.679  28.243  47.324  1.00  0.00     0.043 C 
BRANCH  28  29
HETATM   29  C   UNL     1       4.059  26.991  47.586  1.00  0.00     0.075 A 
HETATM   30  O   UNL     1       3.308  26.292  46.668  1.00  0.00    -0.323 OA
HETATM   31  C   UNL     1       2.897  25.135  47.242  1.00  0.00     0.142 A 
HETATM   32  C   UNL     1       3.357  25.051  48.531  1.00  0.00     0.027 A 
HETATM   33  C   UNL     1       4.097  26.236  48.753  1.00  0.00     0.039 A 
ENDBRANCH  28  29
ENDBRANCH  25  27
ENDBRANCH  24  25
ENDBRANCH  21  24
ENDBRANCH   9  18
BRANCH   1  34
HETATM   34  C   UNL     1       8.850  23.660  56.427  1.00  0.00     0.273 C 
BRANCH  34  35
HETATM   35  C   UNL     1       8.751  22.409  55.599  1.00  0.00    -0.033 A 
HETATM   36  C   UNL     1       8.426  21.184  56.208  1.00  0.00     0.009 A 
HETATM   37  C   UNL     1       8.361  20.012  55.454  1.00  0.00     0.001 A 
HETATM   38  C   UNL     1       8.614  20.050  54.085  1.00  0.00     0.000 A 
HETATM   39  C   UNL     1       8.925  21.258  53.467  1.00  0.00     0.001 A 
HETATM   40  C   UNL     1       8.991  22.434  54.218  1.00  0.00     0.009 A 
ENDBRANCH  34  35
ENDBRANCH   1  34
TORSDOF 7
ENDMDL
MODEL 8
REMARK VINA RESULT:      -9.6      3.133      4.390
REMARK  7 active torsions:
REMARK  status: ('A' for Active; 'I' for Inactive)
REMARK    1  A    between atoms: C_4  and  C_5 
REMARK    2  A    between atoms: C_5  and  N_6 
REMARK    3  A    between atoms: C_14  and  C_15 
REMARK    4  A    between atoms: C_18  and  O_19 
REMARK    5  A    between atoms: O_19  and  C_20 
REMARK    6  A    between atoms: C_20  and  C_21 
REMARK    7  A    between atoms: C_22  and  C_23 
ROOT
HETATM    1  N   UNL     1       4.639  31.152  48.093  1.00  0.00    -0.063 N 
HETATM    2  H   UNL     1       5.596  31.174  48.464  1.00  0.00     0.280 HD
HETATM    3  C   UNL     1       3.739  31.334  49.309  1.00  0.00     0.282 C 
HETATM    4  C   UNL     1       3.868  30.157  50.216  1.00  0.00     0.018 A 
HETATM    5  C   UNL     1       4.413  28.937  49.858  1.00  0.00    -0.023 A 
HETATM    6  C   UNL     1       4.404  28.025  50.962  1.00  0.00     0.073 A 
HETATM    7  C   UNL     1       3.779  28.563  52.061  1.00  0.00     0.088 A 
HETATM    8  N   UNL     1       3.581  27.886  53.208  1.00  0.00    -0.358 N 
HETATM    9  C   UNL     1       4.313  26.661  53.463  1.00  0.00     0.219 C 
HETATM   10  N   UNL     1       4.791  26.056  52.247  1.00  0.00    -0.332 N 
HETATM   11  C   UNL     1       4.933  26.678  51.041  1.00  0.00     0.256 C 
HETATM   12  O   UNL     1       5.482  26.130  50.091  1.00  0.00    -0.267 OA
HETATM   13  S   UNL     1       3.290  30.174  51.816  1.00  0.00    -0.074 SA
HETATM   14  C   UNL     1       4.946  28.687  48.477  1.00  0.00     0.068 C 
HETATM   15  C   UNL     1       4.464  29.765  47.485  1.00  0.00     0.240 C 
HETATM   16  H   UNL     1       3.299  28.390  54.044  1.00  0.00     0.162 HD
HETATM   17  H   UNL     1       5.216  25.142  52.312  1.00  0.00     0.165 HD
ENDROOT
BRANCH   9  18
HETATM   18  C   UNL     1       5.416  26.925  54.470  1.00  0.00    -0.016 A 
HETATM   19  C   UNL     1       5.296  28.003  55.366  1.00  0.00     0.014 A 
HETATM   20  C   UNL     1       6.341  28.330  56.233  1.00  0.00     0.038 A 
HETATM   21  C   UNL     1       7.514  27.577  56.215  1.00  0.00     0.079 A 
HETATM   22  C   UNL     1       7.654  26.500  55.345  1.00  0.00     0.038 A 
HETATM   23  C   UNL     1       6.605  26.172  54.482  1.00  0.00     0.014 A 
BRANCH  21  24
HETATM   24  O   UNL     1       8.568  28.068  57.012  1.00  0.00    -0.276 OA
BRANCH  24  25
HETATM   25  C   UNL     1       9.188  29.280  56.750  1.00  0.00     0.288 C 
HETATM   26  O   UNL     1       9.659  29.651  55.685  1.00  0.00    -0.260 OA
BRANCH  25  27
HETATM   27  C   UNL     1       9.172  30.143  57.951  1.00  0.00     0.085 C 
HETATM   28  C   UNL     1       8.390  29.929  59.020  1.00  0.00     0.043 C 
BRANCH  28  29
HETATM   29  C   UNL     1       8.372  30.845  60.106  1.00  0.00     0.075 A 
HETATM   30  O   UNL     1       7.614  31.994  60.138  1.00  0.00    -0.323 OA
HETATM   31  C   UNL     1       7.817  32.610  61.328  1.00  0.00     0.142 A 
HETATM   32  C   UNL     1       8.702  31.893  62.092  1.00  0.00     0.027 A 
HETATM   33  C   UNL     1       9.059  30.768  61.313  1.00  0.00     0.039 A 
ENDBRANCH  28  29
ENDBRANCH  25  27
ENDBRANCH  24  25
ENDBRANCH  21  24
ENDBRANCH   9  18
BRANCH   1  34
HETATM   34  C   UNL     1       4.566  32.287  47.103  1.00  0.00     0.273 C 
BRANCH  34  35
HETATM   35  C   UNL     1       5.855  33.018  46.844  1.00  0.00    -0.033 A 
HETATM   36  C   UNL     1       6.616  33.509  47.920  1.00  0.00     0.009 A 
HETATM   37  C   UNL     1       7.797  34.214  47.688  1.00  0.00     0.001 A 
HETATM   38  C   UNL     1       8.233  34.434  46.384  1.00  0.00     0.000 A 
HETATM   39  C   UNL     1       7.496  33.942  45.310  1.00  0.00     0.001 A 
HETATM   40  C   UNL     1       6.313  33.235  45.537  1.00  0.00     0.009 A 
ENDBRANCH  34  35
ENDBRANCH   1  34
TORSDOF 7
ENDMDL
MODEL 9
REMARK VINA RESULT:      -9.5      4.440     11.367
REMARK  7 active torsions:
REMARK  status: ('A' for Active; 'I' for Inactive)
REMARK    1  A    between atoms: C_4  and  C_5 
REMARK    2  A    between atoms: C_5  and  N_6 
REMARK    3  A    between atoms: C_14  and  C_15 
REMARK    4  A    between atoms: C_18  and  O_19 
REMARK    5  A    between atoms: O_19  and  C_20 
REMARK    6  A    between atoms: C_20  and  C_21 
REMARK    7  A    between atoms: C_22  and  C_23 
ROOT
HETATM    1  N   UNL     1       4.709  34.342  60.425  1.00  0.00    -0.063 N 
HETATM    2  H   UNL     1       5.656  34.153  60.076  1.00  0.00     0.280 HD
HETATM    3  C   UNL     1       4.027  32.980  60.477  1.00  0.00     0.282 C 
HETATM    4  C   UNL     1       3.867  32.441  59.096  1.00  0.00     0.018 A 
HETATM    5  C   UNL     1       3.970  33.189  57.936  1.00  0.00    -0.023 A 
HETATM    6  C   UNL     1       3.781  32.370  56.777  1.00  0.00     0.073 A 
HETATM    7  C   UNL     1       3.458  31.078  57.114  1.00  0.00     0.088 A 
HETATM    8  N   UNL     1       3.166  30.125  56.208  1.00  0.00    -0.358 N 
HETATM    9  C   UNL     1       3.502  30.324  54.812  1.00  0.00     0.219 C 
HETATM   10  N   UNL     1       3.654  31.718  54.488  1.00  0.00    -0.332 N 
HETATM   11  C   UNL     1       3.871  32.731  55.376  1.00  0.00     0.256 C 
HETATM   12  O   UNL     1       4.132  33.871  55.006  1.00  0.00    -0.267 OA
HETATM   13  S   UNL     1       3.473  30.814  58.794  1.00  0.00    -0.074 SA
HETATM   14  C   UNL     1       4.269  34.660  57.971  1.00  0.00     0.068 C 
HETATM   15  C   UNL     1       4.057  35.242  59.383  1.00  0.00     0.240 C 
HETATM   16  H   UNL     1       3.134  29.152  56.498  1.00  0.00     0.162 HD
HETATM   17  H   UNL     1       3.779  31.965  53.516  1.00  0.00     0.165 HD
ENDROOT
BRANCH   9  18
HETATM   18  C   UNL     1       4.721  29.494  54.456  1.00  0.00    -0.016 A 
HETATM   19  C   UNL     1       5.005  29.219  53.106  1.00  0.00     0.014 A 
HETATM   20  C   UNL     1       6.060  28.374  52.756  1.00  0.00     0.038 A 
HETATM   21  C   UNL     1       6.845  27.801  53.755  1.00  0.00     0.079 A 
HETATM   22  C   UNL     1       6.590  28.064  55.097  1.00  0.00     0.038 A 
HETATM   23  C   UNL     1       5.537  28.914  55.444  1.00  0.00     0.014 A 
BRANCH  21  24
HETATM   24  O   UNL     1       7.788  26.847  53.320  1.00  0.00    -0.276 OA
BRANCH  24  25
HETATM   25  C   UNL     1       7.408  25.621  52.795  1.00  0.00     0.288 C 
HETATM   26  O   UNL     1       6.947  25.407  51.683  1.00  0.00    -0.260 OA
BRANCH  25  27
HETATM   27  C   UNL     1       7.680  24.534  53.761  1.00  0.00     0.085 C 
HETATM   28  C   UNL     1       7.773  23.238  53.427  1.00  0.00     0.043 C 
BRANCH  28  29
HETATM   29  C   UNL     1       7.960  22.240  54.421  1.00  0.00     0.075 A 
HETATM   30  O   UNL     1       8.120  22.503  55.763  1.00  0.00    -0.323 OA
HETATM   31  C   UNL     1       8.244  21.324  56.420  1.00  0.00     0.142 A 
HETATM   32  C   UNL     1       8.174  20.276  55.539  1.00  0.00     0.027 A 
HETATM   33  C   UNL     1       7.995  20.858  54.262  1.00  0.00     0.039 A 
ENDBRANCH  28  29
ENDBRANCH  25  27
ENDBRANCH  24  25
ENDBRANCH  21  24
ENDBRANCH   9  18
BRANCH   1  34
HETATM   34  C   UNL     1       4.901  34.981  61.777  1.00  0.00     0.273 C 
BRANCH  34  35
HETATM   35  C   UNL     1       5.867  34.289  62.700  1.00  0.00    -0.033 A 
HETATM   36  C   UNL     1       5.754  34.454  64.092  1.00  0.00     0.009 A 
HETATM   37  C   UNL     1       6.664  33.841  64.954  1.00  0.00     0.001 A 
HETATM   38  C   UNL     1       7.692  33.056  64.439  1.00  0.00     0.000 A 
HETATM   39  C   UNL     1       7.808  32.875  63.064  1.00  0.00     0.001 A 
HETATM   40  C   UNL     1       6.899  33.486  62.196  1.00  0.00     0.009 A 
ENDBRANCH  34  35
ENDBRANCH   1  34
TORSDOF 7
ENDMDL
MODEL 10
REMARK VINA RESULT:      -9.4      3.898      9.956
REMARK  7 active torsions:
REMARK  status: ('A' for Active; 'I' for Inactive)
REMARK    1  A    between atoms: C_4  and  C_5 
REMARK    2  A    between atoms: C_5  and  N_6 
REMARK    3  A    between atoms: C_14  and  C_15 
REMARK    4  A    between atoms: C_18  and  O_19 
REMARK    5  A    between atoms: O_19  and  C_20 
REMARK    6  A    between atoms: C_20  and  C_21 
REMARK    7  A    between atoms: C_22  and  C_23 
ROOT
HETATM    1  N   UNL     1       8.087  24.273  56.590  1.00  0.00    -0.063 N 
HETATM    2  H   UNL     1       8.205  24.572  55.616  1.00  0.00     0.280 HD
HETATM    3  C   UNL     1       6.597  24.423  56.873  1.00  0.00     0.282 C 
HETATM    4  C   UNL     1       6.216  25.864  56.826  1.00  0.00     0.018 A 
HETATM    5  C   UNL     1       7.106  26.922  56.888  1.00  0.00    -0.023 A 
HETATM    6  C   UNL     1       6.420  28.176  56.800  1.00  0.00     0.073 A 
HETATM    7  C   UNL     1       5.057  28.010  56.768  1.00  0.00     0.088 A 
HETATM    8  N   UNL     1       4.184  29.036  56.752  1.00  0.00    -0.358 N 
HETATM    9  C   UNL     1       4.643  30.374  56.431  1.00  0.00     0.219 C 
HETATM   10  N   UNL     1       6.057  30.527  56.655  1.00  0.00    -0.332 N 
HETATM   11  C   UNL     1       6.969  29.518  56.760  1.00  0.00     0.256 C 
HETATM   12  O   UNL     1       8.174  29.738  56.808  1.00  0.00    -0.267 OA
HETATM   13  S   UNL     1       4.595  26.374  56.745  1.00  0.00    -0.074 SA
HETATM   14  C   UNL     1       8.585  26.701  57.007  1.00  0.00     0.068 C 
HETATM   15  C   UNL     1       8.905  25.251  57.425  1.00  0.00     0.240 C 
HETATM   16  H   UNL     1       3.210  28.860  56.527  1.00  0.00     0.162 HD
HETATM   17  H   UNL     1       6.449  31.453  56.567  1.00  0.00     0.165 HD
ENDROOT
BRANCH   9  18
HETATM   18  C   UNL     1       4.223  30.733  55.018  1.00  0.00    -0.016 A 
HETATM   19  C   UNL     1       3.780  29.721  54.146  1.00  0.00     0.014 A 
HETATM   20  C   UNL     1       3.484  30.008  52.812  1.00  0.00     0.038 A 
HETATM   21  C   UNL     1       3.625  31.311  52.339  1.00  0.00     0.079 A 
HETATM   22  C   UNL     1       4.054  32.331  53.183  1.00  0.00     0.038 A 
HETATM   23  C   UNL     1       4.343  32.043  54.518  1.00  0.00     0.014 A 
BRANCH  21  24
HETATM   24  O   UNL     1       3.453  31.479  50.950  1.00  0.00    -0.276 OA
BRANCH  24  25
HETATM   25  C   UNL     1       4.315  30.911  50.025  1.00  0.00     0.288 C 
HETATM   26  O   UNL     1       5.414  31.328  49.689  1.00  0.00    -0.260 OA
BRANCH  25  27
HETATM   27  C   UNL     1       3.753  29.649  49.496  1.00  0.00     0.085 C 
HETATM   28  C   UNL     1       4.488  28.670  48.948  1.00  0.00     0.043 C 
BRANCH  28  29
HETATM   29  C   UNL     1       3.871  27.518  48.389  1.00  0.00     0.075 A 
HETATM   30  O   UNL     1       3.867  26.276  48.984  1.00  0.00    -0.323 OA
HETATM   31  C   UNL     1       3.168  25.424  48.195  1.00  0.00     0.142 A 
HETATM   32  C   UNL     1       2.708  26.075  47.079  1.00  0.00     0.027 A 
HETATM   33  C   UNL     1       3.158  27.411  47.200  1.00  0.00     0.039 A 
ENDBRANCH  28  29
ENDBRANCH  25  27
ENDBRANCH  24  25
ENDBRANCH  21  24
ENDBRANCH   9  18
BRANCH   1  34
HETATM   34  C   UNL     1       8.576  22.847  56.633  1.00  0.00     0.273 C 
BRANCH  34  35
HETATM   35  C   UNL     1       8.454  22.071  55.351  1.00  0.00    -0.033 A 
HETATM   36  C   UNL     1       8.784  20.705  55.318  1.00  0.00     0.009 A 
HETATM   37  C   UNL     1       8.703  19.984  54.127  1.00  0.00     0.001 A 
HETATM   38  C   UNL     1       8.289  20.615  52.957  1.00  0.00     0.000 A 
HETATM   39  C   UNL     1       7.947  21.965  52.977  1.00  0.00     0.001 A 
HETATM   40  C   UNL     1       8.026  22.691  54.168  1.00  0.00     0.009 A 
ENDBRANCH  34  35
ENDBRANCH   1  34
TORSDOF 7
ENDMDL
