MODEL 1
REMARK VINA RESULT:      -9.3      0.000      0.000
REMARK  11 active torsions:
REMARK  status: ('A' for Active; 'I' for Inactive)
REMARK    1  A    between atoms: O_2  and  C_3 
REMARK    2  A    between atoms: C_6  and  C_7 
REMARK    3  A    between atoms: C_7  and  S_8 
REMARK    4  A    between atoms: C_7  and  C_22 
REMARK    5  A    between atoms: S_8  and  C_9 
REMARK    6  A    between atoms: C_12  and  C_13 
REMARK    7  A    between atoms: C_22  and  C_23 
REMARK       I    between atoms: C_23  and  N_24 
REMARK    8  A    between atoms: N_24  and  C_25 
REMARK    9  A    between atoms: C_25  and  C_26 
REMARK   10  A    between atoms: C_26  and  C_27 
REMARK   11  A    between atoms: C_27  and  N_28 
ROOT
HETATM    1  C   UNL     1       7.112  26.894  55.975  1.00  0.00     0.097 C 
ENDROOT
BRANCH   1   2
HETATM    2  C   UNL     1       7.348  25.625  55.155  1.00  0.00    -0.043 A 
HETATM    3  C   UNL     1       7.588  25.726  53.774  1.00  0.00     0.011 A 
HETATM    4  C   UNL     1       7.758  24.583  52.981  1.00  0.00     0.037 A 
HETATM    5  C   UNL     1       7.686  23.316  53.554  1.00  0.00     0.068 A 
HETATM    6  C   UNL     1       7.445  23.203  54.923  1.00  0.00     0.037 A 
HETATM    7  C   UNL     1       7.277  24.341  55.717  1.00  0.00     0.011 A 
BRANCH   5   8
HETATM    8  O   UNL     1       7.820  22.124  52.901  1.00  0.00    -0.356 OA
HETATM    9  C   UNL     1       8.099  20.978  53.696  1.00  0.00     0.210 C 
ENDBRANCH   5   8
ENDBRANCH   1   2
BRANCH   1  10
HETATM   10  S   UNL     1       7.763  28.363  55.061  1.00  0.00    -0.080 SA
BRANCH  10  11
HETATM   11  C   UNL     1       8.584  29.190  56.319  1.00  0.00     0.190 A 
HETATM   12  N   UNL     1       9.872  29.328  56.483  1.00  0.00    -0.122 NA
HETATM   13  N   UNL     1      10.055  29.972  57.688  1.00  0.00    -0.129 NA
HETATM   14  C   UNL     1       8.868  30.197  58.233  1.00  0.00     0.162 A 
HETATM   15  N   UNL     1       7.911  29.738  57.363  1.00  0.00    -0.317 N 
HETATM   16  H   UNL     1       6.911  29.754  57.488  1.00  0.00     0.169 HD
BRANCH  14  17
HETATM   17  C   UNL     1       8.595  30.827  59.523  1.00  0.00     0.012 A 
HETATM   18  C   UNL     1       9.346  30.451  60.647  1.00  0.00     0.017 A 
HETATM   19  C   UNL     1       9.114  31.037  61.895  1.00  0.00     0.025 A 
HETATM   20  C   UNL     1       8.119  32.000  62.031  1.00  0.00     0.034 A 
HETATM   21 CL   UNL     1       7.827  32.723  63.564  1.00  0.00    -0.084 Cl
HETATM   22  C   UNL     1       7.353  32.380  60.930  1.00  0.00     0.025 A 
HETATM   23  C   UNL     1       7.589  31.795  59.680  1.00  0.00     0.017 A 
ENDBRANCH  14  17
ENDBRANCH  10  11
ENDBRANCH   1  10
BRANCH   1  24
HETATM   24  C   UNL     1       5.667  27.049  56.475  1.00  0.00     0.123 C 
BRANCH  24  25
HETATM   25  C   UNL     1       4.817  27.989  55.646  1.00  0.00     0.219 C 
HETATM   26  N   UNL     1       4.406  27.439  54.448  1.00  0.00    -0.361 N 
HETATM   27  H   UNL     1       4.863  26.577  54.159  1.00  0.00     0.162 HD
HETATM   28  O   UNL     1       4.457  29.112  55.995  1.00  0.00    -0.274 OA
BRANCH  26  29
HETATM   29  C   UNL     1       3.788  28.228  53.403  1.00  0.00     0.124 C 
BRANCH  29  30
HETATM   30  C   UNL     1       4.385  28.024  52.010  1.00  0.00     0.047 C 
BRANCH  30  31
HETATM   31  C   UNL     1       3.592  28.549  50.813  1.00  0.00     0.236 C 
BRANCH  31  32
HETATM   32  N   UNL     1       3.466  27.567  49.683  1.00  0.00    -0.067 N 
HETATM   33  H   UNL     1       3.365  26.632  50.135  1.00  0.00     0.280 HD
HETATM   34  C   UNL     1       2.306  27.804  48.734  1.00  0.00     0.261 C 
HETATM   35  C   UNL     1       2.280  26.709  47.661  1.00  0.00     0.195 C 
HETATM   36  O   UNL     1       3.520  26.655  46.947  1.00  0.00    -0.388 OA
HETATM   37  C   UNL     1       4.613  26.355  47.824  1.00  0.00     0.195 C 
HETATM   38  C   UNL     1       4.767  27.443  48.893  1.00  0.00     0.261 C 
ENDBRANCH  31  32
ENDBRANCH  30  31
ENDBRANCH  29  30
ENDBRANCH  26  29
ENDBRANCH  24  25
ENDBRANCH   1  24
TORSDOF 11
ENDMDL
MODEL 2
REMARK VINA RESULT:      -9.1      5.272     11.261
REMARK  11 active torsions:
REMARK  status: ('A' for Active; 'I' for Inactive)
REMARK    1  A    between atoms: O_2  and  C_3 
REMARK    2  A    between atoms: C_6  and  C_7 
REMARK    3  A    between atoms: C_7  and  S_8 
REMARK    4  A    between atoms: C_7  and  C_22 
REMARK    5  A    between atoms: S_8  and  C_9 
REMARK    6  A    between atoms: C_12  and  C_13 
REMARK    7  A    between atoms: C_22  and  C_23 
REMARK       I    between atoms: C_23  and  N_24 
REMARK    8  A    between atoms: N_24  and  C_25 
REMARK    9  A    between atoms: C_25  and  C_26 
REMARK   10  A    between atoms: C_26  and  C_27 
REMARK   11  A    between atoms: C_27  and  N_28 
ROOT
HETATM    1  C   UNL     1       7.451  30.003  58.141  1.00  0.00     0.097 C 
ENDROOT
BRANCH   1   2
HETATM    2  C   UNL     1       6.079  30.385  57.588  1.00  0.00    -0.043 A 
HETATM    3  C   UNL     1       5.705  31.738  57.532  1.00  0.00     0.011 A 
HETATM    4  C   UNL     1       4.436  32.124  57.079  1.00  0.00     0.037 A 
HETATM    5  C   UNL     1       3.514  31.161  56.677  1.00  0.00     0.068 A 
HETATM    6  C   UNL     1       3.871  29.815  56.732  1.00  0.00     0.037 A 
HETATM    7  C   UNL     1       5.137  29.426  57.180  1.00  0.00     0.011 A 
BRANCH   5   8
HETATM    8  O   UNL     1       2.245  31.393  56.229  1.00  0.00    -0.356 OA
HETATM    9  C   UNL     1       2.077  32.428  55.266  1.00  0.00     0.210 C 
ENDBRANCH   5   8
ENDBRANCH   1   2
BRANCH   1  10
HETATM   10  S   UNL     1       8.485  29.261  56.800  1.00  0.00    -0.080 SA
BRANCH  10  11
HETATM   11  C   UNL     1       8.120  27.596  56.993  1.00  0.00     0.190 A 
HETATM   12  N   UNL     1       7.892  26.947  58.103  1.00  0.00    -0.122 NA
HETATM   13  N   UNL     1       7.756  25.617  57.767  1.00  0.00    -0.129 NA
HETATM   14  C   UNL     1       7.920  25.491  56.459  1.00  0.00     0.162 A 
HETATM   15  N   UNL     1       8.120  26.744  55.936  1.00  0.00    -0.317 N 
HETATM   16  H   UNL     1       8.285  26.987  54.972  1.00  0.00     0.169 HD
BRANCH  14  17
HETATM   17  C   UNL     1       7.889  24.254  55.680  1.00  0.00     0.012 A 
HETATM   18  C   UNL     1       7.436  24.286  54.353  1.00  0.00     0.017 A 
HETATM   19  C   UNL     1       7.397  23.122  53.579  1.00  0.00     0.025 A 
HETATM   20  C   UNL     1       7.806  21.912  54.132  1.00  0.00     0.034 A 
HETATM   21 CL   UNL     1       7.759  20.477  53.185  1.00  0.00    -0.084 Cl
HETATM   22  C   UNL     1       8.248  21.856  55.451  1.00  0.00     0.025 A 
HETATM   23  C   UNL     1       8.290  23.022  56.224  1.00  0.00     0.017 A 
ENDBRANCH  14  17
ENDBRANCH  10  11
ENDBRANCH   1  10
BRANCH   1  24
HETATM   24  C   UNL     1       8.142  31.133  58.921  1.00  0.00     0.123 C 
BRANCH  24  25
HETATM   25  C   UNL     1       8.350  30.841  60.392  1.00  0.00     0.219 C 
HETATM   26  N   UNL     1       7.266  31.185  61.175  1.00  0.00    -0.361 N 
HETATM   27  H   UNL     1       6.552  31.765  60.739  1.00  0.00     0.162 HD
HETATM   28  O   UNL     1       9.343  30.298  60.872  1.00  0.00    -0.274 OA
BRANCH  26  29
HETATM   29  C   UNL     1       7.330  31.212  62.621  1.00  0.00     0.124 C 
BRANCH  29  30
HETATM   30  C   UNL     1       7.721  32.564  63.219  1.00  0.00     0.047 C 
BRANCH  30  31
HETATM   31  C   UNL     1       6.753  33.733  63.024  1.00  0.00     0.236 C 
BRANCH  31  32
HETATM   32  N   UNL     1       6.066  34.176  64.285  1.00  0.00    -0.067 N 
HETATM   33  H   UNL     1       6.199  35.210  64.327  1.00  0.00     0.280 HD
HETATM   34  C   UNL     1       4.589  33.845  64.378  1.00  0.00     0.261 C 
HETATM   35  C   UNL     1       4.016  34.388  65.692  1.00  0.00     0.195 C 
HETATM   36  O   UNL     1       4.727  33.867  66.821  1.00  0.00    -0.388 OA
HETATM   37  C   UNL     1       6.110  34.240  66.782  1.00  0.00     0.195 C 
HETATM   38  C   UNL     1       6.791  33.673  65.531  1.00  0.00     0.261 C 
ENDBRANCH  31  32
ENDBRANCH  30  31
ENDBRANCH  29  30
ENDBRANCH  26  29
ENDBRANCH  24  25
ENDBRANCH   1  24
TORSDOF 11
ENDMDL
MODEL 3
REMARK VINA RESULT:      -9.0      3.963      6.894
REMARK  11 active torsions:
REMARK  status: ('A' for Active; 'I' for Inactive)
REMARK    1  A    between atoms: O_2  and  C_3 
REMARK    2  A    between atoms: C_6  and  C_7 
REMARK    3  A    between atoms: C_7  and  S_8 
REMARK    4  A    between atoms: C_7  and  C_22 
REMARK    5  A    between atoms: S_8  and  C_9 
REMARK    6  A    between atoms: C_12  and  C_13 
REMARK    7  A    between atoms: C_22  and  C_23 
REMARK       I    between atoms: C_23  and  N_24 
REMARK    8  A    between atoms: N_24  and  C_25 
REMARK    9  A    between atoms: C_25  and  C_26 
REMARK   10  A    between atoms: C_26  and  C_27 
REMARK   11  A    between atoms: C_27  and  N_28 
ROOT
HETATM    1  C   UNL     1       6.664  27.207  56.819  1.00  0.00     0.097 C 
ENDROOT
BRANCH   1   2
HETATM    2  C   UNL     1       7.240  25.799  56.669  1.00  0.00    -0.043 A 
HETATM    3  C   UNL     1       6.684  24.919  55.725  1.00  0.00     0.011 A 
HETATM    4  C   UNL     1       7.151  23.604  55.594  1.00  0.00     0.037 A 
HETATM    5  C   UNL     1       8.182  23.143  56.408  1.00  0.00     0.068 A 
HETATM    6  C   UNL     1       8.739  24.006  57.351  1.00  0.00     0.037 A 
HETATM    7  C   UNL     1       8.277  25.318  57.483  1.00  0.00     0.011 A 
BRANCH   5   8
HETATM    8  O   UNL     1       8.724  21.889  56.396  1.00  0.00    -0.356 OA
HETATM    9  C   UNL     1       7.826  20.797  56.241  1.00  0.00     0.210 C 
ENDBRANCH   5   8
ENDBRANCH   1   2
BRANCH   1  10
HETATM   10  S   UNL     1       7.587  28.383  55.732  1.00  0.00    -0.080 SA
BRANCH  10  11
HETATM   11  C   UNL     1       8.426  29.315  56.902  1.00  0.00     0.190 A 
HETATM   12  N   UNL     1       9.708  29.561  56.964  1.00  0.00    -0.122 NA
HETATM   13  N   UNL     1       9.924  30.258  58.133  1.00  0.00    -0.129 NA
HETATM   14  C   UNL     1       8.767  30.404  58.760  1.00  0.00     0.162 A 
HETATM   15  N   UNL     1       7.789  29.841  57.979  1.00  0.00    -0.317 N 
HETATM   16  H   UNL     1       6.803  29.781  58.178  1.00  0.00     0.169 HD
BRANCH  14  17
HETATM   17  C   UNL     1       8.537  31.053  60.050  1.00  0.00     0.012 A 
HETATM   18  C   UNL     1       9.045  30.464  61.218  1.00  0.00     0.017 A 
HETATM   19  C   UNL     1       8.847  31.059  62.467  1.00  0.00     0.025 A 
HETATM   20  C   UNL     1       8.131  32.249  62.559  1.00  0.00     0.034 A 
HETATM   21 CL   UNL     1       7.884  32.985  64.093  1.00  0.00    -0.084 Cl
HETATM   22  C   UNL     1       7.609  32.845  61.413  1.00  0.00     0.025 A 
HETATM   23  C   UNL     1       7.810  32.249  60.163  1.00  0.00     0.017 A 
ENDBRANCH  14  17
ENDBRANCH  10  11
ENDBRANCH   1  10
BRANCH   1  24
HETATM   24  C   UNL     1       5.135  27.271  56.667  1.00  0.00     0.123 C 
BRANCH  24  25
HETATM   25  C   UNL     1       4.586  28.668  56.469  1.00  0.00     0.219 C 
HETATM   26  N   UNL     1       4.548  29.409  57.634  1.00  0.00    -0.361 N 
HETATM   27  H   UNL     1       4.690  28.901  58.504  1.00  0.00     0.162 HD
HETATM   28  O   UNL     1       4.252  29.152  55.389  1.00  0.00    -0.274 OA
BRANCH  26  29
HETATM   29  C   UNL     1       3.851  30.675  57.727  1.00  0.00     0.124 C 
BRANCH  29  30
HETATM   30  C   UNL     1       4.200  31.507  58.962  1.00  0.00     0.047 C 
BRANCH  30  31
HETATM   31  C   UNL     1       3.373  32.766  59.225  1.00  0.00     0.236 C 
BRANCH  31  32
HETATM   32  N   UNL     1       3.556  33.342  60.601  1.00  0.00    -0.067 N 
HETATM   33  H   UNL     1       4.388  33.968  60.533  1.00  0.00     0.280 HD
HETATM   34  C   UNL     1       2.374  34.118  61.151  1.00  0.00     0.261 C 
HETATM   35  C   UNL     1       2.717  34.676  62.537  1.00  0.00     0.195 C 
HETATM   36  O   UNL     1       3.102  33.629  63.435  1.00  0.00    -0.388 OA
HETATM   37  C   UNL     1       4.265  32.939  62.963  1.00  0.00     0.195 C 
HETATM   38  C   UNL     1       3.993  32.279  61.607  1.00  0.00     0.261 C 
ENDBRANCH  31  32
ENDBRANCH  30  31
ENDBRANCH  29  30
ENDBRANCH  26  29
ENDBRANCH  24  25
ENDBRANCH   1  24
TORSDOF 11
ENDMDL
MODEL 4
REMARK VINA RESULT:      -8.9      3.498      7.556
REMARK  11 active torsions:
REMARK  status: ('A' for Active; 'I' for Inactive)
REMARK    1  A    between atoms: O_2  and  C_3 
REMARK    2  A    between atoms: C_6  and  C_7 
REMARK    3  A    between atoms: C_7  and  S_8 
REMARK    4  A    between atoms: C_7  and  C_22 
REMARK    5  A    between atoms: S_8  and  C_9 
REMARK    6  A    between atoms: C_12  and  C_13 
REMARK    7  A    between atoms: C_22  and  C_23 
REMARK       I    between atoms: C_23  and  N_24 
REMARK    8  A    between atoms: N_24  and  C_25 
REMARK    9  A    between atoms: C_25  and  C_26 
REMARK   10  A    between atoms: C_26  and  C_27 
REMARK   11  A    between atoms: C_27  and  N_28 
ROOT
HETATM    1  C   UNL     1       6.611  30.005  57.041  1.00  0.00     0.097 C 
ENDROOT
BRANCH   1   2
HETATM    2  C   UNL     1       6.805  30.808  58.326  1.00  0.00    -0.043 A 
HETATM    3  C   UNL     1       7.901  30.528  59.160  1.00  0.00     0.011 A 
HETATM    4  C   UNL     1       8.084  31.208  60.372  1.00  0.00     0.037 A 
HETATM    5  C   UNL     1       7.171  32.178  60.776  1.00  0.00     0.068 A 
HETATM    6  C   UNL     1       6.078  32.462  59.958  1.00  0.00     0.037 A 
HETATM    7  C   UNL     1       5.893  31.788  58.748  1.00  0.00     0.011 A 
BRANCH   5   8
HETATM    8  O   UNL     1       7.220  32.905  61.931  1.00  0.00    -0.356 OA
HETATM    9  C   UNL     1       7.935  32.339  63.023  1.00  0.00     0.210 C 
ENDBRANCH   5   8
ENDBRANCH   1   2
BRANCH   1  10
HETATM   10  S   UNL     1       8.230  29.305  56.485  1.00  0.00    -0.080 SA
BRANCH  10  11
HETATM   11  C   UNL     1       7.941  27.626  56.681  1.00  0.00     0.190 A 
HETATM   12  N   UNL     1       7.782  26.963  57.794  1.00  0.00    -0.122 NA
HETATM   13  N   UNL     1       7.687  25.630  57.455  1.00  0.00    -0.129 NA
HETATM   14  C   UNL     1       7.807  25.517  56.141  1.00  0.00     0.162 A 
HETATM   15  N   UNL     1       7.936  26.780  55.619  1.00  0.00    -0.317 N 
HETATM   16  H   UNL     1       8.054  27.034  54.651  1.00  0.00     0.169 HD
BRANCH  14  17
HETATM   17  C   UNL     1       7.798  24.284  55.356  1.00  0.00     0.012 A 
HETATM   18  C   UNL     1       7.846  23.047  56.016  1.00  0.00     0.017 A 
HETATM   19  C   UNL     1       7.835  21.848  55.297  1.00  0.00     0.025 A 
HETATM   20  C   UNL     1       7.784  21.878  53.907  1.00  0.00     0.034 A 
HETATM   21 CL   UNL     1       7.771  20.406  53.016  1.00  0.00    -0.084 Cl
HETATM   22  C   UNL     1       7.747  23.095  53.231  1.00  0.00     0.025 A 
HETATM   23  C   UNL     1       7.755  24.295  53.952  1.00  0.00     0.017 A 
ENDBRANCH  14  17
ENDBRANCH  10  11
ENDBRANCH   1  10
BRANCH   1  24
HETATM   24  C   UNL     1       5.470  28.977  57.117  1.00  0.00     0.123 C 
BRANCH  24  25
HETATM   25  C   UNL     1       4.552  28.971  55.913  1.00  0.00     0.219 C 
HETATM   26  N   UNL     1       4.717  27.862  55.107  1.00  0.00    -0.361 N 
HETATM   27  H   UNL     1       5.541  27.290  55.278  1.00  0.00     0.162 HD
HETATM   28  O   UNL     1       3.693  29.818  55.674  1.00  0.00    -0.274 OA
BRANCH  26  29
HETATM   29  C   UNL     1       4.119  27.762  53.792  1.00  0.00     0.124 C 
BRANCH  29  30
HETATM   30  C   UNL     1       4.687  26.646  52.915  1.00  0.00     0.047 C 
BRANCH  30  31
HETATM   31  C   UNL     1       5.955  26.947  52.115  1.00  0.00     0.236 C 
BRANCH  31  32
HETATM   32  N   UNL     1       5.712  27.194  50.653  1.00  0.00    -0.067 N 
HETATM   33  H   UNL     1       6.643  27.086  50.193  1.00  0.00     0.280 HD
HETATM   34  C   UNL     1       4.705  26.274  49.990  1.00  0.00     0.261 C 
HETATM   35  C   UNL     1       4.589  26.615  48.500  1.00  0.00     0.195 C 
HETATM   36  O   UNL     1       4.228  27.988  48.311  1.00  0.00    -0.388 OA
HETATM   37  C   UNL     1       5.213  28.867  48.866  1.00  0.00     0.195 C 
HETATM   38  C   UNL     1       5.345  28.650  50.377  1.00  0.00     0.261 C 
ENDBRANCH  31  32
ENDBRANCH  30  31
ENDBRANCH  29  30
ENDBRANCH  26  29
ENDBRANCH  24  25
ENDBRANCH   1  24
TORSDOF 11
ENDMDL
MODEL 5
REMARK VINA RESULT:      -8.9      3.541      7.475
REMARK  11 active torsions:
REMARK  status: ('A' for Active; 'I' for Inactive)
REMARK    1  A    between atoms: O_2  and  C_3 
REMARK    2  A    between atoms: C_6  and  C_7 
REMARK    3  A    between atoms: C_7  and  S_8 
REMARK    4  A    between atoms: C_7  and  C_22 
REMARK    5  A    between atoms: S_8  and  C_9 
REMARK    6  A    between atoms: C_12  and  C_13 
REMARK    7  A    between atoms: C_22  and  C_23 
REMARK       I    between atoms: C_23  and  N_24 
REMARK    8  A    between atoms: N_24  and  C_25 
REMARK    9  A    between atoms: C_25  and  C_26 
REMARK   10  A    between atoms: C_26  and  C_27 
REMARK   11  A    between atoms: C_27  and  N_28 
ROOT
HETATM    1  C   UNL     1       5.826  30.341  56.641  1.00  0.00     0.097 C 
ENDROOT
BRANCH   1   2
HETATM    2  C   UNL     1       6.629  30.727  57.883  1.00  0.00    -0.043 A 
HETATM    3  C   UNL     1       7.705  29.919  58.292  1.00  0.00     0.011 A 
HETATM    4  C   UNL     1       8.432  30.213  59.453  1.00  0.00     0.037 A 
HETATM    5  C   UNL     1       8.095  31.318  60.231  1.00  0.00     0.068 A 
HETATM    6  C   UNL     1       7.028  32.124  59.837  1.00  0.00     0.037 A 
HETATM    7  C   UNL     1       6.301  31.836  58.678  1.00  0.00     0.011 A 
BRANCH   5   8
HETATM    8  O   UNL     1       8.707  31.712  61.386  1.00  0.00    -0.356 OA
HETATM    9  C   UNL     1       8.183  31.199  62.605  1.00  0.00     0.210 C 
ENDBRANCH   5   8
ENDBRANCH   1   2
BRANCH   1  10
HETATM   10  S   UNL     1       5.136  28.638  56.843  1.00  0.00    -0.080 SA
BRANCH  10  11
HETATM   11  C   UNL     1       6.107  27.761  55.733  1.00  0.00     0.190 A 
HETATM   12  N   UNL     1       6.761  28.222  54.701  1.00  0.00    -0.122 NA
HETATM   13  N   UNL     1       7.302  27.131  54.053  1.00  0.00    -0.129 NA
HETATM   14  C   UNL     1       6.947  26.033  54.703  1.00  0.00     0.162 A 
HETATM   15  N   UNL     1       6.213  26.409  55.799  1.00  0.00    -0.317 N 
HETATM   16  H   UNL     1       5.791  25.809  56.490  1.00  0.00     0.169 HD
BRANCH  14  17
HETATM   17  C   UNL     1       7.273  24.653  54.347  1.00  0.00     0.012 A 
HETATM   18  C   UNL     1       7.601  24.343  53.019  1.00  0.00     0.017 A 
HETATM   19  C   UNL     1       7.922  23.034  52.645  1.00  0.00     0.025 A 
HETATM   20  C   UNL     1       7.909  22.021  53.598  1.00  0.00     0.034 A 
HETATM   21 CL   UNL     1       8.301  20.410  53.144  1.00  0.00    -0.084 Cl
HETATM   22  C   UNL     1       7.575  22.305  54.921  1.00  0.00     0.025 A 
HETATM   23  C   UNL     1       7.257  23.616  55.295  1.00  0.00     0.017 A 
ENDBRANCH  14  17
ENDBRANCH  10  11
ENDBRANCH   1  10
BRANCH   1  24
HETATM   24  C   UNL     1       4.791  31.397  56.219  1.00  0.00     0.123 C 
BRANCH  24  25
HETATM   25  C   UNL     1       3.991  31.029  54.987  1.00  0.00     0.219 C 
HETATM   26  N   UNL     1       4.770  30.540  53.957  1.00  0.00    -0.361 N 
HETATM   27  H   UNL     1       5.777  30.664  54.045  1.00  0.00     0.162 HD
HETATM   28  O   UNL     1       2.766  31.088  54.894  1.00  0.00    -0.274 OA
BRANCH  26  29
HETATM   29  C   UNL     1       4.255  30.348  52.617  1.00  0.00     0.124 C 
BRANCH  29  30
HETATM   30  C   UNL     1       4.151  28.888  52.176  1.00  0.00     0.047 C 
BRANCH  30  31
HETATM   31  C   UNL     1       5.265  28.334  51.285  1.00  0.00     0.236 C 
BRANCH  31  32
HETATM   32  N   UNL     1       4.821  27.995  49.890  1.00  0.00    -0.067 N 
HETATM   33  H   UNL     1       3.838  28.337  49.819  1.00  0.00     0.280 HD
HETATM   34  C   UNL     1       5.654  28.594  48.773  1.00  0.00     0.261 C 
HETATM   35  C   UNL     1       5.065  28.198  47.414  1.00  0.00     0.195 C 
HETATM   36  O   UNL     1       4.983  26.775  47.282  1.00  0.00    -0.388 OA
HETATM   37  C   UNL     1       4.135  26.206  48.287  1.00  0.00     0.195 C 
HETATM   38  C   UNL     1       4.689  26.487  49.688  1.00  0.00     0.261 C 
ENDBRANCH  31  32
ENDBRANCH  30  31
ENDBRANCH  29  30
ENDBRANCH  26  29
ENDBRANCH  24  25
ENDBRANCH   1  24
TORSDOF 11
ENDMDL
MODEL 6
REMARK VINA RESULT:      -8.9      3.889      9.384
REMARK  11 active torsions:
REMARK  status: ('A' for Active; 'I' for Inactive)
REMARK    1  A    between atoms: O_2  and  C_3 
REMARK    2  A    between atoms: C_6  and  C_7 
REMARK    3  A    between atoms: C_7  and  S_8 
REMARK    4  A    between atoms: C_7  and  C_22 
REMARK    5  A    between atoms: S_8  and  C_9 
REMARK    6  A    between atoms: C_12  and  C_13 
REMARK    7  A    between atoms: C_22  and  C_23 
REMARK       I    between atoms: C_23  and  N_24 
REMARK    8  A    between atoms: N_24  and  C_25 
REMARK    9  A    between atoms: C_25  and  C_26 
REMARK   10  A    between atoms: C_26  and  C_27 
REMARK   11  A    between atoms: C_27  and  N_28 
ROOT
HETATM    1  C   UNL     1       7.084  28.968  56.000  1.00  0.00     0.097 C 
ENDROOT
BRANCH   1   2
HETATM    2  C   UNL     1       6.241  28.812  54.734  1.00  0.00    -0.043 A 
HETATM    3  C   UNL     1       4.938  29.337  54.700  1.00  0.00     0.011 A 
HETATM    4  C   UNL     1       4.118  29.169  53.576  1.00  0.00     0.037 A 
HETATM    5  C   UNL     1       4.584  28.469  52.466  1.00  0.00     0.068 A 
HETATM    6  C   UNL     1       5.874  27.941  52.490  1.00  0.00     0.037 A 
HETATM    7  C   UNL     1       6.696  28.108  53.608  1.00  0.00     0.011 A 
BRANCH   5   8
HETATM    8  O   UNL     1       3.891  28.221  51.316  1.00  0.00    -0.356 OA
HETATM    9  C   UNL     1       4.615  27.647  50.234  1.00  0.00     0.210 C 
ENDBRANCH   5   8
ENDBRANCH   1   2
BRANCH   1  10
HETATM   10  S   UNL     1       6.289  28.060  57.400  1.00  0.00    -0.080 SA
BRANCH  10  11
HETATM   11  C   UNL     1       7.078  26.541  57.292  1.00  0.00     0.190 A 
HETATM   12  N   UNL     1       7.980  26.047  58.096  1.00  0.00    -0.122 NA
HETATM   13  N   UNL     1       8.395  24.853  57.544  1.00  0.00    -0.129 NA
HETATM   14  C   UNL     1       7.742  24.662  56.407  1.00  0.00     0.162 A 
HETATM   15  N   UNL     1       6.870  25.708  56.241  1.00  0.00    -0.317 N 
HETATM   16  H   UNL     1       6.237  25.862  55.472  1.00  0.00     0.169 HD
BRANCH  14  17
HETATM   17  C   UNL     1       7.894  23.543  55.480  1.00  0.00     0.012 A 
HETATM   18  C   UNL     1       7.966  23.795  54.101  1.00  0.00     0.017 A 
HETATM   19  C   UNL     1       8.115  22.747  53.187  1.00  0.00     0.025 A 
HETATM   20  C   UNL     1       8.185  21.436  53.645  1.00  0.00     0.034 A 
HETATM   21 CL   UNL     1       8.367  20.144  52.525  1.00  0.00    -0.084 Cl
HETATM   22  C   UNL     1       8.105  21.162  55.009  1.00  0.00     0.025 A 
HETATM   23  C   UNL     1       7.959  22.212  55.924  1.00  0.00     0.017 A 
ENDBRANCH  14  17
ENDBRANCH  10  11
ENDBRANCH   1  10
BRANCH   1  24
HETATM   24  C   UNL     1       8.573  28.641  55.799  1.00  0.00     0.123 C 
BRANCH  24  25
HETATM   25  C   UNL     1       9.522  29.650  56.412  1.00  0.00     0.219 C 
HETATM   26  N   UNL     1       9.273  29.889  57.749  1.00  0.00    -0.361 N 
HETATM   27  H   UNL     1       8.392  29.541  58.120  1.00  0.00     0.162 HD
HETATM   28  O   UNL     1      10.467  30.178  55.829  1.00  0.00    -0.274 OA
BRANCH  26  29
HETATM   29  C   UNL     1       9.898  30.977  58.473  1.00  0.00     0.124 C 
BRANCH  29  30
HETATM   30  C   UNL     1       9.016  31.623  59.542  1.00  0.00     0.047 C 
BRANCH  30  31
HETATM   31  C   UNL     1       7.505  31.403  59.443  1.00  0.00     0.236 C 
BRANCH  31  32
HETATM   32  N   UNL     1       6.702  32.241  60.398  1.00  0.00    -0.067 N 
HETATM   33  H   UNL     1       7.124  33.194  60.356  1.00  0.00     0.280 HD
HETATM   34  C   UNL     1       5.216  32.325  60.106  1.00  0.00     0.261 C 
HETATM   35  C   UNL     1       4.535  33.239  61.131  1.00  0.00     0.195 C 
HETATM   36  O   UNL     1       4.767  32.779  62.468  1.00  0.00    -0.388 OA
HETATM   37  C   UNL     1       6.165  32.769  62.780  1.00  0.00     0.195 C 
HETATM   38  C   UNL     1       6.923  31.817  61.848  1.00  0.00     0.261 C 
ENDBRANCH  31  32
ENDBRANCH  30  31
ENDBRANCH  29  30
ENDBRANCH  26  29
ENDBRANCH  24  25
ENDBRANCH   1  24
TORSDOF 11
ENDMDL
MODEL 7
REMARK VINA RESULT:      -8.8      1.772      2.343
REMARK  11 active torsions:
REMARK  status: ('A' for Active; 'I' for Inactive)
REMARK    1  A    between atoms: O_2  and  C_3 
REMARK    2  A    between atoms: C_6  and  C_7 
REMARK    3  A    between atoms: C_7  and  S_8 
REMARK    4  A    between atoms: C_7  and  C_22 
REMARK    5  A    between atoms: S_8  and  C_9 
REMARK    6  A    between atoms: C_12  and  C_13 
REMARK    7  A    between atoms: C_22  and  C_23 
REMARK       I    between atoms: C_23  and  N_24 
REMARK    8  A    between atoms: N_24  and  C_25 
REMARK    9  A    between atoms: C_25  and  C_26 
REMARK   10  A    between atoms: C_26  and  C_27 
REMARK   11  A    between atoms: C_27  and  N_28 
ROOT
HETATM    1  C   UNL     1       6.284  26.042  54.460  1.00  0.00     0.097 C 
ENDROOT
BRANCH   1   2
HETATM    2  C   UNL     1       6.981  24.682  54.416  1.00  0.00    -0.043 A 
HETATM    3  C   UNL     1       7.642  24.205  55.560  1.00  0.00     0.011 A 
HETATM    4  C   UNL     1       8.336  22.987  55.542  1.00  0.00     0.037 A 
HETATM    5  C   UNL     1       8.385  22.225  54.378  1.00  0.00     0.068 A 
HETATM    6  C   UNL     1       7.735  22.691  53.235  1.00  0.00     0.037 A 
HETATM    7  C   UNL     1       7.041  23.904  53.249  1.00  0.00     0.011 A 
BRANCH   5   8
HETATM    8  O   UNL     1       9.031  21.033  54.217  1.00  0.00    -0.356 OA
HETATM    9  C   UNL     1       8.700  20.267  53.065  1.00  0.00     0.210 C 
ENDBRANCH   5   8
ENDBRANCH   1   2
BRANCH   1  10
HETATM   10  S   UNL     1       7.509  27.388  54.139  1.00  0.00    -0.080 SA
BRANCH  10  11
HETATM   11  C   UNL     1       7.664  28.066  55.707  1.00  0.00     0.190 A 
HETATM   12  N   UNL     1       8.294  27.569  56.738  1.00  0.00    -0.122 NA
HETATM   13  N   UNL     1       8.049  28.413  57.800  1.00  0.00    -0.129 NA
HETATM   14  C   UNL     1       7.262  29.396  57.388  1.00  0.00     0.162 A 
HETATM   15  N   UNL     1       7.029  29.216  56.048  1.00  0.00    -0.317 N 
HETATM   16  H   UNL     1       6.462  29.788  55.442  1.00  0.00     0.169 HD
BRANCH  14  17
HETATM   17  C   UNL     1       6.728  30.495  58.191  1.00  0.00     0.012 A 
HETATM   18  C   UNL     1       5.426  30.958  57.945  1.00  0.00     0.017 A 
HETATM   19  C   UNL     1       4.883  32.005  58.697  1.00  0.00     0.025 A 
HETATM   20  C   UNL     1       5.643  32.602  59.698  1.00  0.00     0.034 A 
HETATM   21 CL   UNL     1       4.981  33.891  60.625  1.00  0.00    -0.084 Cl
HETATM   22  C   UNL     1       6.941  32.165  59.950  1.00  0.00     0.025 A 
HETATM   23  C   UNL     1       7.483  31.115  59.200  1.00  0.00     0.017 A 
ENDBRANCH  14  17
ENDBRANCH  10  11
ENDBRANCH   1  10
BRANCH   1  24
HETATM   24  C   UNL     1       5.018  26.118  53.590  1.00  0.00     0.123 C 
BRANCH  24  25
HETATM   25  C   UNL     1       4.294  27.447  53.656  1.00  0.00     0.219 C 
HETATM   26  N   UNL     1       3.596  27.745  52.502  1.00  0.00    -0.361 N 
HETATM   27  H   UNL     1       3.795  27.172  51.685  1.00  0.00     0.162 HD
HETATM   28  O   UNL     1       4.259  28.186  54.638  1.00  0.00    -0.274 OA
BRANCH  26  29
HETATM   29  C   UNL     1       3.030  29.055  52.254  1.00  0.00     0.124 C 
BRANCH  29  30
HETATM   30  C   UNL     1       2.380  29.220  50.880  1.00  0.00     0.047 C 
BRANCH  30  31
HETATM   31  C   UNL     1       3.230  28.895  49.650  1.00  0.00     0.236 C 
BRANCH  31  32
HETATM   32  N   UNL     1       2.756  27.696  48.878  1.00  0.00    -0.067 N 
HETATM   33  H   UNL     1       2.017  27.258  49.469  1.00  0.00     0.280 HD
HETATM   34  C   UNL     1       2.202  27.983  47.495  1.00  0.00     0.261 C 
HETATM   35  C   UNL     1       1.724  26.679  46.845  1.00  0.00     0.195 C 
HETATM   36  O   UNL     1       2.782  25.715  46.781  1.00  0.00    -0.388 OA
HETATM   37  C   UNL     1       3.260  25.380  48.090  1.00  0.00     0.195 C 
HETATM   38  C   UNL     1       3.832  26.615  48.793  1.00  0.00     0.261 C 
ENDBRANCH  31  32
ENDBRANCH  30  31
ENDBRANCH  29  30
ENDBRANCH  26  29
ENDBRANCH  24  25
ENDBRANCH   1  24
TORSDOF 11
ENDMDL
MODEL 8
REMARK VINA RESULT:      -8.6      4.068      6.977
REMARK  11 active torsions:
REMARK  status: ('A' for Active; 'I' for Inactive)
REMARK    1  A    between atoms: O_2  and  C_3 
REMARK    2  A    between atoms: C_6  and  C_7 
REMARK    3  A    between atoms: C_7  and  S_8 
REMARK    4  A    between atoms: C_7  and  C_22 
REMARK    5  A    between atoms: S_8  and  C_9 
REMARK    6  A    between atoms: C_12  and  C_13 
REMARK    7  A    between atoms: C_22  and  C_23 
REMARK       I    between atoms: C_23  and  N_24 
REMARK    8  A    between atoms: N_24  and  C_25 
REMARK    9  A    between atoms: C_25  and  C_26 
REMARK   10  A    between atoms: C_26  and  C_27 
REMARK   11  A    between atoms: C_27  and  N_28 
ROOT
HETATM    1  C   UNL     1       7.853  28.613  56.879  1.00  0.00     0.097 C 
ENDROOT
BRANCH   1   2
HETATM    2  C   UNL     1       7.691  27.125  56.570  1.00  0.00    -0.043 A 
HETATM    3  C   UNL     1       8.308  26.173  57.399  1.00  0.00     0.011 A 
HETATM    4  C   UNL     1       8.224  24.802  57.119  1.00  0.00     0.037 A 
HETATM    5  C   UNL     1       7.525  24.357  56.000  1.00  0.00     0.068 A 
HETATM    6  C   UNL     1       6.911  25.293  55.168  1.00  0.00     0.037 A 
HETATM    7  C   UNL     1       6.991  26.660  55.445  1.00  0.00     0.011 A 
BRANCH   5   8
HETATM    8  O   UNL     1       7.374  23.060  55.603  1.00  0.00    -0.356 OA
HETATM    9  C   UNL     1       8.556  22.343  55.267  1.00  0.00     0.210 C 
ENDBRANCH   5   8
ENDBRANCH   1   2
BRANCH   1  10
HETATM   10  S   UNL     1       9.636  29.003  57.174  1.00  0.00    -0.080 SA
BRANCH  10  11
HETATM   11  C   UNL     1       9.503  30.421  58.130  1.00  0.00     0.190 A 
HETATM   12  N   UNL     1      10.220  31.510  58.054  1.00  0.00    -0.122 NA
HETATM   13  N   UNL     1       9.820  32.324  59.092  1.00  0.00    -0.129 NA
HETATM   14  C   UNL     1       8.878  31.699  59.782  1.00  0.00     0.162 A 
HETATM   15  N   UNL     1       8.632  30.497  59.169  1.00  0.00    -0.317 N 
HETATM   16  H   UNL     1       7.978  29.785  59.453  1.00  0.00     0.169 HD
BRANCH  14  17
HETATM   17  C   UNL     1       8.195  32.182  60.982  1.00  0.00     0.012 A 
HETATM   18  C   UNL     1       8.729  31.886  62.245  1.00  0.00     0.017 A 
HETATM   19  C   UNL     1       8.104  32.335  63.412  1.00  0.00     0.025 A 
HETATM   20  C   UNL     1       6.932  33.080  63.324  1.00  0.00     0.034 A 
HETATM   21 CL   UNL     1       6.158  33.634  64.757  1.00  0.00    -0.084 Cl
HETATM   22  C   UNL     1       6.379  33.376  62.080  1.00  0.00     0.025 A 
HETATM   23  C   UNL     1       7.007  32.928  60.912  1.00  0.00     0.017 A 
ENDBRANCH  14  17
ENDBRANCH  10  11
ENDBRANCH   1  10
BRANCH   1  24
HETATM   24  C   UNL     1       7.163  29.537  55.861  1.00  0.00     0.123 C 
BRANCH  24  25
HETATM   25  C   UNL     1       5.740  29.909  56.220  1.00  0.00     0.219 C 
HETATM   26  N   UNL     1       5.598  30.317  57.532  1.00  0.00    -0.361 N 
HETATM   27  H   UNL     1       6.382  30.138  58.155  1.00  0.00     0.162 HD
HETATM   28  O   UNL     1       4.792  29.917  55.438  1.00  0.00    -0.274 OA
BRANCH  26  29
HETATM   29  C   UNL     1       4.302  30.495  58.154  1.00  0.00     0.124 C 
BRANCH  29  30
HETATM   30  C   UNL     1       4.130  31.813  58.908  1.00  0.00     0.047 C 
BRANCH  30  31
HETATM   31  C   UNL     1       3.397  31.773  60.250  1.00  0.00     0.236 C 
BRANCH  31  32
HETATM   32  N   UNL     1       2.736  33.069  60.625  1.00  0.00    -0.067 N 
HETATM   33  H   UNL     1       1.732  32.956  60.365  1.00  0.00     0.280 HD
HETATM   34  C   UNL     1       2.845  33.464  62.085  1.00  0.00     0.261 C 
HETATM   35  C   UNL     1       2.096  34.779  62.328  1.00  0.00     0.195 C 
HETATM   36  O   UNL     1       2.593  35.821  61.480  1.00  0.00    -0.388 OA
HETATM   37  C   UNL     1       2.424  35.491  60.096  1.00  0.00     0.195 C 
HETATM   38  C   UNL     1       3.205  34.222  59.739  1.00  0.00     0.261 C 
ENDBRANCH  31  32
ENDBRANCH  30  31
ENDBRANCH  29  30
ENDBRANCH  26  29
ENDBRANCH  24  25
ENDBRANCH   1  24
TORSDOF 11
ENDMDL
MODEL 9
REMARK VINA RESULT:      -8.5      3.899      9.881
REMARK  11 active torsions:
REMARK  status: ('A' for Active; 'I' for Inactive)
REMARK    1  A    between atoms: O_2  and  C_3 
REMARK    2  A    between atoms: C_6  and  C_7 
REMARK    3  A    between atoms: C_7  and  S_8 
REMARK    4  A    between atoms: C_7  and  C_22 
REMARK    5  A    between atoms: S_8  and  C_9 
REMARK    6  A    between atoms: C_12  and  C_13 
REMARK    7  A    between atoms: C_22  and  C_23 
REMARK       I    between atoms: C_23  and  N_24 
REMARK    8  A    between atoms: N_24  and  C_25 
REMARK    9  A    between atoms: C_25  and  C_26 
REMARK   10  A    between atoms: C_26  and  C_27 
REMARK   11  A    between atoms: C_27  and  N_28 
ROOT
HETATM    1  C   UNL     1       7.196  26.545  54.900  1.00  0.00     0.097 C 
ENDROOT
BRANCH   1   2
HETATM    2  C   UNL     1       7.607  25.139  54.463  1.00  0.00    -0.043 A 
HETATM    3  C   UNL     1       7.657  24.825  53.094  1.00  0.00     0.011 A 
HETATM    4  C   UNL     1       7.980  23.534  52.657  1.00  0.00     0.037 A 
HETATM    5  C   UNL     1       8.254  22.529  53.581  1.00  0.00     0.068 A 
HETATM    6  C   UNL     1       8.204  22.827  54.942  1.00  0.00     0.037 A 
HETATM    7  C   UNL     1       7.884  24.115  55.382  1.00  0.00     0.011 A 
BRANCH   5   8
HETATM    8  O   UNL     1       8.569  21.231  53.296  1.00  0.00    -0.356 OA
HETATM    9  C   UNL     1       8.378  20.275  54.332  1.00  0.00     0.210 C 
ENDBRANCH   5   8
ENDBRANCH   1   2
BRANCH   1  10
HETATM   10  S   UNL     1       5.368  26.751  54.718  1.00  0.00    -0.080 SA
BRANCH  10  11
HETATM   11  C   UNL     1       5.276  27.468  53.163  1.00  0.00     0.190 A 
HETATM   12  N   UNL     1       6.047  28.393  52.659  1.00  0.00    -0.122 NA
HETATM   13  N   UNL     1       5.520  28.725  51.429  1.00  0.00    -0.129 NA
HETATM   14  C   UNL     1       4.430  28.001  51.225  1.00  0.00     0.162 A 
HETATM   15  N   UNL     1       4.271  27.165  52.301  1.00  0.00    -0.317 N 
HETATM   16  H   UNL     1       3.534  26.496  52.455  1.00  0.00     0.169 HD
BRANCH  14  17
HETATM   17  C   UNL     1       3.541  28.052  50.066  1.00  0.00     0.012 A 
HETATM   18  C   UNL     1       3.808  27.237  48.955  1.00  0.00     0.017 A 
HETATM   19  C   UNL     1       2.976  27.258  47.832  1.00  0.00     0.025 A 
HETATM   20  C   UNL     1       1.870  28.103  47.808  1.00  0.00     0.034 A 
HETATM   21 CL   UNL     1       0.844  28.134  46.429  1.00  0.00    -0.084 Cl
HETATM   22  C   UNL     1       1.592  28.928  48.896  1.00  0.00     0.025 A 
HETATM   23  C   UNL     1       2.425  28.904  50.021  1.00  0.00     0.017 A 
ENDBRANCH  14  17
ENDBRANCH  10  11
ENDBRANCH   1  10
BRANCH   1  24
HETATM   24  C   UNL     1       7.744  26.951  56.278  1.00  0.00     0.123 C 
BRANCH  24  25
HETATM   25  C   UNL     1       8.087  28.421  56.405  1.00  0.00     0.219 C 
HETATM   26  N   UNL     1       9.168  28.659  57.230  1.00  0.00    -0.361 N 
HETATM   27  H   UNL     1       9.484  27.883  57.808  1.00  0.00     0.162 HD
HETATM   28  O   UNL     1       7.522  29.334  55.806  1.00  0.00    -0.274 OA
BRANCH  26  29
HETATM   29  C   UNL     1       9.525  29.989  57.679  1.00  0.00     0.124 C 
BRANCH  29  30
HETATM   30  C   UNL     1       9.074  30.325  59.101  1.00  0.00     0.047 C 
BRANCH  30  31
HETATM   31  C   UNL     1       7.711  30.998  59.273  1.00  0.00     0.236 C 
BRANCH  31  32
HETATM   32  N   UNL     1       7.378  31.350  60.695  1.00  0.00    -0.067 N 
HETATM   33  H   UNL     1       6.982  30.479  61.113  1.00  0.00     0.280 HD
HETATM   34  C   UNL     1       8.538  31.840  61.540  1.00  0.00     0.261 C 
HETATM   35  C   UNL     1       8.060  32.121  62.969  1.00  0.00     0.195 C 
HETATM   36  O   UNL     1       6.987  33.070  62.978  1.00  0.00    -0.388 OA
HETATM   37  C   UNL     1       5.855  32.582  62.247  1.00  0.00     0.195 C 
HETATM   38  C   UNL     1       6.220  32.342  60.777  1.00  0.00     0.261 C 
ENDBRANCH  31  32
ENDBRANCH  30  31
ENDBRANCH  29  30
ENDBRANCH  26  29
ENDBRANCH  24  25
ENDBRANCH   1  24
TORSDOF 11
ENDMDL
MODEL 10
REMARK VINA RESULT:      -8.5      4.106     10.010
REMARK  11 active torsions:
REMARK  status: ('A' for Active; 'I' for Inactive)
REMARK    1  A    between atoms: O_2  and  C_3 
REMARK    2  A    between atoms: C_6  and  C_7 
REMARK    3  A    between atoms: C_7  and  S_8 
REMARK    4  A    between atoms: C_7  and  C_22 
REMARK    5  A    between atoms: S_8  and  C_9 
REMARK    6  A    between atoms: C_12  and  C_13 
REMARK    7  A    between atoms: C_22  and  C_23 
REMARK       I    between atoms: C_23  and  N_24 
REMARK    8  A    between atoms: N_24  and  C_25 
REMARK    9  A    between atoms: C_25  and  C_26 
REMARK   10  A    between atoms: C_26  and  C_27 
REMARK   11  A    between atoms: C_27  and  N_28 
ROOT
HETATM    1  C   UNL     1       6.352  25.276  53.378  1.00  0.00     0.097 C 
ENDROOT
BRANCH   1   2
HETATM    2  C   UNL     1       6.994  23.950  53.784  1.00  0.00    -0.043 A 
HETATM    3  C   UNL     1       6.997  23.565  55.136  1.00  0.00     0.011 A 
HETATM    4  C   UNL     1       7.620  22.381  55.553  1.00  0.00     0.037 A 
HETATM    5  C   UNL     1       8.257  21.561  54.626  1.00  0.00     0.068 A 
HETATM    6  C   UNL     1       8.264  21.933  53.282  1.00  0.00     0.037 A 
HETATM    7  C   UNL     1       7.641  23.112  52.862  1.00  0.00     0.011 A 
BRANCH   5   8
HETATM    8  O   UNL     1       8.911  20.392  54.893  1.00  0.00    -0.356 OA
HETATM    9  C   UNL     1       9.538  20.277  56.165  1.00  0.00     0.210 C 
ENDBRANCH   5   8
ENDBRANCH   1   2
BRANCH   1  10
HETATM   10  S   UNL     1       4.989  24.971  52.168  1.00  0.00    -0.080 SA
BRANCH  10  11
HETATM   11  C   UNL     1       5.082  26.391  51.210  1.00  0.00     0.190 A 
HETATM   12  N   UNL     1       5.931  27.378  51.318  1.00  0.00    -0.122 NA
HETATM   13  N   UNL     1       5.545  28.338  50.406  1.00  0.00    -0.129 NA
HETATM   14  C   UNL     1       4.460  27.913  49.777  1.00  0.00     0.162 A 
HETATM   15  N   UNL     1       4.163  26.658  50.247  1.00  0.00    -0.317 N 
HETATM   16  H   UNL     1       3.393  26.068  49.976  1.00  0.00     0.169 HD
BRANCH  14  17
HETATM   17  C   UNL     1       3.698  28.625  48.753  1.00  0.00     0.012 A 
HETATM   18  C   UNL     1       4.363  29.506  47.887  1.00  0.00     0.017 A 
HETATM   19  C   UNL     1       3.665  30.201  46.894  1.00  0.00     0.025 A 
HETATM   20  C   UNL     1       2.290  30.024  46.765  1.00  0.00     0.034 A 
HETATM   21 CL   UNL     1       1.427  30.876  45.547  1.00  0.00    -0.084 Cl
HETATM   22  C   UNL     1       1.609  29.162  47.622  1.00  0.00     0.025 A 
HETATM   23  C   UNL     1       2.309  28.465  48.613  1.00  0.00     0.017 A 
ENDBRANCH  14  17
ENDBRANCH  10  11
ENDBRANCH   1  10
BRANCH   1  24
HETATM   24  C   UNL     1       5.953  26.162  54.570  1.00  0.00     0.123 C 
BRANCH  24  25
HETATM   25  C   UNL     1       7.041  27.107  55.038  1.00  0.00     0.219 C 
HETATM   26  N   UNL     1       7.336  26.976  56.380  1.00  0.00    -0.361 N 
HETATM   27  H   UNL     1       6.684  26.433  56.942  1.00  0.00     0.162 HD
HETATM   28  O   UNL     1       7.663  27.883  54.315  1.00  0.00    -0.274 OA
BRANCH  26  29
HETATM   29  C   UNL     1       8.168  27.926  57.089  1.00  0.00     0.124 C 
BRANCH  29  30
HETATM   30  C   UNL     1       7.408  28.875  58.015  1.00  0.00     0.047 C 
BRANCH  30  31
HETATM   31  C   UNL     1       8.123  30.149  58.469  1.00  0.00     0.236 C 
BRANCH  31  32
HETATM   32  N   UNL     1       7.881  30.507  59.908  1.00  0.00    -0.067 N 
HETATM   33  H   UNL     1       7.207  29.794  60.264  1.00  0.00     0.280 HD
HETATM   34  C   UNL     1       9.112  30.534  60.794  1.00  0.00     0.261 C 
HETATM   35  C   UNL     1       8.710  30.873  62.234  1.00  0.00     0.195 C 
HETATM   36  O   UNL     1       8.011  32.122  62.295  1.00  0.00    -0.388 OA
HETATM   37  C   UNL     1       6.805  32.081  61.522  1.00  0.00     0.195 C 
HETATM   38  C   UNL     1       7.114  31.821  60.044  1.00  0.00     0.261 C 
ENDBRANCH  31  32
ENDBRANCH  30  31
ENDBRANCH  29  30
ENDBRANCH  26  29
ENDBRANCH  24  25
ENDBRANCH   1  24
TORSDOF 11
ENDMDL
