MODEL 1
REMARK VINA RESULT:      -8.8      0.000      0.000
REMARK  5 active torsions:
REMARK  status: ('A' for Active; 'I' for Inactive)
REMARK    1  A    between atoms: C_3  and  N_4 
REMARK       I    between atoms: N_4  and  C_5 
REMARK    2  A    between atoms: C_5  and  C_6 
REMARK    3  A    between atoms: C_6  and  N_7 
REMARK    4  A    between atoms: C_6  and  C_16 
REMARK       I    between atoms: N_7  and  C_8 
REMARK    5  A    between atoms: C_8  and  C_9 
ROOT
HETATM    1  C   UNL     1       6.529  27.996  54.825  1.00  0.00     0.210 C 
ENDROOT
BRANCH   1   2
HETATM    2  C   UNL     1       6.365  26.452  55.010  1.00  0.00     0.249 C 
HETATM    3  N   UNL     1       7.535  25.731  54.841  1.00  0.00    -0.324 N 
HETATM    4  H   UNL     1       8.364  26.318  54.753  1.00  0.00     0.169 HD
HETATM    5  O   UNL     1       5.305  26.002  55.449  1.00  0.00    -0.270 OA
BRANCH   3   6
HETATM    6  C   UNL     1       7.779  24.375  55.173  1.00  0.00     0.046 A 
HETATM    7  C   UNL     1       7.661  23.298  54.269  1.00  0.00    -0.035 A 
HETATM    8  C   UNL     1       7.366  23.439  52.801  1.00  0.00     0.050 C 
HETATM    9  C   UNL     1       7.873  21.984  54.733  1.00  0.00     0.009 A 
HETATM   10  C   UNL     1       8.259  21.733  56.045  1.00  0.00     0.001 A 
HETATM   11  C   UNL     1       8.441  22.792  56.920  1.00  0.00     0.009 A 
HETATM   12  C   UNL     1       8.204  24.113  56.504  1.00  0.00    -0.035 A 
HETATM   13  C   UNL     1       8.398  25.208  57.525  1.00  0.00     0.050 C 
ENDBRANCH   3   6
ENDBRANCH   1   2
BRANCH   1  14
HETATM   14  N   UNL     1       6.408  28.440  53.439  1.00  0.00    -0.338 N 
HETATM   15  C   UNL     1       5.245  28.589  52.726  1.00  0.00     0.273 C 
HETATM   16  O   UNL     1       4.128  28.461  53.218  1.00  0.00    -0.266 OA
HETATM   17  H   UNL     1       7.255  28.526  52.883  1.00  0.00     0.164 HD
BRANCH  15  18
HETATM   18  C   UNL     1       5.469  28.903  51.307  1.00  0.00     0.145 A 
HETATM   19  N   UNL     1       5.875  30.127  50.904  1.00  0.00    -0.170 NA
HETATM   20  N   UNL     1       5.977  30.013  49.568  1.00  0.00    -0.289 N 
HETATM   21  H   UNL     1       6.275  30.825  49.036  1.00  0.00     0.188 HD
HETATM   22  C   UNL     1       5.656  28.776  49.099  1.00  0.00     0.112 A 
HETATM   23  C   UNL     1       5.322  28.028  50.202  1.00  0.00     0.058 A 
ENDBRANCH  15  18
ENDBRANCH   1  14
BRANCH   1  24
HETATM   24  C   UNL     1       7.732  28.554  55.592  1.00  0.00    -0.026 A 
HETATM   25  C   UNL     1       8.905  28.991  54.955  1.00  0.00     0.010 A 
HETATM   26  C   UNL     1       9.982  29.497  55.692  1.00  0.00     0.001 A 
HETATM   27  C   UNL     1       9.896  29.604  57.076  1.00  0.00     0.000 A 
HETATM   28  C   UNL     1       8.730  29.216  57.726  1.00  0.00     0.001 A 
HETATM   29  C   UNL     1       7.657  28.706  56.991  1.00  0.00     0.010 A 
ENDBRANCH   1  24
TORSDOF 5
ENDMDL
MODEL 2
REMARK VINA RESULT:      -8.7      0.390      1.742
REMARK  5 active torsions:
REMARK  status: ('A' for Active; 'I' for Inactive)
REMARK    1  A    between atoms: C_3  and  N_4 
REMARK       I    between atoms: N_4  and  C_5 
REMARK    2  A    between atoms: C_5  and  C_6 
REMARK    3  A    between atoms: C_6  and  N_7 
REMARK    4  A    between atoms: C_6  and  C_16 
REMARK       I    between atoms: N_7  and  C_8 
REMARK    5  A    between atoms: C_8  and  C_9 
ROOT
HETATM    1  C   UNL     1       6.534  27.895  54.852  1.00  0.00     0.210 C 
ENDROOT
BRANCH   1   2
HETATM    2  C   UNL     1       6.414  26.343  55.011  1.00  0.00     0.249 C 
HETATM    3  N   UNL     1       7.541  25.642  54.615  1.00  0.00    -0.324 N 
HETATM    4  H   UNL     1       8.338  26.242  54.403  1.00  0.00     0.169 HD
HETATM    5  O   UNL     1       5.451  25.867  55.613  1.00  0.00    -0.270 OA
BRANCH   3   6
HETATM    6  C   UNL     1       7.849  24.280  54.854  1.00  0.00     0.046 A 
HETATM    7  C   UNL     1       8.381  23.782  56.063  1.00  0.00    -0.035 A 
HETATM    8  C   UNL     1       8.598  24.600  57.306  1.00  0.00     0.050 C 
HETATM    9  C   UNL     1       8.701  22.413  56.160  1.00  0.00     0.009 A 
HETATM   10  C   UNL     1       8.443  21.532  55.116  1.00  0.00     0.001 A 
HETATM   11  C   UNL     1       7.859  22.005  53.951  1.00  0.00     0.009 A 
HETATM   12  C   UNL     1       7.559  23.369  53.802  1.00  0.00    -0.035 A 
HETATM   13  C   UNL     1       6.950  23.807  52.492  1.00  0.00     0.050 C 
ENDBRANCH   3   6
ENDBRANCH   1   2
BRANCH   1  14
HETATM   14  N   UNL     1       6.396  28.358  53.474  1.00  0.00    -0.338 N 
HETATM   15  C   UNL     1       5.231  28.449  52.753  1.00  0.00     0.273 C 
HETATM   16  O   UNL     1       4.121  28.243  53.232  1.00  0.00    -0.266 OA
HETATM   17  H   UNL     1       7.240  28.507  52.927  1.00  0.00     0.164 HD
BRANCH  15  18
HETATM   18  C   UNL     1       5.446  28.805  51.343  1.00  0.00     0.145 A 
HETATM   19  N   UNL     1       5.877  30.031  50.976  1.00  0.00    -0.170 NA
HETATM   20  N   UNL     1       5.961  29.960  49.635  1.00  0.00    -0.289 N 
HETATM   21  H   UNL     1       6.273  30.781  49.126  1.00  0.00     0.188 HD
HETATM   22  C   UNL     1       5.604  28.747  49.130  1.00  0.00     0.112 A 
HETATM   23  C   UNL     1       5.264  27.971  50.211  1.00  0.00     0.058 A 
ENDBRANCH  15  18
ENDBRANCH   1  14
BRANCH   1  24
HETATM   24  C   UNL     1       7.722  28.474  55.626  1.00  0.00    -0.026 A 
HETATM   25  C   UNL     1       8.868  28.982  54.992  1.00  0.00     0.010 A 
HETATM   26  C   UNL     1       9.932  29.506  55.734  1.00  0.00     0.001 A 
HETATM   27  C   UNL     1       9.859  29.559  57.123  1.00  0.00     0.000 A 
HETATM   28  C   UNL     1       8.718  29.101  57.771  1.00  0.00     0.001 A 
HETATM   29  C   UNL     1       7.658  28.573  57.030  1.00  0.00     0.010 A 
ENDBRANCH   1  24
TORSDOF 5
ENDMDL
MODEL 3
REMARK VINA RESULT:      -8.7      2.135      4.972
REMARK  5 active torsions:
REMARK  status: ('A' for Active; 'I' for Inactive)
REMARK    1  A    between atoms: C_3  and  N_4 
REMARK       I    between atoms: N_4  and  C_5 
REMARK    2  A    between atoms: C_5  and  C_6 
REMARK    3  A    between atoms: C_6  and  N_7 
REMARK    4  A    between atoms: C_6  and  C_16 
REMARK       I    between atoms: N_7  and  C_8 
REMARK    5  A    between atoms: C_8  and  C_9 
ROOT
HETATM    1  C   UNL     1       7.036  26.398  53.693  1.00  0.00     0.210 C 
ENDROOT
BRANCH   1   2
HETATM    2  C   UNL     1       6.804  24.898  54.070  1.00  0.00     0.249 C 
HETATM    3  N   UNL     1       7.962  24.203  54.376  1.00  0.00    -0.324 N 
HETATM    4  H   UNL     1       8.787  24.798  54.444  1.00  0.00     0.169 HD
HETATM    5  O   UNL     1       5.656  24.486  54.241  1.00  0.00    -0.270 OA
BRANCH   3   6
HETATM    6  C   UNL     1       8.077  22.927  54.982  1.00  0.00     0.046 A 
HETATM    7  C   UNL     1       7.981  21.702  54.287  1.00  0.00    -0.035 A 
HETATM    8  C   UNL     1       7.849  21.569  52.795  1.00  0.00     0.050 C 
HETATM    9  C   UNL     1       8.054  20.495  55.011  1.00  0.00     0.009 A 
HETATM   10  C   UNL     1       8.285  20.484  56.382  1.00  0.00     0.001 A 
HETATM   11  C   UNL     1       8.447  21.684  57.058  1.00  0.00     0.009 A 
HETATM   12  C   UNL     1       8.344  22.909  56.378  1.00  0.00    -0.035 A 
HETATM   13  C   UNL     1       8.506  24.170  57.191  1.00  0.00     0.050 C 
ENDBRANCH   3   6
ENDBRANCH   1   2
BRANCH   1  14
HETATM   14  N   UNL     1       7.038  27.301  54.841  1.00  0.00    -0.338 N 
HETATM   15  C   UNL     1       7.919  28.327  55.075  1.00  0.00     0.273 C 
HETATM   16  O   UNL     1       8.772  28.684  54.268  1.00  0.00    -0.266 OA
HETATM   17  H   UNL     1       6.424  27.089  55.623  1.00  0.00     0.164 HD
BRANCH  15  18
HETATM   18  C   UNL     1       7.748  28.950  56.395  1.00  0.00     0.145 A 
HETATM   19  N   UNL     1       6.528  29.255  56.887  1.00  0.00    -0.170 NA
HETATM   20  N   UNL     1       6.786  29.785  58.096  1.00  0.00    -0.289 N 
HETATM   21  H   UNL     1       6.004  30.092  58.666  1.00  0.00     0.188 HD
HETATM   22  C   UNL     1       8.113  29.833  58.399  1.00  0.00     0.112 A 
HETATM   23  C   UNL     1       8.768  29.298  57.317  1.00  0.00     0.058 A 
ENDBRANCH  15  18
ENDBRANCH   1  14
BRANCH   1  24
HETATM   24  C   UNL     1       6.178  26.845  52.506  1.00  0.00    -0.026 A 
HETATM   25  C   UNL     1       5.713  28.162  52.356  1.00  0.00     0.010 A 
HETATM   26  C   UNL     1       4.932  28.532  51.254  1.00  0.00     0.001 A 
HETATM   27  C   UNL     1       4.627  27.600  50.267  1.00  0.00     0.000 A 
HETATM   28  C   UNL     1       5.111  26.302  50.372  1.00  0.00     0.001 A 
HETATM   29  C   UNL     1       5.885  25.931  51.474  1.00  0.00     0.010 A 
ENDBRANCH   1  24
TORSDOF 5
ENDMDL
MODEL 4
REMARK VINA RESULT:      -8.5      2.133      5.175
REMARK  5 active torsions:
REMARK  status: ('A' for Active; 'I' for Inactive)
REMARK    1  A    between atoms: C_3  and  N_4 
REMARK       I    between atoms: N_4  and  C_5 
REMARK    2  A    between atoms: C_5  and  C_6 
REMARK    3  A    between atoms: C_6  and  N_7 
REMARK    4  A    between atoms: C_6  and  C_16 
REMARK       I    between atoms: N_7  and  C_8 
REMARK    5  A    between atoms: C_8  and  C_9 
ROOT
HETATM    1  C   UNL     1       7.203  26.454  53.889  1.00  0.00     0.210 C 
ENDROOT
BRANCH   1   2
HETATM    2  C   UNL     1       6.918  25.005  54.404  1.00  0.00     0.249 C 
HETATM    3  N   UNL     1       8.031  24.181  54.427  1.00  0.00    -0.324 N 
HETATM    4  H   UNL     1       8.904  24.672  54.234  1.00  0.00     0.169 HD
HETATM    5  O   UNL     1       5.824  24.742  54.904  1.00  0.00    -0.270 OA
BRANCH   3   6
HETATM    6  C   UNL     1       8.167  22.918  55.055  1.00  0.00     0.046 A 
HETATM    7  C   UNL     1       8.392  22.733  56.436  1.00  0.00    -0.035 A 
HETATM    8  C   UNL     1       8.411  23.837  57.457  1.00  0.00     0.050 C 
HETATM    9  C   UNL     1       8.569  21.427  56.935  1.00  0.00     0.009 A 
HETATM   10  C   UNL     1       8.463  20.315  56.108  1.00  0.00     0.001 A 
HETATM   11  C   UNL     1       8.177  20.487  54.763  1.00  0.00     0.009 A 
HETATM   12  C   UNL     1       8.030  21.775  54.221  1.00  0.00    -0.035 A 
HETATM   13  C   UNL     1       7.747  21.878  52.742  1.00  0.00     0.050 C 
ENDBRANCH   3   6
ENDBRANCH   1   2
BRANCH   1  14
HETATM   14  N   UNL     1       7.210  27.464  54.945  1.00  0.00    -0.338 N 
HETATM   15  C   UNL     1       8.107  28.492  55.089  1.00  0.00     0.273 C 
HETATM   16  O   UNL     1       8.976  28.753  54.262  1.00  0.00    -0.266 OA
HETATM   17  H   UNL     1       6.583  27.340  55.735  1.00  0.00     0.164 HD
BRANCH  15  18
HETATM   18  C   UNL     1       7.934  29.244  56.340  1.00  0.00     0.145 A 
HETATM   19  N   UNL     1       6.807  29.940  56.602  1.00  0.00    -0.170 NA
HETATM   20  N   UNL     1       7.024  30.465  57.822  1.00  0.00    -0.289 N 
HETATM   21  H   UNL     1       6.296  31.039  58.237  1.00  0.00     0.188 HD
HETATM   22  C   UNL     1       8.236  30.137  58.349  1.00  0.00     0.112 A 
HETATM   23  C   UNL     1       8.854  29.343  57.414  1.00  0.00     0.058 A 
ENDBRANCH  15  18
ENDBRANCH   1  14
BRANCH   1  24
HETATM   24  C   UNL     1       6.382  26.806  52.645  1.00  0.00    -0.026 A 
HETATM   25  C   UNL     1       6.015  25.854  51.681  1.00  0.00     0.010 A 
HETATM   26  C   UNL     1       5.261  26.215  50.558  1.00  0.00     0.001 A 
HETATM   27  C   UNL     1       4.835  27.529  50.393  1.00  0.00     0.000 A 
HETATM   28  C   UNL     1       5.150  28.481  51.355  1.00  0.00     0.001 A 
HETATM   29  C   UNL     1       5.907  28.121  52.473  1.00  0.00     0.010 A 
ENDBRANCH   1  24
TORSDOF 5
ENDMDL
MODEL 5
REMARK VINA RESULT:      -8.3      2.233      4.964
REMARK  5 active torsions:
REMARK  status: ('A' for Active; 'I' for Inactive)
REMARK    1  A    between atoms: C_3  and  N_4 
REMARK       I    between atoms: N_4  and  C_5 
REMARK    2  A    between atoms: C_5  and  C_6 
REMARK    3  A    between atoms: C_6  and  N_7 
REMARK    4  A    between atoms: C_6  and  C_16 
REMARK       I    between atoms: N_7  and  C_8 
REMARK    5  A    between atoms: C_8  and  C_9 
ROOT
HETATM    1  C   UNL     1       6.214  26.928  53.433  1.00  0.00     0.210 C 
ENDROOT
BRANCH   1   2
HETATM    2  C   UNL     1       6.252  25.432  53.887  1.00  0.00     0.249 C 
HETATM    3  N   UNL     1       7.500  24.994  54.297  1.00  0.00    -0.324 N 
HETATM    4  H   UNL     1       8.188  25.743  54.372  1.00  0.00     0.169 HD
HETATM    5  O   UNL     1       5.197  24.811  54.021  1.00  0.00    -0.270 OA
BRANCH   3   6
HETATM    6  C   UNL     1       7.821  23.798  54.984  1.00  0.00     0.046 A 
HETATM    7  C   UNL     1       7.932  22.531  54.373  1.00  0.00    -0.035 A 
HETATM    8  C   UNL     1       7.834  22.280  52.893  1.00  0.00     0.050 C 
HETATM    9  C   UNL     1       8.199  21.402  55.174  1.00  0.00     0.009 A 
HETATM   10  C   UNL     1       8.420  21.520  56.541  1.00  0.00     0.001 A 
HETATM   11  C   UNL     1       8.379  22.771  57.136  1.00  0.00     0.009 A 
HETATM   12  C   UNL     1       8.079  23.915  56.378  1.00  0.00    -0.035 A 
HETATM   13  C   UNL     1       8.025  25.236  57.105  1.00  0.00     0.050 C 
ENDBRANCH   3   6
ENDBRANCH   1   2
BRANCH   1  14
HETATM   14  N   UNL     1       5.839  27.858  54.495  1.00  0.00    -0.338 N 
HETATM   15  C   UNL     1       6.687  28.479  55.377  1.00  0.00     0.273 C 
HETATM   16  O   UNL     1       7.910  28.405  55.306  1.00  0.00    -0.266 OA
HETATM   17  H   UNL     1       4.852  27.971  54.713  1.00  0.00     0.164 HD
BRANCH  15  18
HETATM   18  C   UNL     1       5.986  29.234  56.425  1.00  0.00     0.145 A 
HETATM   19  N   UNL     1       5.043  28.663  57.204  1.00  0.00    -0.170 NA
HETATM   20  N   UNL     1       4.658  29.654  58.030  1.00  0.00    -0.289 N 
HETATM   21  H   UNL     1       3.942  29.455  58.722  1.00  0.00     0.188 HD
HETATM   22  C   UNL     1       5.311  30.829  57.814  1.00  0.00     0.112 A 
HETATM   23  C   UNL     1       6.183  30.593  56.778  1.00  0.00     0.058 A 
ENDBRANCH  15  18
ENDBRANCH   1  14
BRANCH   1  24
HETATM   24  C   UNL     1       5.480  27.119  52.102  1.00  0.00    -0.026 A 
HETATM   25  C   UNL     1       5.564  26.195  51.047  1.00  0.00     0.010 A 
HETATM   26  C   UNL     1       4.876  26.404  49.847  1.00  0.00     0.001 A 
HETATM   27  C   UNL     1       4.067  27.525  49.688  1.00  0.00     0.000 A 
HETATM   28  C   UNL     1       3.934  28.432  50.733  1.00  0.00     0.001 A 
HETATM   29  C   UNL     1       4.625  28.226  51.929  1.00  0.00     0.010 A 
ENDBRANCH   1  24
TORSDOF 5
ENDMDL
MODEL 6
REMARK VINA RESULT:      -8.2      1.936      5.256
REMARK  5 active torsions:
REMARK  status: ('A' for Active; 'I' for Inactive)
REMARK    1  A    between atoms: C_3  and  N_4 
REMARK       I    between atoms: N_4  and  C_5 
REMARK    2  A    between atoms: C_5  and  C_6 
REMARK    3  A    between atoms: C_6  and  N_7 
REMARK    4  A    between atoms: C_6  and  C_16 
REMARK       I    between atoms: N_7  and  C_8 
REMARK    5  A    between atoms: C_8  and  C_9 
ROOT
HETATM    1  C   UNL     1       6.961  26.240  53.387  1.00  0.00     0.210 C 
ENDROOT
BRANCH   1   2
HETATM    2  C   UNL     1       6.437  26.949  54.678  1.00  0.00     0.249 C 
HETATM    3  N   UNL     1       7.061  28.153  54.960  1.00  0.00    -0.324 N 
HETATM    4  H   UNL     1       7.679  28.473  54.215  1.00  0.00     0.169 HD
HETATM    5  O   UNL     1       5.432  26.516  55.243  1.00  0.00    -0.270 OA
BRANCH   3   6
HETATM    6  C   UNL     1       6.664  29.143  55.892  1.00  0.00     0.046 A 
HETATM    7  C   UNL     1       5.535  29.975  55.740  1.00  0.00    -0.035 A 
HETATM    8  C   UNL     1       4.530  29.863  54.627  1.00  0.00     0.050 C 
HETATM    9  C   UNL     1       5.276  30.966  56.710  1.00  0.00     0.009 A 
HETATM   10  C   UNL     1       6.070  31.096  57.843  1.00  0.00     0.001 A 
HETATM   11  C   UNL     1       7.141  30.237  58.030  1.00  0.00     0.009 A 
HETATM   12  C   UNL     1       7.454  29.261  57.069  1.00  0.00    -0.035 A 
HETATM   13  C   UNL     1       8.653  28.384  57.334  1.00  0.00     0.050 C 
ENDBRANCH   3   6
ENDBRANCH   1   2
BRANCH   1  14
HETATM   14  N   UNL     1       6.085  26.401  52.229  1.00  0.00    -0.338 N 
HETATM   15  C   UNL     1       5.739  27.581  51.622  1.00  0.00     0.273 C 
HETATM   16  O   UNL     1       6.222  28.667  51.927  1.00  0.00    -0.266 OA
HETATM   17  H   UNL     1       5.563  25.592  51.903  1.00  0.00     0.164 HD
BRANCH  15  18
HETATM   18  C   UNL     1       4.718  27.420  50.576  1.00  0.00     0.145 A 
HETATM   19  N   UNL     1       3.679  28.274  50.457  1.00  0.00    -0.170 NA
HETATM   20  N   UNL     1       2.992  27.808  49.399  1.00  0.00    -0.289 N 
HETATM   21  H   UNL     1       2.152  28.302  49.112  1.00  0.00     0.188 HD
HETATM   22  C   UNL     1       3.544  26.697  48.837  1.00  0.00     0.112 A 
HETATM   23  C   UNL     1       4.667  26.416  49.576  1.00  0.00     0.058 A 
ENDBRANCH  15  18
ENDBRANCH   1  14
BRANCH   1  24
HETATM   24  C   UNL     1       7.442  24.811  53.656  1.00  0.00    -0.026 A 
HETATM   25  C   UNL     1       7.468  23.818  52.663  1.00  0.00     0.010 A 
HETATM   26  C   UNL     1       7.917  22.523  52.948  1.00  0.00     0.001 A 
HETATM   27  C   UNL     1       8.376  22.205  54.222  1.00  0.00     0.000 A 
HETATM   28  C   UNL     1       8.399  23.182  55.210  1.00  0.00     0.001 A 
HETATM   29  C   UNL     1       7.946  24.472  54.927  1.00  0.00     0.010 A 
ENDBRANCH   1  24
TORSDOF 5
ENDMDL
MODEL 7
REMARK VINA RESULT:      -8.1      2.129      6.593
REMARK  5 active torsions:
REMARK  status: ('A' for Active; 'I' for Inactive)
REMARK    1  A    between atoms: C_3  and  N_4 
REMARK       I    between atoms: N_4  and  C_5 
REMARK    2  A    between atoms: C_5  and  C_6 
REMARK    3  A    between atoms: C_6  and  N_7 
REMARK    4  A    between atoms: C_6  and  C_16 
REMARK       I    between atoms: N_7  and  C_8 
REMARK    5  A    between atoms: C_8  and  C_9 
ROOT
HETATM    1  C   UNL     1       6.750  25.552  55.458  1.00  0.00     0.210 C 
ENDROOT
BRANCH   1   2
HETATM    2  C   UNL     1       5.562  25.971  54.531  1.00  0.00     0.249 C 
HETATM    3  N   UNL     1       5.716  27.212  53.936  1.00  0.00    -0.324 N 
HETATM    4  H   UNL     1       6.641  27.618  54.078  1.00  0.00     0.169 HD
HETATM    5  O   UNL     1       4.689  25.149  54.253  1.00  0.00    -0.270 OA
BRANCH   3   6
HETATM    6  C   UNL     1       4.961  27.769  52.875  1.00  0.00     0.046 A 
HETATM    7  C   UNL     1       4.988  27.299  51.544  1.00  0.00    -0.035 A 
HETATM    8  C   UNL     1       5.733  26.079  51.080  1.00  0.00     0.050 C 
HETATM    9  C   UNL     1       4.235  27.975  50.562  1.00  0.00     0.009 A 
HETATM   10  C   UNL     1       3.417  29.051  50.888  1.00  0.00     0.001 A 
HETATM   11  C   UNL     1       3.336  29.474  52.205  1.00  0.00     0.009 A 
HETATM   12  C   UNL     1       4.099  28.851  53.206  1.00  0.00    -0.035 A 
HETATM   13  C   UNL     1       3.976  29.389  54.611  1.00  0.00     0.050 C 
ENDBRANCH   3   6
ENDBRANCH   1   2
BRANCH   1  14
HETATM   14  N   UNL     1       7.555  26.676  55.930  1.00  0.00    -0.338 N 
HETATM   15  C   UNL     1       7.940  26.920  57.224  1.00  0.00     0.273 C 
HETATM   16  O   UNL     1       7.735  26.141  58.150  1.00  0.00    -0.266 OA
HETATM   17  H   UNL     1       7.749  27.436  55.284  1.00  0.00     0.164 HD
BRANCH  15  18
HETATM   18  C   UNL     1       8.613  28.216  57.396  1.00  0.00     0.145 A 
HETATM   19  N   UNL     1       8.301  29.052  58.409  1.00  0.00    -0.170 NA
HETATM   20  N   UNL     1       9.126  30.100  58.234  1.00  0.00    -0.289 N 
HETATM   21  H   UNL     1       9.074  30.872  58.892  1.00  0.00     0.188 HD
HETATM   22  C   UNL     1       9.950  29.972  57.157  1.00  0.00     0.112 A 
HETATM   23  C   UNL     1       9.645  28.758  56.589  1.00  0.00     0.058 A 
ENDBRANCH  15  18
ENDBRANCH   1  14
BRANCH   1  24
HETATM   24  C   UNL     1       7.541  24.366  54.897  1.00  0.00    -0.026 A 
HETATM   25  C   UNL     1       8.208  23.441  55.717  1.00  0.00     0.010 A 
HETATM   26  C   UNL     1       8.919  22.368  55.166  1.00  0.00     0.001 A 
HETATM   27  C   UNL     1       8.951  22.182  53.788  1.00  0.00     0.000 A 
HETATM   28  C   UNL     1       8.264  23.060  52.958  1.00  0.00     0.001 A 
HETATM   29  C   UNL     1       7.560  24.134  53.508  1.00  0.00     0.010 A 
ENDBRANCH   1  24
TORSDOF 5
ENDMDL
MODEL 8
REMARK VINA RESULT:      -8.1      2.352      5.491
REMARK  5 active torsions:
REMARK  status: ('A' for Active; 'I' for Inactive)
REMARK    1  A    between atoms: C_3  and  N_4 
REMARK       I    between atoms: N_4  and  C_5 
REMARK    2  A    between atoms: C_5  and  C_6 
REMARK    3  A    between atoms: C_6  and  N_7 
REMARK    4  A    between atoms: C_6  and  C_16 
REMARK       I    between atoms: N_7  and  C_8 
REMARK    5  A    between atoms: C_8  and  C_9 
ROOT
HETATM    1  C   UNL     1       6.480  28.024  54.747  1.00  0.00     0.210 C 
ENDROOT
BRANCH   1   2
HETATM    2  C   UNL     1       6.407  26.480  54.986  1.00  0.00     0.249 C 
HETATM    3  N   UNL     1       7.552  25.793  54.619  1.00  0.00    -0.324 N 
HETATM    4  H   UNL     1       8.330  26.404  54.371  1.00  0.00     0.169 HD
HETATM    5  O   UNL     1       5.461  26.008  55.618  1.00  0.00    -0.270 OA
BRANCH   3   6
HETATM    6  C   UNL     1       7.900  24.454  54.925  1.00  0.00     0.046 A 
HETATM    7  C   UNL     1       8.352  24.016  56.188  1.00  0.00    -0.035 A 
HETATM    8  C   UNL     1       8.427  24.877  57.419  1.00  0.00     0.050 C 
HETATM    9  C   UNL     1       8.725  22.666  56.354  1.00  0.00     0.009 A 
HETATM   10  C   UNL     1       8.596  21.746  55.320  1.00  0.00     0.001 A 
HETATM   11  C   UNL     1       8.090  22.158  54.097  1.00  0.00     0.009 A 
HETATM   12  C   UNL     1       7.742  23.502  53.881  1.00  0.00    -0.035 A 
HETATM   13  C   UNL     1       7.225  23.874  52.513  1.00  0.00     0.050 C 
ENDBRANCH   3   6
ENDBRANCH   1   2
BRANCH   1  14
HETATM   14  N   UNL     1       6.669  28.801  55.970  1.00  0.00    -0.338 N 
HETATM   15  C   UNL     1       7.845  29.342  56.423  1.00  0.00     0.273 C 
HETATM   16  O   UNL     1       8.891  29.323  55.781  1.00  0.00    -0.266 OA
HETATM   17  H   UNL     1       5.901  28.849  56.634  1.00  0.00     0.164 HD
BRANCH  15  18
HETATM   18  C   UNL     1       7.734  29.936  57.763  1.00  0.00     0.145 A 
HETATM   19  N   UNL     1       8.358  29.399  58.834  1.00  0.00    -0.170 NA
HETATM   20  N   UNL     1       8.030  30.220  59.849  1.00  0.00    -0.289 N 
HETATM   21  H   UNL     1       8.394  30.013  60.774  1.00  0.00     0.188 HD
HETATM   22  C   UNL     1       7.227  31.254  59.475  1.00  0.00     0.112 A 
HETATM   23  C   UNL     1       7.015  31.102  58.126  1.00  0.00     0.058 A 
ENDBRANCH  15  18
ENDBRANCH   1  14
BRANCH   1  24
HETATM   24  C   UNL     1       5.377  28.526  53.811  1.00  0.00    -0.026 A 
HETATM   25  C   UNL     1       4.460  29.524  54.181  1.00  0.00     0.010 A 
HETATM   26  C   UNL     1       3.467  29.958  53.296  1.00  0.00     0.001 A 
HETATM   27  C   UNL     1       3.390  29.425  52.013  1.00  0.00     0.000 A 
HETATM   28  C   UNL     1       4.312  28.467  51.609  1.00  0.00     0.001 A 
HETATM   29  C   UNL     1       5.300  28.030  52.495  1.00  0.00     0.010 A 
ENDBRANCH   1  24
TORSDOF 5
ENDMDL
MODEL 9
REMARK VINA RESULT:      -7.9      2.960      6.098
REMARK  5 active torsions:
REMARK  status: ('A' for Active; 'I' for Inactive)
REMARK    1  A    between atoms: C_3  and  N_4 
REMARK       I    between atoms: N_4  and  C_5 
REMARK    2  A    between atoms: C_5  and  C_6 
REMARK    3  A    between atoms: C_6  and  N_7 
REMARK    4  A    between atoms: C_6  and  C_16 
REMARK       I    between atoms: N_7  and  C_8 
REMARK    5  A    between atoms: C_8  and  C_9 
ROOT
HETATM    1  C   UNL     1       6.335  26.743  51.886  1.00  0.00     0.210 C 
ENDROOT
BRANCH   1   2
HETATM    2  C   UNL     1       6.102  27.972  52.825  1.00  0.00     0.249 C 
HETATM    3  N   UNL     1       4.777  28.180  53.171  1.00  0.00    -0.324 N 
HETATM    4  H   UNL     1       4.158  27.425  52.876  1.00  0.00     0.169 HD
HETATM    5  O   UNL     1       7.070  28.548  53.324  1.00  0.00    -0.270 OA
BRANCH   3   6
HETATM    6  C   UNL     1       4.263  29.034  54.178  1.00  0.00     0.046 A 
HETATM    7  C   UNL     1       4.294  28.746  55.560  1.00  0.00    -0.035 A 
HETATM    8  C   UNL     1       4.969  27.550  56.173  1.00  0.00     0.050 C 
HETATM    9  C   UNL     1       3.697  29.649  56.463  1.00  0.00     0.009 A 
HETATM   10  C   UNL     1       3.137  30.845  56.028  1.00  0.00     0.001 A 
HETATM   11  C   UNL     1       3.164  31.163  54.679  1.00  0.00     0.009 A 
HETATM   12  C   UNL     1       3.717  30.273  53.744  1.00  0.00    -0.035 A 
HETATM   13  C   UNL     1       3.683  30.681  52.292  1.00  0.00     0.050 C 
ENDBRANCH   3   6
ENDBRANCH   1   2
BRANCH   1  14
HETATM   14  N   UNL     1       5.281  26.551  50.894  1.00  0.00    -0.338 N 
HETATM   15  C   UNL     1       5.012  27.359  49.818  1.00  0.00     0.273 C 
HETATM   16  O   UNL     1       5.714  28.312  49.495  1.00  0.00    -0.266 OA
HETATM   17  H   UNL     1       4.581  25.834  51.065  1.00  0.00     0.164 HD
BRANCH  15  18
HETATM   18  C   UNL     1       3.789  26.978  49.096  1.00  0.00     0.145 A 
HETATM   19  N   UNL     1       2.635  27.666  49.238  1.00  0.00    -0.170 NA
HETATM   20  N   UNL     1       1.774  27.030  48.422  1.00  0.00    -0.289 N 
HETATM   21  H   UNL     1       0.822  27.378  48.360  1.00  0.00     0.188 HD
HETATM   22  C   UNL     1       2.325  25.971  47.768  1.00  0.00     0.112 A 
HETATM   23  C   UNL     1       3.633  25.907  48.180  1.00  0.00     0.058 A 
ENDBRANCH  15  18
ENDBRANCH   1  14
BRANCH   1  24
HETATM   24  C   UNL     1       6.751  25.487  52.657  1.00  0.00    -0.026 A 
HETATM   25  C   UNL     1       6.206  25.145  53.906  1.00  0.00     0.010 A 
HETATM   26  C   UNL     1       6.611  23.986  54.578  1.00  0.00     0.001 A 
HETATM   27  C   UNL     1       7.546  23.131  54.002  1.00  0.00     0.000 A 
HETATM   28  C   UNL     1       8.069  23.427  52.749  1.00  0.00     0.001 A 
HETATM   29  C   UNL     1       7.669  24.586  52.081  1.00  0.00     0.010 A 
ENDBRANCH   1  24
TORSDOF 5
ENDMDL
MODEL 10
REMARK VINA RESULT:      -7.9      9.284     11.608
REMARK  5 active torsions:
REMARK  status: ('A' for Active; 'I' for Inactive)
REMARK    1  A    between atoms: C_3  and  N_4 
REMARK       I    between atoms: N_4  and  C_5 
REMARK    2  A    between atoms: C_5  and  C_6 
REMARK    3  A    between atoms: C_6  and  N_7 
REMARK    4  A    between atoms: C_6  and  C_16 
REMARK       I    between atoms: N_7  and  C_8 
REMARK    5  A    between atoms: C_8  and  C_9 
ROOT
HETATM    1  C   UNL     1       3.546  34.345  63.255  1.00  0.00     0.210 C 
ENDROOT
BRANCH   1   2
HETATM    2  C   UNL     1       4.383  33.187  62.620  1.00  0.00     0.249 C 
HETATM    3  N   UNL     1       5.649  33.563  62.201  1.00  0.00    -0.324 N 
HETATM    4  H   UNL     1       5.907  34.507  62.488  1.00  0.00     0.169 HD
HETATM    5  O   UNL     1       3.967  32.030  62.687  1.00  0.00    -0.270 OA
BRANCH   3   6
HETATM    6  C   UNL     1       6.725  32.724  61.820  1.00  0.00     0.046 A 
HETATM    7  C   UNL     1       6.864  32.134  60.546  1.00  0.00    -0.035 A 
HETATM    8  C   UNL     1       5.955  32.392  59.377  1.00  0.00     0.050 C 
HETATM    9  C   UNL     1       7.951  31.269  60.304  1.00  0.00     0.009 A 
HETATM   10  C   UNL     1       8.922  31.038  61.272  1.00  0.00     0.001 A 
HETATM   11  C   UNL     1       8.826  31.667  62.503  1.00  0.00     0.009 A 
HETATM   12  C   UNL     1       7.738  32.508  62.794  1.00  0.00    -0.035 A 
HETATM   13  C   UNL     1       7.692  33.133  64.167  1.00  0.00     0.050 C 
ENDBRANCH   3   6
ENDBRANCH   1   2
BRANCH   1  14
HETATM   14  N   UNL     1       3.290  35.456  62.342  1.00  0.00    -0.338 N 
HETATM   15  C   UNL     1       2.382  35.479  61.314  1.00  0.00     0.273 C 
HETATM   16  O   UNL     1       1.579  34.575  61.100  1.00  0.00    -0.266 OA
HETATM   17  H   UNL     1       3.922  36.252  62.361  1.00  0.00     0.164 HD
BRANCH  15  18
HETATM   18  C   UNL     1       2.473  36.688  60.483  1.00  0.00     0.145 A 
HETATM   19  N   UNL     1       1.572  36.956  59.513  1.00  0.00    -0.170 NA
HETATM   20  N   UNL     1       1.982  38.131  59.002  1.00  0.00    -0.289 N 
HETATM   21  H   UNL     1       1.446  38.541  58.244  1.00  0.00     0.188 HD
HETATM   22  C   UNL     1       3.101  38.625  59.600  1.00  0.00     0.112 A 
HETATM   23  C   UNL     1       3.448  37.714  60.568  1.00  0.00     0.058 A 
ENDBRANCH  15  18
ENDBRANCH   1  14
BRANCH   1  24
HETATM   24  C   UNL     1       4.051  34.739  64.647  1.00  0.00    -0.026 A 
HETATM   25  C   UNL     1       4.097  36.071  65.090  1.00  0.00     0.010 A 
HETATM   26  C   UNL     1       4.563  36.390  66.371  1.00  0.00     0.001 A 
HETATM   27  C   UNL     1       4.963  35.383  67.243  1.00  0.00     0.000 A 
HETATM   28  C   UNL     1       4.887  34.054  66.842  1.00  0.00     0.001 A 
HETATM   29  C   UNL     1       4.427  33.736  65.562  1.00  0.00     0.010 A 
ENDBRANCH   1  24
TORSDOF 5
ENDMDL
