MODEL 1
REMARK VINA RESULT:      -9.7      0.000      0.000
REMARK  8 active torsions:
REMARK  status: ('A' for Active; 'I' for Inactive)
REMARK    1  A    between atoms: C_3  and  N_4 
REMARK       I    between atoms: N_4  and  C_5 
REMARK    2  A    between atoms: C_5  and  C_6 
REMARK    3  A    between atoms: C_7  and  C_8 
REMARK    4  A    between atoms: C_11  and  C_12 
REMARK    5  A    between atoms: C_21  and  C_22 
REMARK    6  A    between atoms: C_22  and  C_23 
REMARK    7  A    between atoms: C_23  and  C_24 
REMARK    8  A    between atoms: C_24  and  O_25 
ROOT
HETATM    1  C   UNL     1       5.521  28.214  53.421  1.00  0.00     0.062 A 
HETATM    2  C   UNL     1       6.955  27.801  53.731  1.00  0.00     0.202 A 
HETATM    3  N   UNL     1       7.461  28.483  54.930  1.00  0.00    -0.083 N 
HETATM    4  C   UNL     1       6.755  29.428  55.626  1.00  0.00     0.726 A 
HETATM    5  N   UNL     1       5.508  29.746  55.234  1.00  0.00    -0.192 N 
HETATM    6  N   UNL     1       8.723  28.375  55.400  1.00  0.00    -0.140 NA
HETATM    7  C   UNL     1       8.672  29.208  56.450  1.00  0.00     0.166 A 
HETATM    8  N   UNL     1       7.487  29.886  56.607  1.00  0.00    -0.046 NA
HETATM    9  C   UNL     1       4.864  29.139  54.163  1.00  0.00     0.037 A 
HETATM   10  C   UNL     1       3.446  29.586  53.909  1.00  0.00     0.070 C 
HETATM   11  H   UNL     1       4.977  30.412  55.789  1.00  0.00     0.184 HD
ENDROOT
BRANCH   1  12
HETATM   12  C   UNL     1       4.810  27.470  52.351  1.00  0.00     0.256 C 
HETATM   13  N   UNL     1       4.780  28.148  51.151  1.00  0.00    -0.323 N 
HETATM   14  H   UNL     1       5.147  29.087  51.146  1.00  0.00     0.169 HD
HETATM   15  O   UNL     1       4.304  26.387  52.615  1.00  0.00    -0.267 OA
BRANCH  13  16
HETATM   16  C   UNL     1       4.236  27.690  49.924  1.00  0.00     0.041 A 
HETATM   17  C   UNL     1       2.964  28.155  49.523  1.00  0.00    -0.035 A 
HETATM   18  C   UNL     1       2.158  29.124  50.347  1.00  0.00     0.050 C 
HETATM   19  C   UNL     1       2.422  27.716  48.301  1.00  0.00     0.009 A 
HETATM   20  C   UNL     1       3.118  26.828  47.485  1.00  0.00     0.001 A 
HETATM   21  C   UNL     1       4.370  26.373  47.878  1.00  0.00     0.002 A 
HETATM   22  C   UNL     1       4.923  26.803  49.085  1.00  0.00     0.030 A 
ENDBRANCH  13  16
ENDBRANCH   1  12
BRANCH   2  23
HETATM   23  C   UNL     1       7.148  26.295  53.837  1.00  0.00    -0.028 A 
HETATM   24  C   UNL     1       6.715  25.615  54.985  1.00  0.00     0.010 A 
HETATM   25  C   UNL     1       6.934  24.244  55.129  1.00  0.00     0.008 A 
HETATM   26  C   UNL     1       7.589  23.514  54.129  1.00  0.00    -0.055 A 
HETATM   27  C   UNL     1       8.006  24.188  52.973  1.00  0.00     0.008 A 
HETATM   28  C   UNL     1       7.786  25.561  52.825  1.00  0.00     0.010 A 
BRANCH  26  29
HETATM   29  C   UNL     1       7.848  22.031  54.326  1.00  0.00     0.010 C 
HETATM   30  C   UNL     1       7.987  21.292  52.994  1.00  0.00     0.015 C 
HETATM   31  C   UNL     1       9.074  21.797  55.213  1.00  0.00     0.015 C 
ENDBRANCH  26  29
ENDBRANCH   2  23
BRANCH   7  32
HETATM   32  C   UNL     1       9.811  29.389  57.386  1.00  0.00     0.085 C 
BRANCH  32  33
HETATM   33  C   UNL     1       9.842  30.773  58.030  1.00  0.00     0.034 C 
BRANCH  33  34
HETATM   34  C   UNL     1       9.348  30.772  59.472  1.00  0.00     0.164 C 
BRANCH  34  35
HETATM   35  O   UNL     1       8.392  29.730  59.646  1.00  0.00    -0.401 OA
HETATM   36  H   UNL     1       8.081  29.767  60.565  1.00  0.00     0.209 HD
ENDBRANCH  34  35
ENDBRANCH  33  34
ENDBRANCH  32  33
ENDBRANCH   7  32
TORSDOF 8
ENDMDL
MODEL 2
REMARK VINA RESULT:      -9.3      1.993      7.434
REMARK  8 active torsions:
REMARK  status: ('A' for Active; 'I' for Inactive)
REMARK    1  A    between atoms: C_3  and  N_4 
REMARK       I    between atoms: N_4  and  C_5 
REMARK    2  A    between atoms: C_5  and  C_6 
REMARK    3  A    between atoms: C_7  and  C_8 
REMARK    4  A    between atoms: C_11  and  C_12 
REMARK    5  A    between atoms: C_21  and  C_22 
REMARK    6  A    between atoms: C_22  and  C_23 
REMARK    7  A    between atoms: C_23  and  C_24 
REMARK    8  A    between atoms: C_24  and  O_25 
ROOT
HETATM    1  C   UNL     1       4.595  28.541  52.799  1.00  0.00     0.062 A 
HETATM    2  C   UNL     1       4.428  27.183  52.125  1.00  0.00     0.202 A 
HETATM    3  N   UNL     1       4.387  27.313  50.662  1.00  0.00    -0.083 N 
HETATM    4  C   UNL     1       4.413  28.512  50.001  1.00  0.00     0.726 A 
HETATM    5  N   UNL     1       4.519  29.655  50.704  1.00  0.00    -0.192 N 
HETATM    6  N   UNL     1       4.169  26.290  49.807  1.00  0.00    -0.140 NA
HETATM    7  C   UNL     1       4.184  26.938  48.632  1.00  0.00     0.166 A 
HETATM    8  N   UNL     1       4.311  28.305  48.715  1.00  0.00    -0.046 NA
HETATM    9  C   UNL     1       4.639  29.693  52.087  1.00  0.00     0.037 A 
HETATM   10  C   UNL     1       4.806  31.065  52.694  1.00  0.00     0.070 C 
HETATM   11  H   UNL     1       4.589  30.534  50.198  1.00  0.00     0.184 HD
ENDROOT
BRANCH   1  12
HETATM   12  C   UNL     1       4.842  28.553  54.262  1.00  0.00     0.256 C 
HETATM   13  N   UNL     1       6.120  28.953  54.590  1.00  0.00    -0.323 N 
HETATM   14  H   UNL     1       6.764  29.100  53.828  1.00  0.00     0.169 HD
HETATM   15  O   UNL     1       3.950  28.194  55.019  1.00  0.00    -0.267 OA
BRANCH  13  16
HETATM   16  C   UNL     1       6.652  29.130  55.893  1.00  0.00     0.041 A 
HETATM   17  C   UNL     1       7.390  28.077  56.479  1.00  0.00    -0.035 A 
HETATM   18  C   UNL     1       7.638  26.770  55.775  1.00  0.00     0.050 C 
HETATM   19  C   UNL     1       7.933  28.248  57.767  1.00  0.00     0.009 A 
HETATM   20  C   UNL     1       7.750  29.435  58.470  1.00  0.00     0.001 A 
HETATM   21  C   UNL     1       7.027  30.471  57.893  1.00  0.00     0.002 A 
HETATM   22  C   UNL     1       6.486  30.319  56.614  1.00  0.00     0.030 A 
ENDBRANCH  13  16
ENDBRANCH   1  12
BRANCH   2  23
HETATM   23  C   UNL     1       5.468  26.157  52.554  1.00  0.00    -0.028 A 
HETATM   24  C   UNL     1       6.777  26.240  52.055  1.00  0.00     0.010 A 
HETATM   25  C   UNL     1       7.731  25.276  52.388  1.00  0.00     0.008 A 
HETATM   26  C   UNL     1       7.404  24.206  53.231  1.00  0.00    -0.055 A 
HETATM   27  C   UNL     1       6.101  24.132  53.744  1.00  0.00     0.008 A 
HETATM   28  C   UNL     1       5.145  25.096  53.414  1.00  0.00     0.010 A 
BRANCH  26  29
HETATM   29  C   UNL     1       8.449  23.151  53.547  1.00  0.00     0.010 C 
HETATM   30  C   UNL     1       8.797  23.119  55.036  1.00  0.00     0.015 C 
HETATM   31  C   UNL     1       8.007  21.769  53.058  1.00  0.00     0.015 C 
ENDBRANCH  26  29
ENDBRANCH   2  23
BRANCH   7  32
HETATM   32  C   UNL     1       4.073  26.237  47.328  1.00  0.00     0.085 C 
BRANCH  32  33
HETATM   33  C   UNL     1       2.674  25.685  47.062  1.00  0.00     0.034 C 
BRANCH  33  34
HETATM   34  C   UNL     1       1.614  26.774  46.950  1.00  0.00     0.164 C 
BRANCH  34  35
HETATM   35  O   UNL     1       0.760  26.727  48.090  1.00  0.00    -0.401 OA
HETATM   36  H   UNL     1       0.894  25.868  48.522  1.00  0.00     0.209 HD
ENDBRANCH  34  35
ENDBRANCH  33  34
ENDBRANCH  32  33
ENDBRANCH   7  32
TORSDOF 8
ENDMDL
MODEL 3
REMARK VINA RESULT:      -9.1      2.743      7.037
REMARK  8 active torsions:
REMARK  status: ('A' for Active; 'I' for Inactive)
REMARK    1  A    between atoms: C_3  and  N_4 
REMARK       I    between atoms: N_4  and  C_5 
REMARK    2  A    between atoms: C_5  and  C_6 
REMARK    3  A    between atoms: C_7  and  C_8 
REMARK    4  A    between atoms: C_11  and  C_12 
REMARK    5  A    between atoms: C_21  and  C_22 
REMARK    6  A    between atoms: C_22  and  C_23 
REMARK    7  A    between atoms: C_23  and  C_24 
REMARK    8  A    between atoms: C_24  and  O_25 
ROOT
HETATM    1  C   UNL     1       4.662  27.854  54.430  1.00  0.00     0.062 A 
HETATM    2  C   UNL     1       5.654  26.884  55.063  1.00  0.00     0.202 A 
HETATM    3  N   UNL     1       6.127  25.892  54.088  1.00  0.00    -0.083 N 
HETATM    4  C   UNL     1       5.668  25.807  52.800  1.00  0.00     0.726 A 
HETATM    5  N   UNL     1       4.756  26.694  52.362  1.00  0.00    -0.192 N 
HETATM    6  N   UNL     1       6.950  24.860  54.380  1.00  0.00    -0.140 NA
HETATM    7  C   UNL     1       7.027  24.254  53.186  1.00  0.00     0.166 A 
HETATM    8  N   UNL     1       6.238  24.796  52.199  1.00  0.00    -0.046 NA
HETATM    9  C   UNL     1       4.264  27.733  53.140  1.00  0.00     0.037 A 
HETATM   10  C   UNL     1       3.291  28.662  52.458  1.00  0.00     0.070 C 
HETATM   11  H   UNL     1       4.463  26.651  51.390  1.00  0.00     0.184 HD
ENDROOT
BRANCH   1  12
HETATM   12  C   UNL     1       4.241  29.026  55.238  1.00  0.00     0.256 C 
HETATM   13  N   UNL     1       4.770  30.215  54.782  1.00  0.00    -0.323 N 
HETATM   14  H   UNL     1       5.441  30.159  54.031  1.00  0.00     0.169 HD
HETATM   15  O   UNL     1       3.523  28.849  56.214  1.00  0.00    -0.267 OA
BRANCH  13  16
HETATM   16  C   UNL     1       4.517  31.514  55.290  1.00  0.00     0.041 A 
HETATM   17  C   UNL     1       5.107  31.897  56.516  1.00  0.00    -0.035 A 
HETATM   18  C   UNL     1       6.000  30.979  57.307  1.00  0.00     0.050 C 
HETATM   19  C   UNL     1       4.872  33.189  57.022  1.00  0.00     0.009 A 
HETATM   20  C   UNL     1       4.063  34.091  56.336  1.00  0.00     0.001 A 
HETATM   21  C   UNL     1       3.485  33.716  55.130  1.00  0.00     0.002 A 
HETATM   22  C   UNL     1       3.714  32.439  54.612  1.00  0.00     0.030 A 
ENDBRANCH  13  16
ENDBRANCH   1  12
BRANCH   2  23
HETATM   23  C   UNL     1       6.823  27.570  55.755  1.00  0.00    -0.028 A 
HETATM   24  C   UNL     1       7.007  27.409  57.137  1.00  0.00     0.010 A 
HETATM   25  C   UNL     1       8.038  28.075  57.803  1.00  0.00     0.008 A 
HETATM   26  C   UNL     1       8.913  28.918  57.107  1.00  0.00    -0.055 A 
HETATM   27  C   UNL     1       8.741  29.067  55.724  1.00  0.00     0.008 A 
HETATM   28  C   UNL     1       7.711  28.399  55.054  1.00  0.00     0.010 A 
BRANCH  26  29
HETATM   29  C   UNL     1      10.001  29.661  57.861  1.00  0.00     0.010 C 
HETATM   30  C   UNL     1      11.278  29.805  57.030  1.00  0.00     0.015 C 
HETATM   31  C   UNL     1       9.507  31.026  58.346  1.00  0.00     0.015 C 
ENDBRANCH  26  29
ENDBRANCH   2  23
BRANCH   7  32
HETATM   32  C   UNL     1       7.902  23.081  52.937  1.00  0.00     0.085 C 
BRANCH  32  33
HETATM   33  C   UNL     1       7.752  21.988  53.992  1.00  0.00     0.034 C 
BRANCH  33  34
HETATM   34  C   UNL     1       8.605  20.758  53.703  1.00  0.00     0.164 C 
BRANCH  34  35
HETATM   35  O   UNL     1       8.076  20.067  52.574  1.00  0.00    -0.401 OA
HETATM   36  H   UNL     1       8.611  19.267  52.443  1.00  0.00     0.209 HD
ENDBRANCH  34  35
ENDBRANCH  33  34
ENDBRANCH  32  33
ENDBRANCH   7  32
TORSDOF 8
ENDMDL
MODEL 4
REMARK VINA RESULT:      -9.0      2.577      6.461
REMARK  8 active torsions:
REMARK  status: ('A' for Active; 'I' for Inactive)
REMARK    1  A    between atoms: C_3  and  N_4 
REMARK       I    between atoms: N_4  and  C_5 
REMARK    2  A    between atoms: C_5  and  C_6 
REMARK    3  A    between atoms: C_7  and  C_8 
REMARK    4  A    between atoms: C_11  and  C_12 
REMARK    5  A    between atoms: C_21  and  C_22 
REMARK    6  A    between atoms: C_22  and  C_23 
REMARK    7  A    between atoms: C_23  and  C_24 
REMARK    8  A    between atoms: C_24  and  O_25 
ROOT
HETATM    1  C   UNL     1       6.846  26.096  55.567  1.00  0.00     0.062 A 
HETATM    2  C   UNL     1       5.502  26.665  55.129  1.00  0.00     0.202 A 
HETATM    3  N   UNL     1       5.126  27.833  55.938  1.00  0.00    -0.083 N 
HETATM    4  C   UNL     1       5.857  28.293  57.000  1.00  0.00     0.726 A 
HETATM    5  N   UNL     1       7.012  27.683  57.324  1.00  0.00    -0.192 N 
HETATM    6  N   UNL     1       3.952  28.495  55.831  1.00  0.00    -0.140 NA
HETATM    7  C   UNL     1       4.095  29.415  56.796  1.00  0.00     0.166 A 
HETATM    8  N   UNL     1       5.242  29.309  57.547  1.00  0.00    -0.046 NA
HETATM    9  C   UNL     1       7.537  26.612  56.613  1.00  0.00     0.037 A 
HETATM   10  C   UNL     1       8.871  26.097  57.092  1.00  0.00     0.070 C 
HETATM   11  H   UNL     1       7.570  28.067  58.082  1.00  0.00     0.184 HD
ENDROOT
BRANCH   1  12
HETATM   12  C   UNL     1       7.447  25.032  54.724  1.00  0.00     0.256 C 
HETATM   13  N   UNL     1       7.259  23.766  55.238  1.00  0.00    -0.323 N 
HETATM   14  H   UNL     1       6.831  23.700  56.149  1.00  0.00     0.169 HD
HETATM   15  O   UNL     1       8.059  25.349  53.712  1.00  0.00    -0.267 OA
BRANCH  13  16
HETATM   16  C   UNL     1       7.653  22.538  54.649  1.00  0.00     0.041 A 
HETATM   17  C   UNL     1       8.157  21.511  55.479  1.00  0.00    -0.035 A 
HETATM   18  C   UNL     1       8.292  21.668  56.970  1.00  0.00     0.050 C 
HETATM   19  C   UNL     1       8.538  20.284  54.905  1.00  0.00     0.009 A 
HETATM   20  C   UNL     1       8.431  20.070  53.534  1.00  0.00     0.001 A 
HETATM   21  C   UNL     1       7.933  21.077  52.718  1.00  0.00     0.002 A 
HETATM   22  C   UNL     1       7.545  22.299  53.273  1.00  0.00     0.030 A 
ENDBRANCH  13  16
ENDBRANCH   1  12
BRANCH   2  23
HETATM   23  C   UNL     1       5.428  26.983  53.643  1.00  0.00    -0.028 A 
HETATM   24  C   UNL     1       4.885  26.042  52.754  1.00  0.00     0.010 A 
HETATM   25  C   UNL     1       4.861  26.288  51.380  1.00  0.00     0.008 A 
HETATM   26  C   UNL     1       5.375  27.481  50.856  1.00  0.00    -0.055 A 
HETATM   27  C   UNL     1       5.901  28.430  51.745  1.00  0.00     0.008 A 
HETATM   28  C   UNL     1       5.925  28.187  53.121  1.00  0.00     0.010 A 
BRANCH  26  29
HETATM   29  C   UNL     1       5.371  27.708  49.355  1.00  0.00     0.010 C 
HETATM   30  C   UNL     1       4.586  26.624  48.615  1.00  0.00     0.015 C 
HETATM   31  C   UNL     1       4.843  29.102  49.007  1.00  0.00     0.015 C 
ENDBRANCH  26  29
ENDBRANCH   2  23
BRANCH   7  32
HETATM   32  C   UNL     1       3.091  30.480  57.043  1.00  0.00     0.085 C 
BRANCH  32  33
HETATM   33  C   UNL     1       3.683  31.718  57.713  1.00  0.00     0.034 C 
BRANCH  33  34
HETATM   34  C   UNL     1       3.538  31.702  59.230  1.00  0.00     0.164 C 
BRANCH  34  35
HETATM   35  O   UNL     1       3.077  30.421  59.651  1.00  0.00    -0.401 OA
HETATM   36  H   UNL     1       2.738  30.514  60.556  1.00  0.00     0.209 HD
ENDBRANCH  34  35
ENDBRANCH  33  34
ENDBRANCH  32  33
ENDBRANCH   7  32
TORSDOF 8
ENDMDL
MODEL 5
REMARK VINA RESULT:      -8.9      2.397      5.990
REMARK  8 active torsions:
REMARK  status: ('A' for Active; 'I' for Inactive)
REMARK    1  A    between atoms: C_3  and  N_4 
REMARK       I    between atoms: N_4  and  C_5 
REMARK    2  A    between atoms: C_5  and  C_6 
REMARK    3  A    between atoms: C_7  and  C_8 
REMARK    4  A    between atoms: C_11  and  C_12 
REMARK    5  A    between atoms: C_21  and  C_22 
REMARK    6  A    between atoms: C_22  and  C_23 
REMARK    7  A    between atoms: C_23  and  C_24 
REMARK    8  A    between atoms: C_24  and  O_25 
ROOT
HETATM    1  C   UNL     1       6.589  26.187  56.604  1.00  0.00     0.062 A 
HETATM    2  C   UNL     1       5.664  27.355  56.285  1.00  0.00     0.202 A 
HETATM    3  N   UNL     1       6.107  28.587  56.953  1.00  0.00    -0.083 N 
HETATM    4  C   UNL     1       7.170  28.647  57.815  1.00  0.00     0.726 A 
HETATM    5  N   UNL     1       7.892  27.538  58.056  1.00  0.00    -0.192 N 
HETATM    6  N   UNL     1       5.440  29.761  56.919  1.00  0.00    -0.140 NA
HETATM    7  C   UNL     1       6.224  30.517  57.703  1.00  0.00     0.166 A 
HETATM    8  N   UNL     1       7.283  29.862  58.285  1.00  0.00    -0.046 NA
HETATM    9  C   UNL     1       7.642  26.315  57.447  1.00  0.00     0.037 A 
HETATM   10  C   UNL     1       8.595  25.199  57.799  1.00  0.00     0.070 C 
HETATM   11  H   UNL     1       8.708  27.609  58.658  1.00  0.00     0.184 HD
ENDROOT
BRANCH   1  12
HETATM   12  C   UNL     1       6.380  24.923  55.853  1.00  0.00     0.256 C 
HETATM   13  N   UNL     1       7.556  24.363  55.401  1.00  0.00    -0.323 N 
HETATM   14  H   UNL     1       8.401  24.897  55.538  1.00  0.00     0.169 HD
HETATM   15  O   UNL     1       5.239  24.519  55.675  1.00  0.00    -0.267 OA
BRANCH  13  16
HETATM   16  C   UNL     1       7.707  23.135  54.709  1.00  0.00     0.041 A 
HETATM   17  C   UNL     1       7.856  23.154  53.304  1.00  0.00    -0.035 A 
HETATM   18  C   UNL     1       7.863  24.431  52.507  1.00  0.00     0.050 C 
HETATM   19  C   UNL     1       8.019  21.940  52.610  1.00  0.00     0.009 A 
HETATM   20  C   UNL     1       8.031  20.723  53.287  1.00  0.00     0.001 A 
HETATM   21  C   UNL     1       7.888  20.704  54.668  1.00  0.00     0.002 A 
HETATM   22  C   UNL     1       7.731  21.901  55.371  1.00  0.00     0.030 A 
ENDBRANCH  13  16
ENDBRANCH   1  12
BRANCH   2  23
HETATM   23  C   UNL     1       5.461  27.585  54.794  1.00  0.00    -0.028 A 
HETATM   24  C   UNL     1       4.162  27.629  54.266  1.00  0.00     0.010 A 
HETATM   25  C   UNL     1       3.954  27.781  52.893  1.00  0.00     0.008 A 
HETATM   26  C   UNL     1       5.037  27.895  52.012  1.00  0.00    -0.055 A 
HETATM   27  C   UNL     1       6.335  27.870  52.542  1.00  0.00     0.008 A 
HETATM   28  C   UNL     1       6.546  27.720  53.915  1.00  0.00     0.010 A 
BRANCH  26  29
HETATM   29  C   UNL     1       4.784  28.021  50.521  1.00  0.00     0.010 C 
HETATM   30  C   UNL     1       4.771  26.658  49.826  1.00  0.00     0.015 C 
HETATM   31  C   UNL     1       3.490  28.790  50.241  1.00  0.00     0.015 C 
ENDBRANCH  26  29
ENDBRANCH   2  23
BRANCH   7  32
HETATM   32  C   UNL     1       5.975  31.964  57.929  1.00  0.00     0.085 C 
BRANCH  32  33
HETATM   33  C   UNL     1       4.490  32.309  58.011  1.00  0.00     0.034 C 
BRANCH  33  34
HETATM   34  C   UNL     1       3.836  31.834  59.303  1.00  0.00     0.164 C 
BRANCH  34  35
HETATM   35  O   UNL     1       3.268  30.543  59.102  1.00  0.00    -0.401 OA
HETATM   36  H   UNL     1       3.338  30.335  58.155  1.00  0.00     0.209 HD
ENDBRANCH  34  35
ENDBRANCH  33  34
ENDBRANCH  32  33
ENDBRANCH   7  32
TORSDOF 8
ENDMDL
MODEL 6
REMARK VINA RESULT:      -8.7      2.629      6.612
REMARK  8 active torsions:
REMARK  status: ('A' for Active; 'I' for Inactive)
REMARK    1  A    between atoms: C_3  and  N_4 
REMARK       I    between atoms: N_4  and  C_5 
REMARK    2  A    between atoms: C_5  and  C_6 
REMARK    3  A    between atoms: C_7  and  C_8 
REMARK    4  A    between atoms: C_11  and  C_12 
REMARK    5  A    between atoms: C_21  and  C_22 
REMARK    6  A    between atoms: C_22  and  C_23 
REMARK    7  A    between atoms: C_23  and  C_24 
REMARK    8  A    between atoms: C_24  and  O_25 
ROOT
HETATM    1  C   UNL     1       5.637  26.880  53.265  1.00  0.00     0.062 A 
HETATM    2  C   UNL     1       6.090  26.404  54.640  1.00  0.00     0.202 A 
HETATM    3  N   UNL     1       6.623  25.035  54.583  1.00  0.00    -0.083 N 
HETATM    4  C   UNL     1       6.630  24.265  53.450  1.00  0.00     0.726 A 
HETATM    5  N   UNL     1       6.162  24.778  52.297  1.00  0.00    -0.192 N 
HETATM    6  N   UNL     1       7.025  24.322  55.658  1.00  0.00    -0.140 NA
HETATM    7  C   UNL     1       7.365  23.162  55.077  1.00  0.00     0.166 A 
HETATM    8  N   UNL     1       7.117  23.084  53.727  1.00  0.00    -0.046 NA
HETATM    9  C   UNL     1       5.692  26.079  52.174  1.00  0.00     0.037 A 
HETATM   10  C   UNL     1       5.262  26.493  50.788  1.00  0.00     0.070 C 
HETATM   11  H   UNL     1       6.221  24.214  51.454  1.00  0.00     0.184 HD
ENDROOT
BRANCH   1  12
HETATM   12  C   UNL     1       5.251  28.307  53.129  1.00  0.00     0.256 C 
HETATM   13  N   UNL     1       4.218  28.670  53.968  1.00  0.00    -0.323 N 
HETATM   14  H   UNL     1       3.782  27.934  54.502  1.00  0.00     0.169 HD
HETATM   15  O   UNL     1       5.826  29.003  52.302  1.00  0.00    -0.267 OA
BRANCH  13  16
HETATM   16  C   UNL     1       3.660  29.963  54.126  1.00  0.00     0.041 A 
HETATM   17  C   UNL     1       3.554  30.509  55.425  1.00  0.00    -0.035 A 
HETATM   18  C   UNL     1       4.015  29.772  56.653  1.00  0.00     0.050 C 
HETATM   19  C   UNL     1       3.013  31.798  55.591  1.00  0.00     0.009 A 
HETATM   20  C   UNL     1       2.576  32.539  54.495  1.00  0.00     0.001 A 
HETATM   21  C   UNL     1       2.682  32.003  53.219  1.00  0.00     0.002 A 
HETATM   22  C   UNL     1       3.222  30.728  53.037  1.00  0.00     0.030 A 
ENDBRANCH  13  16
ENDBRANCH   1  12
BRANCH   2  23
HETATM   23  C   UNL     1       7.075  27.345  55.319  1.00  0.00    -0.028 A 
HETATM   24  C   UNL     1       6.975  27.581  56.699  1.00  0.00     0.010 A 
HETATM   25  C   UNL     1       7.830  28.485  57.333  1.00  0.00     0.008 A 
HETATM   26  C   UNL     1       8.810  29.175  56.606  1.00  0.00    -0.055 A 
HETATM   27  C   UNL     1       8.922  28.926  55.231  1.00  0.00     0.008 A 
HETATM   28  C   UNL     1       8.068  28.020  54.594  1.00  0.00     0.010 A 
BRANCH  26  29
HETATM   29  C   UNL     1       9.701  30.181  57.312  1.00  0.00     0.010 C 
HETATM   30  C   UNL     1       9.313  30.358  58.781  1.00  0.00     0.015 C 
HETATM   31  C   UNL     1      11.178  29.801  57.178  1.00  0.00     0.015 C 
ENDBRANCH  26  29
ENDBRANCH   2  23
BRANCH   7  32
HETATM   32  C   UNL     1       7.969  22.034  55.831  1.00  0.00     0.085 C 
BRANCH  32  33
HETATM   33  C   UNL     1       7.645  20.669  55.229  1.00  0.00     0.034 C 
BRANCH  33  34
HETATM   34  C   UNL     1       8.689  20.196  54.225  1.00  0.00     0.164 C 
BRANCH  34  35
HETATM   35  O   UNL     1       8.091  20.071  52.938  1.00  0.00    -0.401 OA
HETATM   36  H   UNL     1       8.504  19.312  52.494  1.00  0.00     0.209 HD
ENDBRANCH  34  35
ENDBRANCH  33  34
ENDBRANCH  32  33
ENDBRANCH   7  32
TORSDOF 8
ENDMDL
MODEL 7
REMARK VINA RESULT:      -8.5      3.633      7.413
REMARK  8 active torsions:
REMARK  status: ('A' for Active; 'I' for Inactive)
REMARK    1  A    between atoms: C_3  and  N_4 
REMARK       I    between atoms: N_4  and  C_5 
REMARK    2  A    between atoms: C_5  and  C_6 
REMARK    3  A    between atoms: C_7  and  C_8 
REMARK    4  A    between atoms: C_11  and  C_12 
REMARK    5  A    between atoms: C_21  and  C_22 
REMARK    6  A    between atoms: C_22  and  C_23 
REMARK    7  A    between atoms: C_23  and  C_24 
REMARK    8  A    between atoms: C_24  and  O_25 
ROOT
HETATM    1  C   UNL     1       8.498  29.464  57.406  1.00  0.00     0.062 A 
HETATM    2  C   UNL     1       7.284  29.917  58.209  1.00  0.00     0.202 A 
HETATM    3  N   UNL     1       7.631  31.004  59.135  1.00  0.00    -0.083 N 
HETATM    4  C   UNL     1       8.901  31.485  59.307  1.00  0.00     0.726 A 
HETATM    5  N   UNL     1       9.907  30.978  58.571  1.00  0.00    -0.192 N 
HETATM    6  N   UNL     1       6.778  31.551  60.029  1.00  0.00    -0.140 NA
HETATM    7  C   UNL     1       7.584  32.436  60.635  1.00  0.00     0.166 A 
HETATM    8  N   UNL     1       8.897  32.409  60.231  1.00  0.00    -0.046 NA
HETATM    9  C   UNL     1       9.729  29.997  57.604  1.00  0.00     0.037 A 
HETATM   10  C   UNL     1      10.966  29.594  56.840  1.00  0.00     0.070 C 
HETATM   11  H   UNL     1      10.835  31.379  58.672  1.00  0.00     0.184 HD
ENDROOT
BRANCH   1  12
HETATM   12  C   UNL     1       8.267  28.504  56.298  1.00  0.00     0.256 C 
HETATM   13  N   UNL     1       7.855  27.263  56.736  1.00  0.00    -0.323 N 
HETATM   14  H   UNL     1       7.844  27.109  57.733  1.00  0.00     0.169 HD
HETATM   15  O   UNL     1       8.481  28.861  55.147  1.00  0.00    -0.267 OA
BRANCH  13  16
HETATM   16  C   UNL     1       7.494  26.150  55.935  1.00  0.00     0.041 A 
HETATM   17  C   UNL     1       8.043  24.883  56.236  1.00  0.00    -0.035 A 
HETATM   18  C   UNL     1       8.997  24.664  57.378  1.00  0.00     0.050 C 
HETATM   19  C   UNL     1       7.680  23.770  55.454  1.00  0.00     0.009 A 
HETATM   20  C   UNL     1       6.794  23.901  54.387  1.00  0.00     0.001 A 
HETATM   21  C   UNL     1       6.252  25.146  54.093  1.00  0.00     0.002 A 
HETATM   22  C   UNL     1       6.598  26.258  54.863  1.00  0.00     0.030 A 
ENDBRANCH  13  16
ENDBRANCH   1  12
BRANCH   2  23
HETATM   23  C   UNL     1       6.088  30.294  57.347  1.00  0.00    -0.028 A 
HETATM   24  C   UNL     1       6.091  31.506  56.640  1.00  0.00     0.010 A 
HETATM   25  C   UNL     1       4.981  31.899  55.890  1.00  0.00     0.008 A 
HETATM   26  C   UNL     1       3.839  31.091  55.823  1.00  0.00    -0.055 A 
HETATM   27  C   UNL     1       3.841  29.872  56.514  1.00  0.00     0.008 A 
HETATM   28  C   UNL     1       4.952  29.474  57.265  1.00  0.00     0.010 A 
BRANCH  26  29
HETATM   29  C   UNL     1       2.631  31.560  55.032  1.00  0.00     0.010 C 
HETATM   30  C   UNL     1       2.173  32.955  55.460  1.00  0.00     0.015 C 
HETATM   31  C   UNL     1       2.903  31.511  53.526  1.00  0.00     0.015 C 
ENDBRANCH  26  29
ENDBRANCH   2  23
BRANCH   7  32
HETATM   32  C   UNL     1       7.099  33.385  61.669  1.00  0.00     0.085 C 
BRANCH  32  33
HETATM   33  C   UNL     1       5.734  33.004  62.238  1.00  0.00     0.034 C 
BRANCH  33  34
HETATM   34  C   UNL     1       5.464  33.622  63.605  1.00  0.00     0.164 C 
BRANCH  34  35
HETATM   35  O   UNL     1       4.800  32.671  64.434  1.00  0.00    -0.401 OA
HETATM   36  H   UNL     1       3.882  32.969  64.545  1.00  0.00     0.209 HD
ENDBRANCH  34  35
ENDBRANCH  33  34
ENDBRANCH  32  33
ENDBRANCH   7  32
TORSDOF 8
ENDMDL
MODEL 8
REMARK VINA RESULT:      -8.4      2.364      7.774
REMARK  8 active torsions:
REMARK  status: ('A' for Active; 'I' for Inactive)
REMARK    1  A    between atoms: C_3  and  N_4 
REMARK       I    between atoms: N_4  and  C_5 
REMARK    2  A    between atoms: C_5  and  C_6 
REMARK    3  A    between atoms: C_7  and  C_8 
REMARK    4  A    between atoms: C_11  and  C_12 
REMARK    5  A    between atoms: C_21  and  C_22 
REMARK    6  A    between atoms: C_22  and  C_23 
REMARK    7  A    between atoms: C_23  and  C_24 
REMARK    8  A    between atoms: C_24  and  O_25 
ROOT
HETATM    1  C   UNL     1       4.504  30.461  55.218  1.00  0.00     0.062 A 
HETATM    2  C   UNL     1       4.262  29.090  54.598  1.00  0.00     0.202 A 
HETATM    3  N   UNL     1       4.157  29.175  53.135  1.00  0.00    -0.083 N 
HETATM    4  C   UNL     1       4.192  30.351  52.434  1.00  0.00     0.726 A 
HETATM    5  N   UNL     1       4.368  31.511  53.093  1.00  0.00    -0.192 N 
HETATM    6  N   UNL     1       3.866  28.133  52.325  1.00  0.00    -0.140 NA
HETATM    7  C   UNL     1       3.847  28.743  51.130  1.00  0.00     0.166 A 
HETATM    8  N   UNL     1       4.024  30.106  51.161  1.00  0.00    -0.046 NA
HETATM    9  C   UNL     1       4.553  31.589  54.467  1.00  0.00     0.037 A 
HETATM   10  C   UNL     1       4.792  32.972  55.020  1.00  0.00     0.070 C 
HETATM   11  H   UNL     1       4.443  32.370  52.556  1.00  0.00     0.184 HD
ENDROOT
BRANCH   1  12
HETATM   12  C   UNL     1       4.818  30.512  56.668  1.00  0.00     0.256 C 
HETATM   13  N   UNL     1       6.143  30.797  56.923  1.00  0.00    -0.323 N 
HETATM   14  H   UNL     1       6.762  30.848  56.128  1.00  0.00     0.169 HD
HETATM   15  O   UNL     1       3.932  30.274  57.478  1.00  0.00    -0.267 OA
BRANCH  13  16
HETATM   16  C   UNL     1       6.750  30.976  58.192  1.00  0.00     0.041 A 
HETATM   17  C   UNL     1       7.773  30.088  58.592  1.00  0.00    -0.035 A 
HETATM   18  C   UNL     1       8.250  28.955  57.723  1.00  0.00     0.050 C 
HETATM   19  C   UNL     1       8.390  30.265  59.845  1.00  0.00     0.009 A 
HETATM   20  C   UNL     1       8.004  31.298  60.695  1.00  0.00     0.001 A 
HETATM   21  C   UNL     1       7.001  32.173  60.300  1.00  0.00     0.002 A 
HETATM   22  C   UNL     1       6.382  32.014  59.058  1.00  0.00     0.030 A 
ENDBRANCH  13  16
ENDBRANCH   1  12
BRANCH   2  23
HETATM   23  C   UNL     1       5.285  28.043  55.013  1.00  0.00    -0.028 A 
HETATM   24  C   UNL     1       6.517  27.968  54.345  1.00  0.00     0.010 A 
HETATM   25  C   UNL     1       7.447  26.979  54.669  1.00  0.00     0.008 A 
HETATM   26  C   UNL     1       7.174  26.039  55.671  1.00  0.00    -0.055 A 
HETATM   27  C   UNL     1       5.951  26.123  56.352  1.00  0.00     0.008 A 
HETATM   28  C   UNL     1       5.018  27.114  56.031  1.00  0.00     0.010 A 
BRANCH  26  29
HETATM   29  C   UNL     1       8.186  24.950  55.978  1.00  0.00     0.010 C 
HETATM   30  C   UNL     1       8.555  24.914  57.463  1.00  0.00     0.015 C 
HETATM   31  C   UNL     1       7.690  23.582  55.504  1.00  0.00     0.015 C 
ENDBRANCH  26  29
ENDBRANCH   2  23
BRANCH   7  32
HETATM   32  C   UNL     1       3.653  28.005  49.856  1.00  0.00     0.085 C 
BRANCH  32  33
HETATM   33  C   UNL     1       4.941  27.854  49.049  1.00  0.00     0.034 C 
BRANCH  33  34
HETATM   34  C   UNL     1       4.739  27.108  47.736  1.00  0.00     0.164 C 
BRANCH  34  35
HETATM   35  O   UNL     1       5.983  27.010  47.048  1.00  0.00    -0.401 OA
HETATM   36  H   UNL     1       5.794  27.033  46.095  1.00  0.00     0.209 HD
ENDBRANCH  34  35
ENDBRANCH  33  34
ENDBRANCH  32  33
ENDBRANCH   7  32
TORSDOF 8
ENDMDL
MODEL 9
REMARK VINA RESULT:      -8.3      2.716      6.486
REMARK  8 active torsions:
REMARK  status: ('A' for Active; 'I' for Inactive)
REMARK    1  A    between atoms: C_3  and  N_4 
REMARK       I    between atoms: N_4  and  C_5 
REMARK    2  A    between atoms: C_5  and  C_6 
REMARK    3  A    between atoms: C_7  and  C_8 
REMARK    4  A    between atoms: C_11  and  C_12 
REMARK    5  A    between atoms: C_21  and  C_22 
REMARK    6  A    between atoms: C_22  and  C_23 
REMARK    7  A    between atoms: C_23  and  C_24 
REMARK    8  A    between atoms: C_24  and  O_25 
ROOT
HETATM    1  C   UNL     1       7.192  28.616  56.176  1.00  0.00     0.062 A 
HETATM    2  C   UNL     1       5.706  28.837  56.431  1.00  0.00     0.202 A 
HETATM    3  N   UNL     1       5.484  29.948  57.367  1.00  0.00    -0.083 N 
HETATM    4  C   UNL     1       6.491  30.636  57.988  1.00  0.00     0.726 A 
HETATM    5  N   UNL     1       7.772  30.324  57.718  1.00  0.00    -0.192 N 
HETATM    6  N   UNL     1       4.274  30.323  57.840  1.00  0.00    -0.140 NA
HETATM    7  C   UNL     1       4.626  31.320  58.666  1.00  0.00     0.166 A 
HETATM    8  N   UNL     1       5.979  31.527  58.796  1.00  0.00    -0.046 NA
HETATM    9  C   UNL     1       8.145  29.348  56.804  1.00  0.00     0.037 A 
HETATM   10  C   UNL     1       9.629  29.179  56.591  1.00  0.00     0.070 C 
HETATM   11  H   UNL     1       8.509  30.877  58.147  1.00  0.00     0.184 HD
ENDROOT
BRANCH   1  12
HETATM   12  C   UNL     1       7.568  27.654  55.110  1.00  0.00     0.256 C 
HETATM   13  N   UNL     1       7.445  26.338  55.503  1.00  0.00    -0.323 N 
HETATM   14  H   UNL     1       7.212  26.168  56.469  1.00  0.00     0.169 HD
HETATM   15  O   UNL     1       7.968  28.082  54.035  1.00  0.00    -0.267 OA
BRANCH  13  16
HETATM   16  C   UNL     1       7.665  25.184  54.708  1.00  0.00     0.041 A 
HETATM   17  C   UNL     1       8.276  24.054  55.296  1.00  0.00    -0.035 A 
HETATM   18  C   UNL     1       8.704  24.023  56.739  1.00  0.00     0.050 C 
HETATM   19  C   UNL     1       8.487  22.900  54.519  1.00  0.00     0.009 A 
HETATM   20  C   UNL     1       8.106  22.858  53.179  1.00  0.00     0.001 A 
HETATM   21  C   UNL     1       7.503  23.967  52.602  1.00  0.00     0.002 A 
HETATM   22  C   UNL     1       7.282  25.118  53.362  1.00  0.00     0.030 A 
ENDBRANCH  13  16
ENDBRANCH   1  12
BRANCH   2  23
HETATM   23  C   UNL     1       4.889  29.021  55.160  1.00  0.00    -0.028 A 
HETATM   24  C   UNL     1       4.384  27.898  54.486  1.00  0.00     0.010 A 
HETATM   25  C   UNL     1       3.682  28.040  53.288  1.00  0.00     0.008 A 
HETATM   26  C   UNL     1       3.462  29.307  52.732  1.00  0.00    -0.055 A 
HETATM   27  C   UNL     1       3.949  30.430  53.414  1.00  0.00     0.008 A 
HETATM   28  C   UNL     1       4.651  30.292  54.615  1.00  0.00     0.010 A 
BRANCH  26  29
HETATM   29  C   UNL     1       2.728  29.430  51.409  1.00  0.00     0.010 C 
HETATM   30  C   UNL     1       2.504  30.891  51.013  1.00  0.00     0.015 C 
HETATM   31  C   UNL     1       3.456  28.668  50.299  1.00  0.00     0.015 C 
ENDBRANCH  26  29
ENDBRANCH   2  23
BRANCH   7  32
HETATM   32  C   UNL     1       3.631  32.150  59.390  1.00  0.00     0.085 C 
BRANCH  32  33
HETATM   33  C   UNL     1       4.228  32.898  60.580  1.00  0.00     0.034 C 
BRANCH  33  34
HETATM   34  C   UNL     1       3.796  32.324  61.924  1.00  0.00     0.164 C 
BRANCH  34  35
HETATM   35  O   UNL     1       3.178  31.056  61.723  1.00  0.00    -0.401 OA
HETATM   36  H   UNL     1       2.225  31.208  61.611  1.00  0.00     0.209 HD
ENDBRANCH  34  35
ENDBRANCH  33  34
ENDBRANCH  32  33
ENDBRANCH   7  32
TORSDOF 8
ENDMDL
MODEL 10
REMARK VINA RESULT:      -8.1      2.855      7.409
REMARK  8 active torsions:
REMARK  status: ('A' for Active; 'I' for Inactive)
REMARK    1  A    between atoms: C_3  and  N_4 
REMARK       I    between atoms: N_4  and  C_5 
REMARK    2  A    between atoms: C_5  and  C_6 
REMARK    3  A    between atoms: C_7  and  C_8 
REMARK    4  A    between atoms: C_11  and  C_12 
REMARK    5  A    between atoms: C_21  and  C_22 
REMARK    6  A    between atoms: C_22  and  C_23 
REMARK    7  A    between atoms: C_23  and  C_24 
REMARK    8  A    between atoms: C_24  and  O_25 
ROOT
HETATM    1  C   UNL     1       5.729  25.922  52.786  1.00  0.00     0.062 A 
HETATM    2  C   UNL     1       6.201  27.371  52.838  1.00  0.00     0.202 A 
HETATM    3  N   UNL     1       5.715  28.133  51.678  1.00  0.00    -0.083 N 
HETATM    4  C   UNL     1       5.000  27.582  50.648  1.00  0.00     0.726 A 
HETATM    5  N   UNL     1       4.676  26.277  50.689  1.00  0.00    -0.192 N 
HETATM    6  N   UNL     1       6.038  29.418  51.414  1.00  0.00    -0.140 NA
HETATM    7  C   UNL     1       5.389  29.607  50.256  1.00  0.00     0.166 A 
HETATM    8  N   UNL     1       4.758  28.497  49.746  1.00  0.00    -0.046 NA
HETATM    9  C   UNL     1       5.001  25.441  51.750  1.00  0.00     0.037 A 
HETATM   10  C   UNL     1       4.503  24.021  51.644  1.00  0.00     0.070 C 
HETATM   11  H   UNL     1       4.101  25.893  49.944  1.00  0.00     0.184 HD
ENDROOT
BRANCH   1  12
HETATM   12  C   UNL     1       5.982  25.078  53.981  1.00  0.00     0.256 C 
HETATM   13  N   UNL     1       7.034  24.203  53.810  1.00  0.00    -0.323 N 
HETATM   14  H   UNL     1       7.450  24.160  52.893  1.00  0.00     0.169 HD
HETATM   15  O   UNL     1       5.253  25.195  54.957  1.00  0.00    -0.267 OA
BRANCH  13  16
HETATM   16  C   UNL     1       7.567  23.309  54.774  1.00  0.00     0.041 A 
HETATM   17  C   UNL     1       7.929  22.004  54.370  1.00  0.00    -0.035 A 
HETATM   18  C   UNL     1       7.775  21.522  52.952  1.00  0.00     0.050 C 
HETATM   19  C   UNL     1       8.471  21.114  55.316  1.00  0.00     0.009 A 
HETATM   20  C   UNL     1       8.650  21.499  56.642  1.00  0.00     0.001 A 
HETATM   21  C   UNL     1       8.296  22.782  57.039  1.00  0.00     0.002 A 
HETATM   22  C   UNL     1       7.762  23.678  56.110  1.00  0.00     0.030 A 
ENDBRANCH  13  16
ENDBRANCH   1  12
BRANCH   2  23
HETATM   23  C   UNL     1       5.858  28.080  54.140  1.00  0.00    -0.028 A 
HETATM   24  C   UNL     1       4.519  28.375  54.442  1.00  0.00     0.010 A 
HETATM   25  C   UNL     1       4.187  29.076  55.603  1.00  0.00     0.008 A 
HETATM   26  C   UNL     1       5.181  29.499  56.495  1.00  0.00    -0.055 A 
HETATM   27  C   UNL     1       6.517  29.188  56.203  1.00  0.00     0.008 A 
HETATM   28  C   UNL     1       6.853  28.485  55.042  1.00  0.00     0.010 A 
BRANCH  26  29
HETATM   29  C   UNL     1       4.796  30.292  57.730  1.00  0.00     0.010 C 
HETATM   30  C   UNL     1       5.932  31.202  58.203  1.00  0.00     0.015 C 
HETATM   31  C   UNL     1       3.513  31.094  57.496  1.00  0.00     0.015 C 
ENDBRANCH  26  29
ENDBRANCH   2  23
BRANCH   7  32
HETATM   32  C   UNL     1       5.347  30.920  49.565  1.00  0.00     0.085 C 
BRANCH  32  33
HETATM   33  C   UNL     1       5.698  32.090  50.482  1.00  0.00     0.034 C 
BRANCH  33  34
HETATM   34  C   UNL     1       4.548  32.497  51.397  1.00  0.00     0.164 C 
BRANCH  34  35
HETATM   35  O   UNL     1       4.737  31.917  52.685  1.00  0.00    -0.401 OA
HETATM   36  H   UNL     1       3.897  31.992  53.167  1.00  0.00     0.209 HD
ENDBRANCH  34  35
ENDBRANCH  33  34
ENDBRANCH  32  33
ENDBRANCH   7  32
TORSDOF 8
ENDMDL
