MODEL 1
REMARK VINA RESULT:     -10.2      0.000      0.000
REMARK  5 active torsions:
REMARK  status: ('A' for Active; 'I' for Inactive)
REMARK    1  A    between atoms: C_7  and  C_8 
REMARK    2  A    between atoms: C_16  and  C_17 
REMARK    3  A    between atoms: C_19  and  O_20 
REMARK    4  A    between atoms: C_24  and  C_25 
REMARK       I    between atoms: C_25  and  N_26 
REMARK    5  A    between atoms: N_26  and  C_27 
ROOT
HETATM    1  C   UNL     1       3.569  31.125  55.146  1.00  0.00     0.070 C 
HETATM    2  C   UNL     1       4.540  30.052  55.577  1.00  0.00     0.037 C 
HETATM    3  N   UNL     1       4.856  29.099  54.608  1.00  0.00    -0.192 N 
HETATM    4  C   UNL     1       5.509  27.957  54.899  1.00  0.00     0.726 A 
HETATM    5  N   UNL     1       6.063  27.806  56.137  1.00  0.00    -0.083 N 
HETATM    6  N   UNL     1       6.619  26.592  56.291  1.00  0.00    -0.135 NA
HETATM    7  C   UNL     1       6.414  26.052  55.075  1.00  0.00     0.199 A 
HETATM    8  N   UNL     1       5.719  26.873  54.199  1.00  0.00    -0.041 NA
HETATM    9  C   UNL     1       6.064  28.847  57.165  1.00  0.00     0.202 C 
HETATM   10  C   UNL     1       5.087  29.967  56.817  1.00  0.00     0.062 C 
HETATM   11  H   UNL     1       4.335  29.142  53.735  1.00  0.00     0.184 HD
ENDROOT
BRANCH  10  12
HETATM   12  C   UNL     1       4.576  30.819  57.931  1.00  0.00     0.256 C 
HETATM   13  N   UNL     1       5.386  31.886  58.252  1.00  0.00    -0.323 N 
HETATM   14  H   UNL     1       6.223  32.040  57.706  1.00  0.00     0.169 HD
HETATM   15  O   UNL     1       3.532  30.503  58.488  1.00  0.00    -0.267 OA
BRANCH  13  16
HETATM   16  C   UNL     1       5.195  32.823  59.291  1.00  0.00     0.035 A 
HETATM   17  C   UNL     1       4.290  33.885  59.234  1.00  0.00     0.029 A 
HETATM   18  C   UNL     1       4.166  34.768  60.311  1.00  0.00     0.002 A 
HETATM   19  C   UNL     1       4.936  34.591  61.457  1.00  0.00     0.000 A 
HETATM   20  C   UNL     1       5.839  33.535  61.526  1.00  0.00     0.002 A 
HETATM   21  C   UNL     1       5.974  32.659  60.445  1.00  0.00     0.029 A 
ENDBRANCH  13  16
ENDBRANCH  10  12
BRANCH   9  22
HETATM   22  C   UNL     1       7.501  29.335  57.361  1.00  0.00    -0.025 A 
HETATM   23  C   UNL     1       8.393  29.463  56.278  1.00  0.00     0.046 A 
HETATM   24  C   UNL     1       9.687  29.927  56.494  1.00  0.00     0.066 A 
HETATM   25  C   UNL     1      10.124  30.256  57.770  1.00  0.00     0.036 A 
HETATM   26  C   UNL     1       9.260  30.111  58.853  1.00  0.00     0.003 A 
HETATM   27  C   UNL     1       7.957  29.653  58.652  1.00  0.00     0.010 A 
BRANCH  24  28
HETATM   28  O   UNL     1      10.568  30.077  55.465  1.00  0.00    -0.361 OA
HETATM   29  H   UNL     1      10.384  29.408  54.786  1.00  0.00     0.217 HD
ENDBRANCH  24  28
ENDBRANCH   9  22
BRANCH   7  30
HETATM   30  C   UNL     1       6.881  24.722  54.696  1.00  0.00     0.014 A 
HETATM   31  C   UNL     1       7.115  24.400  53.350  1.00  0.00     0.017 A 
HETATM   32  C   UNL     1       7.553  23.122  52.986  1.00  0.00     0.025 A 
HETATM   33  C   UNL     1       7.763  22.159  53.969  1.00  0.00     0.034 A 
HETATM   34 CL   UNL     1       8.300  20.587  53.524  1.00  0.00    -0.084 Cl
HETATM   35  C   UNL     1       7.538  22.460  55.311  1.00  0.00     0.025 A 
HETATM   36  C   UNL     1       7.097  23.738  55.673  1.00  0.00     0.017 A 
ENDBRANCH   7  30
TORSDOF 5
ENDMDL
MODEL 2
REMARK VINA RESULT:      -9.8      4.094      8.541
REMARK  5 active torsions:
REMARK  status: ('A' for Active; 'I' for Inactive)
REMARK    1  A    between atoms: C_7  and  C_8 
REMARK    2  A    between atoms: C_16  and  C_17 
REMARK    3  A    between atoms: C_19  and  O_20 
REMARK    4  A    between atoms: C_24  and  C_25 
REMARK       I    between atoms: C_25  and  N_26 
REMARK    5  A    between atoms: N_26  and  C_27 
ROOT
HETATM    1  C   UNL     1       4.743  24.873  57.407  1.00  0.00     0.070 C 
HETATM    2  C   UNL     1       5.150  26.167  56.744  1.00  0.00     0.037 C 
HETATM    3  N   UNL     1       4.198  27.187  56.771  1.00  0.00    -0.192 N 
HETATM    4  C   UNL     1       4.308  28.305  56.027  1.00  0.00     0.726 A 
HETATM    5  N   UNL     1       5.480  28.554  55.375  1.00  0.00    -0.083 N 
HETATM    6  N   UNL     1       5.408  29.669  54.627  1.00  0.00    -0.135 NA
HETATM    7  C   UNL     1       4.161  30.092  54.905  1.00  0.00     0.199 A 
HETATM    8  N   UNL     1       3.456  29.259  55.761  1.00  0.00    -0.041 NA
HETATM    9  C   UNL     1       6.675  27.717  55.489  1.00  0.00     0.202 C 
HETATM   10  C   UNL     1       6.346  26.373  56.134  1.00  0.00     0.062 C 
HETATM   11  H   UNL     1       3.279  26.946  57.138  1.00  0.00     0.184 HD
ENDROOT
BRANCH  10  12
HETATM   12  C   UNL     1       7.271  25.230  55.875  1.00  0.00     0.256 C 
HETATM   13  N   UNL     1       6.790  24.295  54.987  1.00  0.00    -0.323 N 
HETATM   14  H   UNL     1       5.891  24.457  54.554  1.00  0.00     0.169 HD
HETATM   15  O   UNL     1       8.339  25.184  56.475  1.00  0.00    -0.267 OA
BRANCH  13  16
HETATM   16  C   UNL     1       7.410  23.088  54.595  1.00  0.00     0.035 A 
HETATM   17  C   UNL     1       7.897  22.837  53.311  1.00  0.00     0.029 A 
HETATM   18  C   UNL     1       8.498  21.611  53.009  1.00  0.00     0.002 A 
HETATM   19  C   UNL     1       8.627  20.630  53.989  1.00  0.00     0.000 A 
HETATM   20  C   UNL     1       8.147  20.871  55.273  1.00  0.00     0.002 A 
HETATM   21  C   UNL     1       7.534  22.091  55.573  1.00  0.00     0.029 A 
ENDBRANCH  13  16
ENDBRANCH  10  12
BRANCH   9  22
HETATM   22  C   UNL     1       7.749  28.504  56.242  1.00  0.00    -0.025 A 
HETATM   23  C   UNL     1       7.628  28.794  57.615  1.00  0.00     0.046 A 
HETATM   24  C   UNL     1       8.635  29.498  58.270  1.00  0.00     0.066 A 
HETATM   25  C   UNL     1       9.761  29.934  57.584  1.00  0.00     0.036 A 
HETATM   26  C   UNL     1       9.882  29.675  56.221  1.00  0.00     0.003 A 
HETATM   27  C   UNL     1       8.884  28.966  55.552  1.00  0.00     0.010 A 
BRANCH  24  28
HETATM   28  O   UNL     1       8.555  29.780  59.600  1.00  0.00    -0.361 OA
HETATM   29  H   UNL     1       8.359  28.964  60.089  1.00  0.00     0.217 HD
ENDBRANCH  24  28
ENDBRANCH   9  22
BRANCH   7  30
HETATM   30  C   UNL     1       3.590  31.324  54.366  1.00  0.00     0.014 A 
HETATM   31  C   UNL     1       2.691  32.090  55.123  1.00  0.00     0.017 A 
HETATM   32  C   UNL     1       2.136  33.263  54.602  1.00  0.00     0.025 A 
HETATM   33  C   UNL     1       2.482  33.678  53.318  1.00  0.00     0.034 A 
HETATM   34 CL   UNL     1       1.799  35.120  52.674  1.00  0.00    -0.084 Cl
HETATM   35  C   UNL     1       3.373  32.931  52.551  1.00  0.00     0.025 A 
HETATM   36  C   UNL     1       3.925  31.756  53.073  1.00  0.00     0.017 A 
ENDBRANCH   7  30
TORSDOF 5
ENDMDL
MODEL 3
REMARK VINA RESULT:      -9.5      4.000      9.300
REMARK  5 active torsions:
REMARK  status: ('A' for Active; 'I' for Inactive)
REMARK    1  A    between atoms: C_7  and  C_8 
REMARK    2  A    between atoms: C_16  and  C_17 
REMARK    3  A    between atoms: C_19  and  O_20 
REMARK    4  A    between atoms: C_24  and  C_25 
REMARK       I    between atoms: C_25  and  N_26 
REMARK    5  A    between atoms: N_26  and  C_27 
ROOT
HETATM    1  C   UNL     1      10.809  29.745  56.776  1.00  0.00     0.070 C 
HETATM    2  C   UNL     1       9.575  30.168  57.535  1.00  0.00     0.037 C 
HETATM    3  N   UNL     1       9.764  31.171  58.487  1.00  0.00    -0.192 N 
HETATM    4  C   UNL     1       8.828  31.488  59.403  1.00  0.00     0.726 A 
HETATM    5  N   UNL     1       7.575  30.962  59.282  1.00  0.00    -0.083 N 
HETATM    6  N   UNL     1       6.781  31.320  60.306  1.00  0.00    -0.135 NA
HETATM    7  C   UNL     1       7.604  32.120  61.009  1.00  0.00     0.199 A 
HETATM    8  N   UNL     1       8.880  32.231  60.477  1.00  0.00    -0.041 NA
HETATM    9  C   UNL     1       7.145  30.122  58.163  1.00  0.00     0.202 C 
HETATM   10  C   UNL     1       8.341  29.631  57.351  1.00  0.00     0.062 C 
HETATM   11  H   UNL     1      10.723  31.459  58.665  1.00  0.00     0.184 HD
ENDROOT
BRANCH  10  12
HETATM   12  C   UNL     1       8.166  28.399  56.527  1.00  0.00     0.256 C 
HETATM   13  N   UNL     1       7.940  27.252  57.254  1.00  0.00    -0.323 N 
HETATM   14  H   UNL     1       7.870  27.323  58.261  1.00  0.00     0.169 HD
HETATM   15  O   UNL     1       8.268  28.481  55.309  1.00  0.00    -0.267 OA
BRANCH  13  16
HETATM   16  C   UNL     1       7.795  25.938  56.758  1.00  0.00     0.035 A 
HETATM   17  C   UNL     1       6.852  25.560  55.801  1.00  0.00     0.029 A 
HETATM   18  C   UNL     1       6.778  24.233  55.365  1.00  0.00     0.002 A 
HETATM   19  C   UNL     1       7.652  23.276  55.874  1.00  0.00     0.000 A 
HETATM   20  C   UNL     1       8.598  23.642  56.826  1.00  0.00     0.002 A 
HETATM   21  C   UNL     1       8.664  24.965  57.272  1.00  0.00     0.029 A 
ENDBRANCH  13  16
ENDBRANCH  10  12
BRANCH   9  22
HETATM   22  C   UNL     1       6.128  30.905  57.331  1.00  0.00    -0.025 A 
HETATM   23  C   UNL     1       5.848  32.261  57.589  1.00  0.00     0.046 A 
HETATM   24  C   UNL     1       4.929  32.945  56.798  1.00  0.00     0.066 A 
HETATM   25  C   UNL     1       4.267  32.305  55.760  1.00  0.00     0.036 A 
HETATM   26  C   UNL     1       4.516  30.958  55.509  1.00  0.00     0.003 A 
HETATM   27  C   UNL     1       5.439  30.260  56.288  1.00  0.00     0.010 A 
BRANCH  24  28
HETATM   28  O   UNL     1       4.649  34.261  57.012  1.00  0.00    -0.361 OA
HETATM   29  H   UNL     1       5.093  34.555  57.825  1.00  0.00     0.217 HD
ENDBRANCH  24  28
ENDBRANCH   9  22
BRANCH   7  30
HETATM   30  C   UNL     1       7.199  32.822  62.225  1.00  0.00     0.014 A 
HETATM   31  C   UNL     1       7.862  32.591  63.440  1.00  0.00     0.017 A 
HETATM   32  C   UNL     1       7.468  33.255  64.606  1.00  0.00     0.025 A 
HETATM   33  C   UNL     1       6.408  34.159  64.561  1.00  0.00     0.034 A 
HETATM   34 CL   UNL     1       5.921  34.975  65.994  1.00  0.00    -0.084 Cl
HETATM   35  C   UNL     1       5.740  34.402  63.363  1.00  0.00     0.025 A 
HETATM   36  C   UNL     1       6.134  33.734  62.198  1.00  0.00     0.017 A 
ENDBRANCH   7  30
TORSDOF 5
ENDMDL
MODEL 4
REMARK VINA RESULT:      -9.5      3.982      9.294
REMARK  5 active torsions:
REMARK  status: ('A' for Active; 'I' for Inactive)
REMARK    1  A    between atoms: C_7  and  C_8 
REMARK    2  A    between atoms: C_16  and  C_17 
REMARK    3  A    between atoms: C_19  and  O_20 
REMARK    4  A    between atoms: C_24  and  C_25 
REMARK       I    between atoms: C_25  and  N_26 
REMARK    5  A    between atoms: N_26  and  C_27 
ROOT
HETATM    1  C   UNL     1      10.730  29.643  56.694  1.00  0.00     0.070 C 
HETATM    2  C   UNL     1       9.515  30.002  57.517  1.00  0.00     0.037 C 
HETATM    3  N   UNL     1       9.647  31.126  58.332  1.00  0.00    -0.192 N 
HETATM    4  C   UNL     1       8.755  31.436  59.294  1.00  0.00     0.726 A 
HETATM    5  N   UNL     1       7.576  30.751  59.349  1.00  0.00    -0.083 N 
HETATM    6  N   UNL     1       6.826  31.131  60.399  1.00  0.00    -0.135 NA
HETATM    7  C   UNL     1       7.591  32.103  60.930  1.00  0.00     0.199 A 
HETATM    8  N   UNL     1       8.795  32.303  60.271  1.00  0.00    -0.041 NA
HETATM    9  C   UNL     1       7.171  29.738  58.374  1.00  0.00     0.202 C 
HETATM   10  C   UNL     1       8.352  29.301  57.510  1.00  0.00     0.062 C 
HETATM   11  H   UNL     1      10.572  31.548  58.387  1.00  0.00     0.184 HD
ENDROOT
BRANCH  10  12
HETATM   12  C   UNL     1       8.273  27.967  56.845  1.00  0.00     0.256 C 
HETATM   13  N   UNL     1       7.556  27.957  55.670  1.00  0.00    -0.323 N 
HETATM   14  H   UNL     1       7.176  28.829  55.327  1.00  0.00     0.169 HD
HETATM   15  O   UNL     1       8.800  27.003  57.386  1.00  0.00    -0.267 OA
BRANCH  13  16
HETATM   16  C   UNL     1       7.263  26.840  54.855  1.00  0.00     0.035 A 
HETATM   17  C   UNL     1       6.414  25.797  55.229  1.00  0.00     0.029 A 
HETATM   18  C   UNL     1       6.180  24.728  54.358  1.00  0.00     0.002 A 
HETATM   19  C   UNL     1       6.786  24.697  53.104  1.00  0.00     0.000 A 
HETATM   20  C   UNL     1       7.633  25.732  52.721  1.00  0.00     0.002 A 
HETATM   21  C   UNL     1       7.877  26.795  53.595  1.00  0.00     0.029 A 
ENDBRANCH  13  16
ENDBRANCH  10  12
BRANCH   9  22
HETATM   22  C   UNL     1       5.996  30.287  57.562  1.00  0.00    -0.025 A 
HETATM   23  C   UNL     1       6.007  31.593  57.036  1.00  0.00     0.046 A 
HETATM   24  C   UNL     1       4.926  32.051  56.288  1.00  0.00     0.066 A 
HETATM   25  C   UNL     1       3.822  31.241  56.059  1.00  0.00     0.036 A 
HETATM   26  C   UNL     1       3.788  29.955  56.593  1.00  0.00     0.003 A 
HETATM   27  C   UNL     1       4.867  29.479  57.341  1.00  0.00     0.010 A 
BRANCH  24  28
HETATM   28  O   UNL     1       4.913  33.304  55.752  1.00  0.00    -0.361 OA
HETATM   29  H   UNL     1       5.826  33.623  55.661  1.00  0.00     0.217 HD
ENDBRANCH  24  28
ENDBRANCH   9  22
BRANCH   7  30
HETATM   30  C   UNL     1       7.197  32.890  62.095  1.00  0.00     0.014 A 
HETATM   31  C   UNL     1       7.835  32.709  63.333  1.00  0.00     0.017 A 
HETATM   32  C   UNL     1       7.451  33.456  64.451  1.00  0.00     0.025 A 
HETATM   33  C   UNL     1       6.427  34.393  64.335  1.00  0.00     0.034 A 
HETATM   34 CL   UNL     1       5.951  35.312  65.710  1.00  0.00    -0.084 Cl
HETATM   35  C   UNL     1       5.783  34.588  63.115  1.00  0.00     0.025 A 
HETATM   36  C   UNL     1       6.167  33.838  61.998  1.00  0.00     0.017 A 
ENDBRANCH   7  30
TORSDOF 5
ENDMDL
MODEL 5
REMARK VINA RESULT:      -9.4      5.410      7.697
REMARK  5 active torsions:
REMARK  status: ('A' for Active; 'I' for Inactive)
REMARK    1  A    between atoms: C_7  and  C_8 
REMARK    2  A    between atoms: C_16  and  C_17 
REMARK    3  A    between atoms: C_19  and  O_20 
REMARK    4  A    between atoms: C_24  and  C_25 
REMARK       I    between atoms: C_25  and  N_26 
REMARK    5  A    between atoms: N_26  and  C_27 
ROOT
HETATM    1  C   UNL     1       3.102  30.952  53.063  1.00  0.00     0.070 C 
HETATM    2  C   UNL     1       3.841  29.764  52.497  1.00  0.00     0.037 C 
HETATM    3  N   UNL     1       3.936  28.654  53.338  1.00  0.00    -0.192 N 
HETATM    4  C   UNL     1       4.757  27.616  53.082  1.00  0.00     0.726 A 
HETATM    5  N   UNL     1       5.370  27.540  51.866  1.00  0.00    -0.083 N 
HETATM    6  N   UNL     1       6.203  26.488  51.790  1.00  0.00    -0.135 NA
HETATM    7  C   UNL     1       6.017  25.919  52.996  1.00  0.00     0.199 A 
HETATM    8  N   UNL     1       5.136  26.605  53.818  1.00  0.00    -0.041 NA
HETATM    9  C   UNL     1       5.135  28.482  50.770  1.00  0.00     0.202 C 
HETATM   10  C   UNL     1       4.407  29.730  51.263  1.00  0.00     0.062 C 
HETATM   11  H   UNL     1       3.597  28.770  54.291  1.00  0.00     0.184 HD
ENDROOT
BRANCH  10  12
HETATM   12  C   UNL     1       4.534  30.977  50.453  1.00  0.00     0.256 C 
HETATM   13  N   UNL     1       5.687  31.693  50.683  1.00  0.00    -0.323 N 
HETATM   14  H   UNL     1       6.366  31.321  51.333  1.00  0.00     0.169 HD
HETATM   15  O   UNL     1       3.622  31.287  49.695  1.00  0.00    -0.267 OA
BRANCH  13  16
HETATM   16  C   UNL     1       6.053  32.932  50.113  1.00  0.00     0.035 A 
HETATM   17  C   UNL     1       5.952  34.160  50.770  1.00  0.00     0.029 A 
HETATM   18  C   UNL     1       6.338  35.341  50.128  1.00  0.00     0.002 A 
HETATM   19  C   UNL     1       6.837  35.304  48.829  1.00  0.00     0.000 A 
HETATM   20  C   UNL     1       6.945  34.086  48.165  1.00  0.00     0.002 A 
HETATM   21  C   UNL     1       6.547  32.906  48.801  1.00  0.00     0.029 A 
ENDBRANCH  13  16
ENDBRANCH  10  12
BRANCH   9  22
HETATM   22  C   UNL     1       4.394  27.749  49.650  1.00  0.00    -0.025 A 
HETATM   23  C   UNL     1       2.988  27.754  49.567  1.00  0.00     0.046 A 
HETATM   24  C   UNL     1       2.350  27.090  48.523  1.00  0.00     0.066 A 
HETATM   25  C   UNL     1       3.080  26.407  47.561  1.00  0.00     0.036 A 
HETATM   26  C   UNL     1       4.471  26.374  47.644  1.00  0.00     0.003 A 
HETATM   27  C   UNL     1       5.125  27.040  48.681  1.00  0.00     0.010 A 
BRANCH  24  28
HETATM   28  O   UNL     1       0.992  27.090  48.406  1.00  0.00    -0.361 OA
HETATM   29  H   UNL     1       0.668  26.175  48.449  1.00  0.00     0.217 HD
ENDBRANCH  24  28
ENDBRANCH   9  22
BRANCH   7  30
HETATM   30  C   UNL     1       6.676  24.684  53.414  1.00  0.00     0.014 A 
HETATM   31  C   UNL     1       7.369  23.891  52.486  1.00  0.00     0.017 A 
HETATM   32  C   UNL     1       7.991  22.703  52.884  1.00  0.00     0.025 A 
HETATM   33  C   UNL     1       7.924  22.304  54.217  1.00  0.00     0.034 A 
HETATM   34 CL   UNL     1       8.686  20.842  54.709  1.00  0.00    -0.084 Cl
HETATM   35  C   UNL     1       7.242  23.078  55.153  1.00  0.00     0.025 A 
HETATM   36  C   UNL     1       6.618  24.265  54.752  1.00  0.00     0.017 A 
ENDBRANCH   7  30
TORSDOF 5
ENDMDL
MODEL 6
REMARK VINA RESULT:      -9.2      5.360      8.134
REMARK  5 active torsions:
REMARK  status: ('A' for Active; 'I' for Inactive)
REMARK    1  A    between atoms: C_7  and  C_8 
REMARK    2  A    between atoms: C_16  and  C_17 
REMARK    3  A    between atoms: C_19  and  O_20 
REMARK    4  A    between atoms: C_24  and  C_25 
REMARK       I    between atoms: C_25  and  N_26 
REMARK    5  A    between atoms: N_26  and  C_27 
ROOT
HETATM    1  C   UNL     1       3.429  30.393  52.977  1.00  0.00     0.070 C 
HETATM    2  C   UNL     1       4.204  29.201  52.469  1.00  0.00     0.037 C 
HETATM    3  N   UNL     1       4.223  28.089  53.310  1.00  0.00    -0.192 N 
HETATM    4  C   UNL     1       5.055  27.046  53.118  1.00  0.00     0.726 A 
HETATM    5  N   UNL     1       5.764  26.970  51.955  1.00  0.00    -0.083 N 
HETATM    6  N   UNL     1       6.594  25.912  51.944  1.00  0.00    -0.135 NA
HETATM    7  C   UNL     1       6.307  25.340  53.128  1.00  0.00     0.199 A 
HETATM    8  N   UNL     1       5.367  26.030  53.879  1.00  0.00    -0.041 NA
HETATM    9  C   UNL     1       5.625  27.916  50.847  1.00  0.00     0.202 C 
HETATM   10  C   UNL     1       4.868  29.167  51.284  1.00  0.00     0.062 C 
HETATM   11  H   UNL     1       3.808  28.204  54.233  1.00  0.00     0.184 HD
ENDROOT
BRANCH  10  12
HETATM   12  C   UNL     1       5.068  30.416  50.491  1.00  0.00     0.256 C 
HETATM   13  N   UNL     1       4.041  30.713  49.623  1.00  0.00    -0.323 N 
HETATM   14  H   UNL     1       3.230  30.108  49.608  1.00  0.00     0.169 HD
HETATM   15  O   UNL     1       6.108  31.049  50.633  1.00  0.00    -0.267 OA
BRANCH  13  16
HETATM   16  C   UNL     1       3.976  31.788  48.710  1.00  0.00     0.035 A 
HETATM   17  C   UNL     1       3.402  33.027  48.996  1.00  0.00     0.029 A 
HETATM   18  C   UNL     1       3.380  34.038  48.029  1.00  0.00     0.002 A 
HETATM   19  C   UNL     1       3.941  33.822  46.774  1.00  0.00     0.000 A 
HETATM   20  C   UNL     1       4.518  32.591  46.478  1.00  0.00     0.002 A 
HETATM   21  C   UNL     1       4.529  31.576  47.439  1.00  0.00     0.029 A 
ENDBRANCH  13  16
ENDBRANCH  10  12
BRANCH   9  22
HETATM   22  C   UNL     1       4.972  27.192  49.669  1.00  0.00    -0.025 A 
HETATM   23  C   UNL     1       4.232  26.007  49.846  1.00  0.00     0.046 A 
HETATM   24  C   UNL     1       3.638  25.386  48.751  1.00  0.00     0.066 A 
HETATM   25  C   UNL     1       3.773  25.912  47.474  1.00  0.00     0.036 A 
HETATM   26  C   UNL     1       4.522  27.071  47.280  1.00  0.00     0.003 A 
HETATM   27  C   UNL     1       5.119  27.708  48.369  1.00  0.00     0.010 A 
BRANCH  24  28
HETATM   28  O   UNL     1       2.903  24.248  48.892  1.00  0.00    -0.361 OA
HETATM   29  H   UNL     1       2.580  23.966  48.021  1.00  0.00     0.217 HD
ENDBRANCH  24  28
ENDBRANCH   9  22
BRANCH   7  30
HETATM   30  C   UNL     1       6.922  24.099  53.593  1.00  0.00     0.014 A 
HETATM   31  C   UNL     1       7.477  23.188  52.682  1.00  0.00     0.017 A 
HETATM   32  C   UNL     1       8.056  21.995  53.127  1.00  0.00     0.025 A 
HETATM   33  C   UNL     1       8.085  21.710  54.490  1.00  0.00     0.034 A 
HETATM   34 CL   UNL     1       8.795  20.242  55.040  1.00  0.00    -0.084 Cl
HETATM   35  C   UNL     1       7.540  22.603  55.410  1.00  0.00     0.025 A 
HETATM   36  C   UNL     1       6.959  23.795  54.963  1.00  0.00     0.017 A 
ENDBRANCH   7  30
TORSDOF 5
ENDMDL
MODEL 7
REMARK VINA RESULT:      -9.0      4.176      9.190
REMARK  5 active torsions:
REMARK  status: ('A' for Active; 'I' for Inactive)
REMARK    1  A    between atoms: C_7  and  C_8 
REMARK    2  A    between atoms: C_16  and  C_17 
REMARK    3  A    between atoms: C_19  and  O_20 
REMARK    4  A    between atoms: C_24  and  C_25 
REMARK       I    between atoms: C_25  and  N_26 
REMARK    5  A    between atoms: N_26  and  C_27 
ROOT
HETATM    1  C   UNL     1       8.401  27.171  57.026  1.00  0.00     0.070 C 
HETATM    2  C   UNL     1       7.185  27.746  56.339  1.00  0.00     0.037 C 
HETATM    3  N   UNL     1       6.992  29.118  56.500  1.00  0.00    -0.192 N 
HETATM    4  C   UNL     1       5.844  29.735  56.158  1.00  0.00     0.726 A 
HETATM    5  N   UNL     1       4.907  29.045  55.445  1.00  0.00    -0.083 N 
HETATM    6  N   UNL     1       3.796  29.775  55.241  1.00  0.00    -0.135 NA
HETATM    7  C   UNL     1       4.138  30.941  55.820  1.00  0.00     0.199 A 
HETATM    8  N   UNL     1       5.396  30.938  56.405  1.00  0.00    -0.041 NA
HETATM    9  C   UNL     1       5.096  27.681  54.950  1.00  0.00     0.202 C 
HETATM   10  C   UNL     1       6.299  27.016  55.613  1.00  0.00     0.062 C 
HETATM   11  H   UNL     1       7.617  29.597  57.144  1.00  0.00     0.184 HD
ENDROOT
BRANCH  10  12
HETATM   12  C   UNL     1       6.347  25.524  55.636  1.00  0.00     0.256 C 
HETATM   13  N   UNL     1       7.289  24.969  54.799  1.00  0.00    -0.323 N 
HETATM   14  H   UNL     1       7.892  25.587  54.273  1.00  0.00     0.169 HD
HETATM   15  O   UNL     1       5.551  24.916  56.342  1.00  0.00    -0.267 OA
BRANCH  13  16
HETATM   16  C   UNL     1       7.525  23.597  54.566  1.00  0.00     0.035 A 
HETATM   17  C   UNL     1       7.534  23.005  53.302  1.00  0.00     0.029 A 
HETATM   18  C   UNL     1       7.776  21.635  53.163  1.00  0.00     0.002 A 
HETATM   19  C   UNL     1       8.022  20.847  54.285  1.00  0.00     0.000 A 
HETATM   20  C   UNL     1       8.018  21.427  55.550  1.00  0.00     0.002 A 
HETATM   21  C   UNL     1       7.763  22.794  55.691  1.00  0.00     0.029 A 
ENDBRANCH  13  16
ENDBRANCH  10  12
BRANCH   9  22
HETATM   22  C   UNL     1       5.194  27.728  53.423  1.00  0.00    -0.025 A 
HETATM   23  C   UNL     1       5.559  28.905  52.741  1.00  0.00     0.046 A 
HETATM   24  C   UNL     1       5.654  28.903  51.352  1.00  0.00     0.066 A 
HETATM   25  C   UNL     1       5.381  27.756  50.620  1.00  0.00     0.036 A 
HETATM   26  C   UNL     1       4.996  26.591  51.281  1.00  0.00     0.003 A 
HETATM   27  C   UNL     1       4.902  26.575  52.673  1.00  0.00     0.010 A 
BRANCH  24  28
HETATM   28  O   UNL     1       6.020  30.021  50.665  1.00  0.00    -0.361 OA
HETATM   29  H   UNL     1       6.981  30.008  50.521  1.00  0.00     0.217 HD
ENDBRANCH  24  28
ENDBRANCH   9  22
BRANCH   7  30
HETATM   30  C   UNL     1       3.272  32.117  55.834  1.00  0.00     0.014 A 
HETATM   31  C   UNL     1       2.163  32.202  54.979  1.00  0.00     0.017 A 
HETATM   32  C   UNL     1       1.340  33.333  54.985  1.00  0.00     0.025 A 
HETATM   33  C   UNL     1       1.622  34.386  55.852  1.00  0.00     0.034 A 
HETATM   34 CL   UNL     1       0.613  35.779  55.861  1.00  0.00    -0.084 Cl
HETATM   35  C   UNL     1       2.718  34.319  56.709  1.00  0.00     0.025 A 
HETATM   36  C   UNL     1       3.542  33.188  56.700  1.00  0.00     0.017 A 
ENDBRANCH   7  30
TORSDOF 5
ENDMDL
MODEL 8
REMARK VINA RESULT:      -8.7      3.409      5.208
REMARK  5 active torsions:
REMARK  status: ('A' for Active; 'I' for Inactive)
REMARK    1  A    between atoms: C_7  and  C_8 
REMARK    2  A    between atoms: C_16  and  C_17 
REMARK    3  A    between atoms: C_19  and  O_20 
REMARK    4  A    between atoms: C_24  and  C_25 
REMARK       I    between atoms: C_25  and  N_26 
REMARK    5  A    between atoms: N_26  and  C_27 
ROOT
HETATM    1  C   UNL     1       3.375  29.977  57.416  1.00  0.00     0.070 C 
HETATM    2  C   UNL     1       4.115  29.248  56.321  1.00  0.00     0.037 C 
HETATM    3  N   UNL     1       4.163  27.858  56.444  1.00  0.00    -0.192 N 
HETATM    4  C   UNL     1       4.976  27.089  55.694  1.00  0.00     0.726 A 
HETATM    5  N   UNL     1       5.631  27.652  54.638  1.00  0.00    -0.083 N 
HETATM    6  N   UNL     1       6.450  26.774  54.032  1.00  0.00    -0.135 NA
HETATM    7  C   UNL     1       6.212  25.658  54.746  1.00  0.00     0.199 A 
HETATM    8  N   UNL     1       5.312  25.830  55.787  1.00  0.00    -0.041 NA
HETATM    9  C   UNL     1       5.451  29.039  54.207  1.00  0.00     0.202 C 
HETATM   10  C   UNL     1       4.725  29.856  55.272  1.00  0.00     0.062 C 
HETATM   11  H   UNL     1       3.790  27.461  57.305  1.00  0.00     0.184 HD
ENDROOT
BRANCH  10  12
HETATM   12  C   UNL     1       4.900  31.339  55.252  1.00  0.00     0.256 C 
HETATM   13  N   UNL     1       4.322  31.969  54.173  1.00  0.00    -0.323 N 
HETATM   14  H   UNL     1       3.802  31.411  53.509  1.00  0.00     0.169 HD
HETATM   15  O   UNL     1       5.553  31.870  56.143  1.00  0.00    -0.267 OA
BRANCH  13  16
HETATM   16  C   UNL     1       4.372  33.345  53.858  1.00  0.00     0.035 A 
HETATM   17  C   UNL     1       5.229  33.902  52.907  1.00  0.00     0.029 A 
HETATM   18  C   UNL     1       5.211  35.278  52.658  1.00  0.00     0.002 A 
HETATM   19  C   UNL     1       4.330  36.106  53.348  1.00  0.00     0.000 A 
HETATM   20  C   UNL     1       3.470  35.561  54.296  1.00  0.00     0.002 A 
HETATM   21  C   UNL     1       3.495  34.188  54.555  1.00  0.00     0.029 A 
ENDBRANCH  13  16
ENDBRANCH  10  12
BRANCH   9  22
HETATM   22  C   UNL     1       4.739  29.038  52.852  1.00  0.00    -0.025 A 
HETATM   23  C   UNL     1       3.352  28.817  52.745  1.00  0.00     0.046 A 
HETATM   24  C   UNL     1       2.738  28.842  51.496  1.00  0.00     0.066 A 
HETATM   25  C   UNL     1       3.476  29.069  50.343  1.00  0.00     0.036 A 
HETATM   26  C   UNL     1       4.852  29.265  50.432  1.00  0.00     0.003 A 
HETATM   27  C   UNL     1       5.482  29.249  51.677  1.00  0.00     0.010 A 
BRANCH  24  28
HETATM   28  O   UNL     1       1.396  28.648  51.361  1.00  0.00    -0.361 OA
HETATM   29  H   UNL     1       1.013  28.447  52.231  1.00  0.00     0.217 HD
ENDBRANCH  24  28
ENDBRANCH   9  22
BRANCH   7  30
HETATM   30  C   UNL     1       6.835  24.369  54.456  1.00  0.00     0.014 A 
HETATM   31  C   UNL     1       7.116  23.460  55.488  1.00  0.00     0.017 A 
HETATM   32  C   UNL     1       7.723  22.230  55.212  1.00  0.00     0.025 A 
HETATM   33  C   UNL     1       8.048  21.902  53.898  1.00  0.00     0.034 A 
HETATM   34 CL   UNL     1       8.796  20.391  53.556  1.00  0.00    -0.084 Cl
HETATM   35  C   UNL     1       7.776  22.790  52.861  1.00  0.00     0.025 A 
HETATM   36  C   UNL     1       7.172  24.022  53.139  1.00  0.00     0.017 A 
ENDBRANCH   7  30
TORSDOF 5
ENDMDL
MODEL 9
REMARK VINA RESULT:      -8.5      3.797      9.295
REMARK  5 active torsions:
REMARK  status: ('A' for Active; 'I' for Inactive)
REMARK    1  A    between atoms: C_7  and  C_8 
REMARK    2  A    between atoms: C_16  and  C_17 
REMARK    3  A    between atoms: C_19  and  O_20 
REMARK    4  A    between atoms: C_24  and  C_25 
REMARK       I    between atoms: C_25  and  N_26 
REMARK    5  A    between atoms: N_26  and  C_27 
ROOT
HETATM    1  C   UNL     1       9.775  28.596  56.915  1.00  0.00     0.070 C 
HETATM    2  C   UNL     1       8.386  29.143  57.143  1.00  0.00     0.037 C 
HETATM    3  N   UNL     1       8.323  30.449  57.629  1.00  0.00    -0.192 N 
HETATM    4  C   UNL     1       7.186  30.993  58.106  1.00  0.00     0.726 A 
HETATM    5  N   UNL     1       6.008  30.328  57.928  1.00  0.00    -0.083 N 
HETATM    6  N   UNL     1       4.980  30.965  58.516  1.00  0.00    -0.135 NA
HETATM    7  C   UNL     1       5.594  32.059  59.005  1.00  0.00     0.199 A 
HETATM    8  N   UNL     1       6.961  32.093  58.774  1.00  0.00    -0.041 NA
HETATM    9  C   UNL     1       5.877  29.080  57.174  1.00  0.00     0.202 C 
HETATM   10  C   UNL     1       7.242  28.447  56.918  1.00  0.00     0.062 C 
HETATM   11  H   UNL     1       9.205  30.886  57.888  1.00  0.00     0.184 HD
ENDROOT
BRANCH  10  12
HETATM   12  C   UNL     1       7.289  26.980  56.640  1.00  0.00     0.256 C 
HETATM   13  N   UNL     1       7.541  26.656  55.326  1.00  0.00    -0.323 N 
HETATM   14  H   UNL     1       7.710  27.404  54.667  1.00  0.00     0.169 HD
HETATM   15  O   UNL     1       7.073  26.196  57.556  1.00  0.00    -0.267 OA
BRANCH  13  16
HETATM   16  C   UNL     1       7.586  25.365  54.756  1.00  0.00     0.035 A 
HETATM   17  C   UNL     1       7.926  24.208  55.460  1.00  0.00     0.029 A 
HETATM   18  C   UNL     1       7.945  22.967  54.815  1.00  0.00     0.002 A 
HETATM   19  C   UNL     1       7.615  22.871  53.466  1.00  0.00     0.000 A 
HETATM   20  C   UNL     1       7.272  24.016  52.755  1.00  0.00     0.002 A 
HETATM   21  C   UNL     1       7.265  25.259  53.395  1.00  0.00     0.029 A 
ENDBRANCH  13  16
ENDBRANCH  10  12
BRANCH   9  22
HETATM   22  C   UNL     1       5.091  29.367  55.893  1.00  0.00    -0.025 A 
HETATM   23  C   UNL     1       4.521  28.331  55.128  1.00  0.00     0.046 A 
HETATM   24  C   UNL     1       3.797  28.633  53.978  1.00  0.00     0.066 A 
HETATM   25  C   UNL     1       3.637  29.947  53.560  1.00  0.00     0.036 A 
HETATM   26  C   UNL     1       4.216  30.980  54.295  1.00  0.00     0.003 A 
HETATM   27  C   UNL     1       4.940  30.694  55.453  1.00  0.00     0.010 A 
BRANCH  24  28
HETATM   28  O   UNL     1       3.220  27.655  53.225  1.00  0.00    -0.361 OA
HETATM   29  H   UNL     1       3.909  27.185  52.727  1.00  0.00     0.217 HD
ENDBRANCH  24  28
ENDBRANCH   9  22
BRANCH   7  30
HETATM   30  C   UNL     1       4.893  33.127  59.713  1.00  0.00     0.014 A 
HETATM   31  C   UNL     1       4.765  33.098  61.110  1.00  0.00     0.017 A 
HETATM   32  C   UNL     1       4.085  34.115  61.787  1.00  0.00     0.025 A 
HETATM   33  C   UNL     1       3.532  35.171  61.068  1.00  0.00     0.034 A 
HETATM   34 CL   UNL     1       2.693  36.423  61.898  1.00  0.00    -0.084 Cl
HETATM   35  C   UNL     1       3.649  35.218  59.681  1.00  0.00     0.025 A 
HETATM   36  C   UNL     1       4.328  34.198  59.005  1.00  0.00     0.017 A 
ENDBRANCH   7  30
TORSDOF 5
ENDMDL
MODEL 10
REMARK VINA RESULT:      -8.1      5.615      7.972
REMARK  5 active torsions:
REMARK  status: ('A' for Active; 'I' for Inactive)
REMARK    1  A    between atoms: C_7  and  C_8 
REMARK    2  A    between atoms: C_16  and  C_17 
REMARK    3  A    between atoms: C_19  and  O_20 
REMARK    4  A    between atoms: C_24  and  C_25 
REMARK       I    between atoms: C_25  and  N_26 
REMARK    5  A    between atoms: N_26  and  C_27 
ROOT
HETATM    1  C   UNL     1       2.428  32.543  51.964  1.00  0.00     0.070 C 
HETATM    2  C   UNL     1       3.328  31.337  51.838  1.00  0.00     0.037 C 
HETATM    3  N   UNL     1       3.222  30.395  52.862  1.00  0.00    -0.192 N 
HETATM    4  C   UNL     1       4.111  29.395  53.024  1.00  0.00     0.726 A 
HETATM    5  N   UNL     1       5.034  29.164  52.047  1.00  0.00    -0.083 N 
HETATM    6  N   UNL     1       5.886  28.180  52.386  1.00  0.00    -0.135 NA
HETATM    7  C   UNL     1       5.395  27.809  53.583  1.00  0.00     0.199 A 
HETATM    8  N   UNL     1       4.304  28.553  54.005  1.00  0.00    -0.041 NA
HETATM    9  C   UNL     1       5.080  29.888  50.776  1.00  0.00     0.202 C 
HETATM   10  C   UNL     1       4.209  31.140  50.824  1.00  0.00     0.062 C 
HETATM   11  H   UNL     1       2.632  30.642  53.654  1.00  0.00     0.184 HD
ENDROOT
BRANCH  10  12
HETATM   12  C   UNL     1       4.516  32.240  49.862  1.00  0.00     0.256 C 
HETATM   13  N   UNL     1       5.714  32.880  50.089  1.00  0.00    -0.323 N 
HETATM   14  H   UNL     1       6.304  32.549  50.841  1.00  0.00     0.169 HD
HETATM   15  O   UNL     1       3.696  32.514  48.993  1.00  0.00    -0.267 OA
BRANCH  13  16
HETATM   16  C   UNL     1       6.240  33.986  49.386  1.00  0.00     0.035 A 
HETATM   17  C   UNL     1       7.059  33.884  48.261  1.00  0.00     0.029 A 
HETATM   18  C   UNL     1       7.537  35.034  47.626  1.00  0.00     0.002 A 
HETATM   19  C   UNL     1       7.192  36.296  48.103  1.00  0.00     0.000 A 
HETATM   20  C   UNL     1       6.374  36.410  49.223  1.00  0.00     0.002 A 
HETATM   21  C   UNL     1       5.906  35.261  49.866  1.00  0.00     0.029 A 
ENDBRANCH  13  16
ENDBRANCH  10  12
BRANCH   9  22
HETATM   22  C   UNL     1       4.693  28.923  49.653  1.00  0.00    -0.025 A 
HETATM   23  C   UNL     1       5.639  28.453  48.722  1.00  0.00     0.046 A 
HETATM   24  C   UNL     1       5.252  27.562  47.725  1.00  0.00     0.066 A 
HETATM   25  C   UNL     1       3.936  27.133  47.623  1.00  0.00     0.036 A 
HETATM   26  C   UNL     1       2.984  27.608  48.523  1.00  0.00     0.003 A 
HETATM   27  C   UNL     1       3.358  28.497  49.532  1.00  0.00     0.010 A 
BRANCH  24  28
HETATM   28  O   UNL     1       6.147  27.077  46.819  1.00  0.00    -0.361 OA
HETATM   29  H   UNL     1       7.038  27.386  47.053  1.00  0.00     0.217 HD
ENDBRANCH  24  28
ENDBRANCH   9  22
BRANCH   7  30
HETATM   30  C   UNL     1       5.950  26.716  54.377  1.00  0.00     0.014 A 
HETATM   31  C   UNL     1       6.311  26.914  55.719  1.00  0.00     0.017 A 
HETATM   32  C   UNL     1       6.852  25.870  56.475  1.00  0.00     0.025 A 
HETATM   33  C   UNL     1       7.032  24.617  55.893  1.00  0.00     0.034 A 
HETATM   34 CL   UNL     1       7.699  23.331  56.821  1.00  0.00    -0.084 Cl
HETATM   35  C   UNL     1       6.678  24.401  54.563  1.00  0.00     0.025 A 
HETATM   36  C   UNL     1       6.139  25.448  53.806  1.00  0.00     0.017 A 
ENDBRANCH   7  30
TORSDOF 5
ENDMDL
