MODEL 1
REMARK VINA RESULT:      -9.4      0.000      0.000
REMARK  4 active torsions:
REMARK  status: ('A' for Active; 'I' for Inactive)
REMARK    1  A    between atoms: C_4  and  C_5 
REMARK    2  A    between atoms: C_5  and  N_6 
REMARK    3  A    between atoms: C_10  and  C_11 
REMARK    4  A    between atoms: C_15  and  N_16 
ROOT
HETATM    1  N   UNL     1       6.984  24.893  54.300  1.00  0.00    -0.064 N 
HETATM    2  H   UNL     1       7.581  24.607  55.084  1.00  0.00     0.280 HD
HETATM    3  C   UNL     1       7.589  26.166  53.759  1.00  0.00     0.263 C 
HETATM    4  C   UNL     1       7.244  27.381  54.554  1.00  0.00     0.008 C 
HETATM    5  C   UNL     1       6.350  27.406  55.558  1.00  0.00    -0.046 C 
HETATM    6  C   UNL     1       5.617  26.152  55.967  1.00  0.00     0.067 C 
HETATM    7  C   UNL     1       5.593  25.117  54.842  1.00  0.00     0.240 C 
ENDROOT
BRANCH   5   8
HETATM    8  C   UNL     1       5.984  28.596  56.263  1.00  0.00    -0.002 A 
HETATM    9  C   UNL     1       6.753  29.338  57.216  1.00  0.00     0.003 A 
HETATM   10  C   UNL     1       5.988  30.451  57.578  1.00  0.00     0.045 A 
HETATM   11  C   UNL     1       8.026  29.179  57.810  1.00  0.00     0.017 A 
HETATM   12  C   UNL     1       6.428  31.421  58.490  1.00  0.00     0.066 A 
HETATM   13  N   UNL     1       4.803  30.379  56.882  1.00  0.00    -0.364 N 
HETATM   14  C   UNL     1       7.701  31.240  59.054  1.00  0.00     0.105 A 
HETATM   15  C   UNL     1       8.492  30.134  58.725  1.00  0.00     0.037 A 
HETATM   16  H   UNL     1       4.057  31.061  56.946  1.00  0.00     0.165 HD
HETATM   17  C   UNL     1       4.794  29.268  56.080  1.00  0.00     0.101 A 
BRANCH  14  18
HETATM   18  N   UNL     1       8.208  32.237  60.008  1.00  0.00    -0.116 N 
HETATM   19  O   UNL     1       7.520  32.476  61.010  1.00  0.00    -0.532 OA
HETATM   20  O   UNL     1       9.292  32.779  59.750  1.00  0.00    -0.532 OA
ENDBRANCH  14  18
ENDBRANCH   5   8
BRANCH   1  21
HETATM   21  C   UNL     1       7.006  23.764  53.297  1.00  0.00     0.273 C 
BRANCH  21  22
HETATM   22  C   UNL     1       7.576  22.484  53.843  1.00  0.00    -0.033 A 
HETATM   23  C   UNL     1       8.050  21.491  52.972  1.00  0.00     0.009 A 
HETATM   24  C   UNL     1       8.580  20.304  53.478  1.00  0.00     0.001 A 
HETATM   25  C   UNL     1       8.635  20.094  54.854  1.00  0.00     0.000 A 
HETATM   26  C   UNL     1       8.164  21.070  55.728  1.00  0.00     0.001 A 
HETATM   27  C   UNL     1       7.636  22.262  55.227  1.00  0.00     0.009 A 
ENDBRANCH  21  22
ENDBRANCH   1  21
TORSDOF 4
ENDMDL
MODEL 2
REMARK VINA RESULT:      -9.4      4.340      9.099
REMARK  4 active torsions:
REMARK  status: ('A' for Active; 'I' for Inactive)
REMARK    1  A    between atoms: C_4  and  C_5 
REMARK    2  A    between atoms: C_5  and  N_6 
REMARK    3  A    between atoms: C_10  and  C_11 
REMARK    4  A    between atoms: C_15  and  N_16 
ROOT
HETATM    1  N   UNL     1       6.765  29.042  57.220  1.00  0.00    -0.064 N 
HETATM    2  H   UNL     1       7.513  28.653  57.805  1.00  0.00     0.280 HD
HETATM    3  C   UNL     1       5.718  27.962  57.107  1.00  0.00     0.263 C 
HETATM    4  C   UNL     1       6.047  26.907  56.104  1.00  0.00     0.008 C 
HETATM    5  C   UNL     1       7.080  26.969  55.246  1.00  0.00    -0.046 C 
HETATM    6  C   UNL     1       8.016  28.152  55.252  1.00  0.00     0.067 C 
HETATM    7  C   UNL     1       7.366  29.385  55.878  1.00  0.00     0.240 C 
ENDROOT
BRANCH   5   8
HETATM    8  C   UNL     1       7.338  25.978  54.246  1.00  0.00    -0.002 A 
HETATM    9  C   UNL     1       7.608  24.583  54.422  1.00  0.00     0.003 A 
HETATM   10  C   UNL     1       7.735  24.028  53.146  1.00  0.00     0.045 A 
HETATM   11  C   UNL     1       7.756  23.732  55.540  1.00  0.00     0.017 A 
HETATM   12  C   UNL     1       7.989  22.667  52.922  1.00  0.00     0.066 A 
HETATM   13  N   UNL     1       7.561  25.046  52.236  1.00  0.00    -0.364 N 
HETATM   14  C   UNL     1       8.120  21.846  54.053  1.00  0.00     0.105 A 
HETATM   15  C   UNL     1       8.011  22.365  55.348  1.00  0.00     0.037 A 
HETATM   16  H   UNL     1       7.596  24.930  51.231  1.00  0.00     0.165 HD
HETATM   17  C   UNL     1       7.314  26.225  52.889  1.00  0.00     0.101 A 
BRANCH  14  18
HETATM   18  N   UNL     1       8.378  20.410  53.867  1.00  0.00    -0.116 N 
HETATM   19  O   UNL     1       8.582  19.727  54.879  1.00  0.00    -0.532 OA
HETATM   20  O   UNL     1       8.378  19.972  52.707  1.00  0.00    -0.532 OA
ENDBRANCH  14  18
ENDBRANCH   5   8
BRANCH   1  21
HETATM   21  C   UNL     1       6.257  30.278  57.924  1.00  0.00     0.273 C 
BRANCH  21  22
HETATM   22  C   UNL     1       7.226  30.845  58.923  1.00  0.00    -0.033 A 
HETATM   23  C   UNL     1       8.383  30.131  59.272  1.00  0.00     0.009 A 
HETATM   24  C   UNL     1       9.284  30.658  60.199  1.00  0.00     0.001 A 
HETATM   25  C   UNL     1       9.036  31.895  60.789  1.00  0.00     0.000 A 
HETATM   26  C   UNL     1       7.889  32.610  60.454  1.00  0.00     0.001 A 
HETATM   27  C   UNL     1       6.987  32.090  59.525  1.00  0.00     0.009 A 
ENDBRANCH  21  22
ENDBRANCH   1  21
TORSDOF 4
ENDMDL
MODEL 3
REMARK VINA RESULT:      -9.2      4.213      8.978
REMARK  4 active torsions:
REMARK  status: ('A' for Active; 'I' for Inactive)
REMARK    1  A    between atoms: C_4  and  C_5 
REMARK    2  A    between atoms: C_5  and  N_6 
REMARK    3  A    between atoms: C_10  and  C_11 
REMARK    4  A    between atoms: C_15  and  N_16 
ROOT
HETATM    1  N   UNL     1       6.794  29.397  57.521  1.00  0.00    -0.064 N 
HETATM    2  H   UNL     1       7.301  28.903  58.264  1.00  0.00     0.280 HD
HETATM    3  C   UNL     1       5.470  28.688  57.377  1.00  0.00     0.263 C 
HETATM    4  C   UNL     1       5.546  27.427  56.582  1.00  0.00     0.008 C 
HETATM    5  C   UNL     1       6.632  27.021  55.902  1.00  0.00    -0.046 C 
HETATM    6  C   UNL     1       7.898  27.842  55.910  1.00  0.00     0.067 C 
HETATM    7  C   UNL     1       7.622  29.303  56.262  1.00  0.00     0.240 C 
ENDROOT
BRANCH   5   8
HETATM    8  C   UNL     1       6.663  25.843  55.090  1.00  0.00    -0.002 A 
HETATM    9  C   UNL     1       7.348  24.609  55.334  1.00  0.00     0.003 A 
HETATM   10  C   UNL     1       7.024  23.747  54.282  1.00  0.00     0.045 A 
HETATM   11  C   UNL     1       8.213  24.135  56.346  1.00  0.00     0.017 A 
HETATM   12  C   UNL     1       7.504  22.434  54.191  1.00  0.00     0.066 A 
HETATM   13  N   UNL     1       6.187  24.434  53.432  1.00  0.00    -0.364 N 
HETATM   14  C   UNL     1       8.352  21.989  55.217  1.00  0.00     0.105 A 
HETATM   15  C   UNL     1       8.709  22.824  56.281  1.00  0.00     0.037 A 
HETATM   16  H   UNL     1       5.790  24.050  52.583  1.00  0.00     0.165 HD
HETATM   17  C   UNL     1       5.957  25.695  53.914  1.00  0.00     0.101 A 
BRANCH  14  18
HETATM   18  N   UNL     1       8.874  20.614  55.167  1.00  0.00    -0.116 N 
HETATM   19  O   UNL     1       8.594  19.929  54.175  1.00  0.00    -0.532 OA
HETATM   20  O   UNL     1       9.559  20.226  56.124  1.00  0.00    -0.532 OA
ENDBRANCH  14  18
ENDBRANCH   5   8
BRANCH   1  21
HETATM   21  C   UNL     1       6.643  30.830  57.973  1.00  0.00     0.273 C 
BRANCH  21  22
HETATM   22  C   UNL     1       7.424  31.157  59.214  1.00  0.00    -0.033 A 
HETATM   23  C   UNL     1       7.115  32.301  59.966  1.00  0.00     0.009 A 
HETATM   24  C   UNL     1       7.840  32.604  61.119  1.00  0.00     0.001 A 
HETATM   25  C   UNL     1       8.881  31.775  61.528  1.00  0.00     0.000 A 
HETATM   26  C   UNL     1       9.201  30.639  60.788  1.00  0.00     0.001 A 
HETATM   27  C   UNL     1       8.476  30.330  59.636  1.00  0.00     0.009 A 
ENDBRANCH  21  22
ENDBRANCH   1  21
TORSDOF 4
ENDMDL
MODEL 4
REMARK VINA RESULT:      -9.2      4.287      9.135
REMARK  4 active torsions:
REMARK  status: ('A' for Active; 'I' for Inactive)
REMARK    1  A    between atoms: C_4  and  C_5 
REMARK    2  A    between atoms: C_5  and  N_6 
REMARK    3  A    between atoms: C_10  and  C_11 
REMARK    4  A    between atoms: C_15  and  N_16 
ROOT
HETATM    1  N   UNL     1       8.626  30.005  58.427  1.00  0.00    -0.064 N 
HETATM    2  H   UNL     1       8.799  29.342  59.191  1.00  0.00     0.280 HD
HETATM    3  C   UNL     1       7.159  29.886  58.095  1.00  0.00     0.263 C 
HETATM    4  C   UNL     1       6.829  28.708  57.240  1.00  0.00     0.008 C 
HETATM    5  C   UNL     1       7.742  27.907  56.662  1.00  0.00    -0.046 C 
HETATM    6  C   UNL     1       9.218  28.154  56.859  1.00  0.00     0.067 C 
HETATM    7  C   UNL     1       9.500  29.601  57.264  1.00  0.00     0.240 C 
ENDROOT
BRANCH   5   8
HETATM    8  C   UNL     1       7.407  26.823  55.791  1.00  0.00    -0.002 A 
HETATM    9  C   UNL     1       7.661  25.425  55.968  1.00  0.00     0.003 A 
HETATM   10  C   UNL     1       7.092  24.765  54.875  1.00  0.00     0.045 A 
HETATM   11  C   UNL     1       8.318  24.650  56.950  1.00  0.00     0.017 A 
HETATM   12  C   UNL     1       7.131  23.373  54.714  1.00  0.00     0.066 A 
HETATM   13  N   UNL     1       6.527  25.724  54.065  1.00  0.00    -0.364 N 
HETATM   14  C   UNL     1       7.781  22.630  55.711  1.00  0.00     0.105 A 
HETATM   15  C   UNL     1       8.373  23.255  56.816  1.00  0.00     0.037 A 
HETATM   16  H   UNL     1       6.039  25.529  53.200  1.00  0.00     0.165 HD
HETATM   17  C   UNL     1       6.704  26.967  54.612  1.00  0.00     0.101 A 
BRANCH  14  18
HETATM   18  N   UNL     1       7.839  21.166  55.589  1.00  0.00    -0.116 N 
HETATM   19  O   UNL     1       7.713  20.678  54.458  1.00  0.00    -0.532 OA
HETATM   20  O   UNL     1       8.007  20.510  56.627  1.00  0.00    -0.532 OA
ENDBRANCH  14  18
ENDBRANCH   5   8
BRANCH   1  21
HETATM   21  C   UNL     1       8.998  31.375  58.942  1.00  0.00     0.273 C 
BRANCH  21  22
HETATM   22  C   UNL     1       8.639  31.595  60.385  1.00  0.00    -0.033 A 
HETATM   23  C   UNL     1       9.006  30.654  61.358  1.00  0.00     0.009 A 
HETATM   24  C   UNL     1       8.673  30.858  62.698  1.00  0.00     0.001 A 
HETATM   25  C   UNL     1       7.967  31.997  63.077  1.00  0.00     0.000 A 
HETATM   26  C   UNL     1       7.592  32.936  62.119  1.00  0.00     0.001 A 
HETATM   27  C   UNL     1       7.926  32.739  60.778  1.00  0.00     0.009 A 
ENDBRANCH  21  22
ENDBRANCH   1  21
TORSDOF 4
ENDMDL
MODEL 5
REMARK VINA RESULT:      -8.9      5.908      8.674
REMARK  4 active torsions:
REMARK  status: ('A' for Active; 'I' for Inactive)
REMARK    1  A    between atoms: C_4  and  C_5 
REMARK    2  A    between atoms: C_5  and  N_6 
REMARK    3  A    between atoms: C_10  and  C_11 
REMARK    4  A    between atoms: C_15  and  N_16 
ROOT
HETATM    1  N   UNL     1       5.425  27.730  50.393  1.00  0.00    -0.064 N 
HETATM    2  H   UNL     1       6.331  27.492  49.975  1.00  0.00     0.280 HD
HETATM    3  C   UNL     1       5.735  28.436  51.690  1.00  0.00     0.263 C 
HETATM    4  C   UNL     1       6.085  27.512  52.809  1.00  0.00     0.008 C 
HETATM    5  C   UNL     1       5.979  26.172  52.751  1.00  0.00    -0.046 C 
HETATM    6  C   UNL     1       5.490  25.492  51.497  1.00  0.00     0.067 C 
HETATM    7  C   UNL     1       4.673  26.441  50.620  1.00  0.00     0.240 C 
ENDROOT
BRANCH   5   8
HETATM    8  C   UNL     1       6.255  25.309  53.858  1.00  0.00    -0.002 A 
HETATM    9  C   UNL     1       6.968  24.066  53.862  1.00  0.00     0.003 A 
HETATM   10  C   UNL     1       7.022  23.632  55.190  1.00  0.00     0.045 A 
HETATM   11  C   UNL     1       7.575  23.263  52.870  1.00  0.00     0.017 A 
HETATM   12  C   UNL     1       7.661  22.448  55.585  1.00  0.00     0.066 A 
HETATM   13  N   UNL     1       6.362  24.566  55.955  1.00  0.00    -0.364 N 
HETATM   14  C   UNL     1       8.263  21.679  54.578  1.00  0.00     0.105 A 
HETATM   15  C   UNL     1       8.221  22.073  53.236  1.00  0.00     0.037 A 
HETATM   16  H   UNL     1       6.250  24.511  56.960  1.00  0.00     0.165 HD
HETATM   17  C   UNL     1       5.902  25.585  55.162  1.00  0.00     0.101 A 
BRANCH  14  18
HETATM   18  N   UNL     1       8.953  20.433  54.947  1.00  0.00    -0.116 N 
HETATM   19  O   UNL     1       9.524  20.396  56.045  1.00  0.00    -0.532 OA
HETATM   20  O   UNL     1       8.922  19.498  54.134  1.00  0.00    -0.532 OA
ENDBRANCH  14  18
ENDBRANCH   5   8
BRANCH   1  21
HETATM   21  C   UNL     1       4.705  28.617  49.404  1.00  0.00     0.273 C 
BRANCH  21  22
HETATM   22  C   UNL     1       3.589  27.923  48.674  1.00  0.00    -0.033 A 
HETATM   23  C   UNL     1       2.252  28.193  49.003  1.00  0.00     0.009 A 
HETATM   24  C   UNL     1       1.215  27.550  48.324  1.00  0.00     0.001 A 
HETATM   25  C   UNL     1       1.503  26.630  47.319  1.00  0.00     0.000 A 
HETATM   26  C   UNL     1       2.826  26.351  46.987  1.00  0.00     0.001 A 
HETATM   27  C   UNL     1       3.866  26.994  47.659  1.00  0.00     0.009 A 
ENDBRANCH  21  22
ENDBRANCH   1  21
TORSDOF 4
ENDMDL
MODEL 6
REMARK VINA RESULT:      -8.9      1.662      2.370
REMARK  4 active torsions:
REMARK  status: ('A' for Active; 'I' for Inactive)
REMARK    1  A    between atoms: C_4  and  C_5 
REMARK    2  A    between atoms: C_5  and  N_6 
REMARK    3  A    between atoms: C_10  and  C_11 
REMARK    4  A    between atoms: C_15  and  N_16 
ROOT
HETATM    1  N   UNL     1       7.322  24.953  54.729  1.00  0.00    -0.064 N 
HETATM    2  H   UNL     1       8.292  24.703  54.953  1.00  0.00     0.280 HD
HETATM    3  C   UNL     1       7.393  26.245  53.953  1.00  0.00     0.263 C 
HETATM    4  C   UNL     1       7.580  27.453  54.811  1.00  0.00     0.008 C 
HETATM    5  C   UNL     1       7.524  27.448  56.154  1.00  0.00    -0.046 C 
HETATM    6  C   UNL     1       7.269  26.167  56.910  1.00  0.00     0.067 C 
HETATM    7  C   UNL     1       6.581  25.120  56.034  1.00  0.00     0.240 C 
ENDROOT
BRANCH   5   8
HETATM    8  C   UNL     1       7.638  28.628  56.955  1.00  0.00    -0.002 A 
HETATM    9  C   UNL     1       6.602  29.520  57.381  1.00  0.00     0.003 A 
HETATM   10  C   UNL     1       7.204  30.488  58.190  1.00  0.00     0.045 A 
HETATM   11  C   UNL     1       5.208  29.604  57.161  1.00  0.00     0.017 A 
HETATM   12  C   UNL     1       6.491  31.527  58.804  1.00  0.00     0.066 A 
HETATM   13  N   UNL     1       8.549  30.200  58.244  1.00  0.00    -0.364 N 
HETATM   14  C   UNL     1       5.107  31.577  58.575  1.00  0.00     0.105 A 
HETATM   15  C   UNL     1       4.469  30.634  57.762  1.00  0.00     0.037 A 
HETATM   16  H   UNL     1       9.231  30.736  58.766  1.00  0.00     0.165 HD
HETATM   17  C   UNL     1       8.820  29.076  57.509  1.00  0.00     0.101 A 
BRANCH  14  18
HETATM   18  N   UNL     1       4.316  32.645  59.205  1.00  0.00    -0.116 N 
HETATM   19  O   UNL     1       3.084  32.522  59.209  1.00  0.00    -0.532 OA
HETATM   20  O   UNL     1       4.932  33.604  59.692  1.00  0.00    -0.532 OA
ENDBRANCH  14  18
ENDBRANCH   5   8
BRANCH   1  21
HETATM   21  C   UNL     1       6.751  23.815  53.917  1.00  0.00     0.273 C 
BRANCH  21  22
HETATM   22  C   UNL     1       7.455  22.505  54.137  1.00  0.00    -0.033 A 
HETATM   23  C   UNL     1       7.951  21.775  53.047  1.00  0.00     0.009 A 
HETATM   24  C   UNL     1       8.605  20.559  53.251  1.00  0.00     0.001 A 
HETATM   25  C   UNL     1       8.764  20.059  54.542  1.00  0.00     0.000 A 
HETATM   26  C   UNL     1       8.271  20.772  55.632  1.00  0.00     0.001 A 
HETATM   27  C   UNL     1       7.620  21.991  55.433  1.00  0.00     0.009 A 
ENDBRANCH  21  22
ENDBRANCH   1  21
TORSDOF 4
ENDMDL
MODEL 7
REMARK VINA RESULT:      -8.2      4.686      9.301
REMARK  4 active torsions:
REMARK  status: ('A' for Active; 'I' for Inactive)
REMARK    1  A    between atoms: C_4  and  C_5 
REMARK    2  A    between atoms: C_5  and  N_6 
REMARK    3  A    between atoms: C_10  and  C_11 
REMARK    4  A    between atoms: C_15  and  N_16 
ROOT
HETATM    1  N   UNL     1       7.420  30.681  59.084  1.00  0.00    -0.064 N 
HETATM    2  H   UNL     1       6.997  30.209  59.891  1.00  0.00     0.280 HD
HETATM    3  C   UNL     1       6.274  31.088  58.191  1.00  0.00     0.263 C 
HETATM    4  C   UNL     1       5.743  29.976  57.348  1.00  0.00     0.008 C 
HETATM    5  C   UNL     1       6.313  28.763  57.243  1.00  0.00    -0.046 C 
HETATM    6  C   UNL     1       7.570  28.433  58.009  1.00  0.00     0.067 C 
HETATM    7  C   UNL     1       8.339  29.694  58.406  1.00  0.00     0.240 C 
ENDROOT
BRANCH   5   8
HETATM    8  C   UNL     1       5.827  27.733  56.377  1.00  0.00    -0.002 A 
HETATM    9  C   UNL     1       5.737  27.738  54.948  1.00  0.00     0.003 A 
HETATM   10  C   UNL     1       5.252  26.484  54.565  1.00  0.00     0.045 A 
HETATM   11  C   UNL     1       6.021  28.684  53.936  1.00  0.00     0.017 A 
HETATM   12  C   UNL     1       5.047  26.116  53.228  1.00  0.00     0.066 A 
HETATM   13  N   UNL     1       5.046  25.755  55.714  1.00  0.00    -0.364 N 
HETATM   14  C   UNL     1       5.348  27.073  52.246  1.00  0.00     0.105 A 
HETATM   15  C   UNL     1       5.825  28.343  52.589  1.00  0.00     0.037 A 
HETATM   16  H   UNL     1       4.701  24.804  55.736  1.00  0.00     0.165 HD
HETATM   17  C   UNL     1       5.397  26.496  56.812  1.00  0.00     0.101 A 
BRANCH  14  18
HETATM   18  N   UNL     1       5.157  26.729  50.829  1.00  0.00    -0.116 N 
HETATM   19  O   UNL     1       5.375  27.611  49.989  1.00  0.00    -0.532 OA
HETATM   20  O   UNL     1       4.786  25.576  50.564  1.00  0.00    -0.532 OA
ENDBRANCH  14  18
ENDBRANCH   5   8
BRANCH   1  21
HETATM   21  C   UNL     1       8.189  31.864  59.623  1.00  0.00     0.273 C 
BRANCH  21  22
HETATM   22  C   UNL     1       7.749  32.296  60.994  1.00  0.00    -0.033 A 
HETATM   23  C   UNL     1       8.540  32.008  62.116  1.00  0.00     0.009 A 
HETATM   24  C   UNL     1       8.132  32.410  63.389  1.00  0.00     0.001 A 
HETATM   25  C   UNL     1       6.931  33.095  63.553  1.00  0.00     0.000 A 
HETATM   26  C   UNL     1       6.135  33.383  62.448  1.00  0.00     0.001 A 
HETATM   27  C   UNL     1       6.540  32.987  61.172  1.00  0.00     0.009 A 
ENDBRANCH  21  22
ENDBRANCH   1  21
TORSDOF 4
ENDMDL
MODEL 8
REMARK VINA RESULT:      -8.2      4.535      9.147
REMARK  4 active torsions:
REMARK  status: ('A' for Active; 'I' for Inactive)
REMARK    1  A    between atoms: C_4  and  C_5 
REMARK    2  A    between atoms: C_5  and  N_6 
REMARK    3  A    between atoms: C_10  and  C_11 
REMARK    4  A    between atoms: C_15  and  N_16 
ROOT
HETATM    1  N   UNL     1       5.493  28.622  56.937  1.00  0.00    -0.064 N 
HETATM    2  H   UNL     1       5.429  27.902  57.664  1.00  0.00     0.280 HD
HETATM    3  C   UNL     1       4.596  28.163  55.814  1.00  0.00     0.263 C 
HETATM    4  C   UNL     1       5.213  27.126  54.937  1.00  0.00     0.008 C 
HETATM    5  C   UNL     1       6.499  26.738  55.005  1.00  0.00    -0.046 C 
HETATM    6  C   UNL     1       7.433  27.345  56.022  1.00  0.00     0.067 C 
HETATM    7  C   UNL     1       6.937  28.708  56.504  1.00  0.00     0.240 C 
ENDROOT
BRANCH   5   8
HETATM    8  C   UNL     1       7.088  25.790  54.110  1.00  0.00    -0.002 A 
HETATM    9  C   UNL     1       7.362  24.403  54.335  1.00  0.00     0.003 A 
HETATM   10  C   UNL     1       7.886  23.892  53.144  1.00  0.00     0.045 A 
HETATM   11  C   UNL     1       7.218  23.525  55.433  1.00  0.00     0.017 A 
HETATM   12  C   UNL     1       8.262  22.551  52.983  1.00  0.00     0.066 A 
HETATM   13  N   UNL     1       7.937  24.928  52.240  1.00  0.00    -0.364 N 
HETATM   14  C   UNL     1       8.096  21.702  54.088  1.00  0.00     0.105 A 
HETATM   15  C   UNL     1       7.585  22.177  55.301  1.00  0.00     0.037 A 
HETATM   16  H   UNL     1       8.271  24.844  51.288  1.00  0.00     0.165 HD
HETATM   17  C   UNL     1       7.450  26.076  52.809  1.00  0.00     0.101 A 
BRANCH  14  18
HETATM   18  N   UNL     1       8.468  20.285  53.963  1.00  0.00    -0.116 N 
HETATM   19  O   UNL     1       8.633  19.832  52.822  1.00  0.00    -0.532 OA
HETATM   20  O   UNL     1       8.591  19.629  55.007  1.00  0.00    -0.532 OA
ENDBRANCH  14  18
ENDBRANCH   5   8
BRANCH   1  21
HETATM   21  C   UNL     1       5.031  29.918  57.562  1.00  0.00     0.273 C 
BRANCH  21  22
HETATM   22  C   UNL     1       4.337  30.838  56.596  1.00  0.00    -0.033 A 
HETATM   23  C   UNL     1       2.939  30.820  56.480  1.00  0.00     0.009 A 
HETATM   24  C   UNL     1       2.294  31.675  55.584  1.00  0.00     0.001 A 
HETATM   25  C   UNL     1       3.038  32.549  54.795  1.00  0.00     0.000 A 
HETATM   26  C   UNL     1       4.427  32.573  54.898  1.00  0.00     0.001 A 
HETATM   27  C   UNL     1       5.076  31.723  55.795  1.00  0.00     0.009 A 
ENDBRANCH  21  22
ENDBRANCH   1  21
TORSDOF 4
ENDMDL
MODEL 9
REMARK VINA RESULT:      -8.1      1.948      2.993
REMARK  4 active torsions:
REMARK  status: ('A' for Active; 'I' for Inactive)
REMARK    1  A    between atoms: C_4  and  C_5 
REMARK    2  A    between atoms: C_5  and  N_6 
REMARK    3  A    between atoms: C_10  and  C_11 
REMARK    4  A    between atoms: C_15  and  N_16 
ROOT
HETATM    1  N   UNL     1       6.635  25.993  55.093  1.00  0.00    -0.064 N 
HETATM    2  H   UNL     1       7.649  25.840  55.117  1.00  0.00     0.280 HD
HETATM    3  C   UNL     1       6.427  27.303  54.375  1.00  0.00     0.263 C 
HETATM    4  C   UNL     1       6.657  28.503  55.233  1.00  0.00     0.008 C 
HETATM    5  C   UNL     1       6.863  28.460  56.561  1.00  0.00    -0.046 C 
HETATM    6  C   UNL     1       6.887  27.142  57.295  1.00  0.00     0.067 C 
HETATM    7  C   UNL     1       6.148  26.050  56.521  1.00  0.00     0.240 C 
ENDROOT
BRANCH   5   8
HETATM    8  C   UNL     1       7.015  29.626  57.376  1.00  0.00    -0.002 A 
HETATM    9  C   UNL     1       5.997  30.498  57.883  1.00  0.00     0.003 A 
HETATM   10  C   UNL     1       6.638  31.457  58.672  1.00  0.00     0.045 A 
HETATM   11  C   UNL     1       4.592  30.569  57.751  1.00  0.00     0.017 A 
HETATM   12  C   UNL     1       5.953  32.476  59.349  1.00  0.00     0.066 A 
HETATM   13  N   UNL     1       7.986  31.184  58.636  1.00  0.00    -0.364 N 
HETATM   14  C   UNL     1       4.558  32.514  59.207  1.00  0.00     0.105 A 
HETATM   15  C   UNL     1       3.880  31.579  58.417  1.00  0.00     0.037 A 
HETATM   16  H   UNL     1       8.694  31.719  59.126  1.00  0.00     0.165 HD
HETATM   17  C   UNL     1       8.224  30.077  57.864  1.00  0.00     0.101 A 
BRANCH  14  18
HETATM   18  N   UNL     1       3.796  33.560  59.906  1.00  0.00    -0.116 N 
HETATM   19  O   UNL     1       4.426  34.530  60.349  1.00  0.00    -0.532 OA
HETATM   20  O   UNL     1       2.571  33.405  60.011  1.00  0.00    -0.532 OA
ENDBRANCH  14  18
ENDBRANCH   5   8
BRANCH   1  21
HETATM   21  C   UNL     1       6.032  24.821  54.356  1.00  0.00     0.273 C 
BRANCH  21  22
HETATM   22  C   UNL     1       6.943  23.628  54.270  1.00  0.00    -0.033 A 
HETATM   23  C   UNL     1       7.346  22.959  55.436  1.00  0.00     0.009 A 
HETATM   24  C   UNL     1       8.191  21.851  55.357  1.00  0.00     0.001 A 
HETATM   25  C   UNL     1       8.646  21.407  54.118  1.00  0.00     0.000 A 
HETATM   26  C   UNL     1       8.257  22.066  52.954  1.00  0.00     0.001 A 
HETATM   27  C   UNL     1       7.409  23.172  53.027  1.00  0.00     0.009 A 
ENDBRANCH  21  22
ENDBRANCH   1  21
TORSDOF 4
ENDMDL
MODEL 10
REMARK VINA RESULT:      -8.0      5.653      9.084
REMARK  4 active torsions:
REMARK  status: ('A' for Active; 'I' for Inactive)
REMARK    1  A    between atoms: C_4  and  C_5 
REMARK    2  A    between atoms: C_5  and  N_6 
REMARK    3  A    between atoms: C_10  and  C_11 
REMARK    4  A    between atoms: C_15  and  N_16 
ROOT
HETATM    1  N   UNL     1       5.321  27.755  50.444  1.00  0.00    -0.064 N 
HETATM    2  H   UNL     1       6.319  27.852  50.225  1.00  0.00     0.280 HD
HETATM    3  C   UNL     1       5.131  28.372  51.807  1.00  0.00     0.263 C 
HETATM    4  C   UNL     1       5.535  27.479  52.933  1.00  0.00     0.008 C 
HETATM    5  C   UNL     1       5.878  26.186  52.794  1.00  0.00    -0.046 C 
HETATM    6  C   UNL     1       5.887  25.534  51.434  1.00  0.00     0.067 C 
HETATM    7  C   UNL     1       4.995  26.281  50.442  1.00  0.00     0.240 C 
ENDROOT
BRANCH   5   8
HETATM    8  C   UNL     1       6.197  25.329  53.894  1.00  0.00    -0.002 A 
HETATM    9  C   UNL     1       6.886  24.074  53.876  1.00  0.00     0.003 A 
HETATM   10  C   UNL     1       7.003  23.653  55.204  1.00  0.00     0.045 A 
HETATM   11  C   UNL     1       7.425  23.249  52.863  1.00  0.00     0.017 A 
HETATM   12  C   UNL     1       7.641  22.462  55.578  1.00  0.00     0.066 A 
HETATM   13  N   UNL     1       6.401  24.608  55.991  1.00  0.00    -0.364 N 
HETATM   14  C   UNL     1       8.175  21.671  54.550  1.00  0.00     0.105 A 
HETATM   15  C   UNL     1       8.069  22.051  53.207  1.00  0.00     0.037 A 
HETATM   16  H   UNL     1       6.342  24.565  57.002  1.00  0.00     0.165 HD
HETATM   17  C   UNL     1       5.919  25.627  55.213  1.00  0.00     0.101 A 
BRANCH  14  18
HETATM   18  N   UNL     1       8.861  20.416  54.896  1.00  0.00    -0.116 N 
HETATM   19  O   UNL     1       9.282  20.292  56.054  1.00  0.00    -0.532 OA
HETATM   20  O   UNL     1       8.976  19.561  54.007  1.00  0.00    -0.532 OA
ENDBRANCH  14  18
ENDBRANCH   5   8
BRANCH   1  21
HETATM   21  C   UNL     1       4.562  28.485  49.361  1.00  0.00     0.273 C 
BRANCH  21  22
HETATM   22  C   UNL     1       4.700  29.981  49.432  1.00  0.00    -0.033 A 
HETATM   23  C   UNL     1       3.560  30.796  49.493  1.00  0.00     0.009 A 
HETATM   24  C   UNL     1       3.689  32.184  49.560  1.00  0.00     0.001 A 
HETATM   25  C   UNL     1       4.952  32.770  49.559  1.00  0.00     0.000 A 
HETATM   26  C   UNL     1       6.091  31.971  49.494  1.00  0.00     0.001 A 
HETATM   27  C   UNL     1       5.968  30.582  49.431  1.00  0.00     0.009 A 
ENDBRANCH  21  22
ENDBRANCH   1  21
TORSDOF 4
ENDMDL
