MODEL 1
REMARK VINA RESULT:     -10.3      0.000      0.000
REMARK  6 active torsions:
REMARK  status: ('A' for Active; 'I' for Inactive)
REMARK    1  A    between atoms: C_6  and  C_7 
REMARK    2  A    between atoms: N_9  and  C_10 
REMARK    3  A    between atoms: C_10  and  C_11 
REMARK    4  A    between atoms: C_18  and  C_19 
REMARK       I    between atoms: C_19  and  N_20 
REMARK    5  A    between atoms: N_20  and  C_21 
REMARK    6  A    between atoms: C_24  and  O_25 
ROOT
HETATM    1  C   UNL     1       6.869  25.613  55.259  1.00  0.00     0.104 A 
HETATM    2  N   UNL     1       7.427  26.064  56.396  1.00  0.00    -0.171 NA
HETATM    3  N   UNL     1       6.801  27.229  56.645  1.00  0.00    -0.275 N 
HETATM    4  C   UNL     1       5.845  27.534  55.724  1.00  0.00     0.132 A 
HETATM    5  C   UNL     1       5.895  26.538  54.768  1.00  0.00     0.080 A 
ENDROOT
BRANCH   5   6
HETATM    6  C   UNL     1       5.092  26.523  53.558  1.00  0.00     0.255 C 
HETATM    7  N   UNL     1       4.920  27.760  52.978  1.00  0.00    -0.352 N 
HETATM    8  H   UNL     1       5.298  28.566  53.459  1.00  0.00     0.163 HD
HETATM    9  O   UNL     1       4.583  25.496  53.121  1.00  0.00    -0.268 OA
BRANCH   7  10
HETATM   10  C   UNL     1       4.172  27.961  51.746  1.00  0.00     0.084 C 
HETATM   11  C   UNL     1       3.040  28.983  51.916  1.00  0.00     0.028 C 
HETATM   12  C   UNL     1       3.559  30.411  52.093  1.00  0.00     0.034 C 
HETATM   13  C   UNL     1       4.528  30.829  50.989  1.00  0.00     0.118 C 
HETATM   14  C   UNL     1       5.643  29.807  50.774  1.00  0.00     0.034 C 
HETATM   15  C   UNL     1       5.116  28.378  50.609  1.00  0.00     0.028 C 
BRANCH  13  16
HETATM   16  O   UNL     1       3.825  31.040  49.767  1.00  0.00    -0.396 OA
HETATM   17  H   UNL     1       3.343  31.882  49.816  1.00  0.00     0.210 HD
ENDBRANCH  13  16
ENDBRANCH   7  10
ENDBRANCH   5   6
BRANCH   1  18
HETATM   18  C   UNL     1       7.293  24.328  54.696  1.00  0.00    -0.004 A 
HETATM   19  C   UNL     1       7.315  23.164  55.475  1.00  0.00     0.021 A 
HETATM   20  C   UNL     1       7.675  21.921  54.925  1.00  0.00    -0.055 A 
HETATM   21  C   UNL     1       8.072  21.854  53.575  1.00  0.00    -0.056 A 
HETATM   22  C   UNL     1       7.667  20.702  55.806  1.00  0.00     0.049 C 
HETATM   23  C   UNL     1       8.481  20.555  52.937  1.00  0.00     0.049 C 
HETATM   24  C   UNL     1       8.064  23.024  52.800  1.00  0.00     0.008 A 
HETATM   25  C   UNL     1       7.681  24.247  53.355  1.00  0.00     0.014 A 
ENDBRANCH   1  18
BRANCH   3  26
HETATM   26  C   UNL     1       7.174  28.021  57.811  1.00  0.00     0.189 C 
BRANCH  26  27
HETATM   27  C   UNL     1       8.365  28.909  57.534  1.00  0.00    -0.038 A 
HETATM   28  C   UNL     1       8.794  29.842  58.488  1.00  0.00     0.009 A 
HETATM   29  C   UNL     1       9.907  30.650  58.239  1.00  0.00     0.001 A 
HETATM   30  C   UNL     1      10.603  30.533  57.039  1.00  0.00     0.000 A 
HETATM   31  C   UNL     1      10.194  29.602  56.086  1.00  0.00     0.001 A 
HETATM   32  C   UNL     1       9.087  28.790  56.334  1.00  0.00     0.009 A 
ENDBRANCH  26  27
ENDBRANCH   3  26
TORSDOF 6
ENDMDL
MODEL 2
REMARK VINA RESULT:     -10.0      2.449      3.866
REMARK  6 active torsions:
REMARK  status: ('A' for Active; 'I' for Inactive)
REMARK    1  A    between atoms: C_6  and  C_7 
REMARK    2  A    between atoms: N_9  and  C_10 
REMARK    3  A    between atoms: C_10  and  C_11 
REMARK    4  A    between atoms: C_18  and  C_19 
REMARK       I    between atoms: C_19  and  N_20 
REMARK    5  A    between atoms: N_20  and  C_21 
REMARK    6  A    between atoms: C_24  and  O_25 
ROOT
HETATM    1  C   UNL     1       7.682  28.182  56.961  1.00  0.00     0.104 A 
HETATM    2  N   UNL     1       8.766  28.605  57.635  1.00  0.00    -0.171 NA
HETATM    3  N   UNL     1       8.494  29.884  57.954  1.00  0.00    -0.275 N 
HETATM    4  C   UNL     1       7.267  30.294  57.530  1.00  0.00     0.132 A 
HETATM    5  C   UNL     1       6.724  29.237  56.825  1.00  0.00     0.080 A 
ENDROOT
BRANCH   5   6
HETATM    6  C   UNL     1       5.451  29.283  56.129  1.00  0.00     0.255 C 
HETATM    7  N   UNL     1       5.559  29.349  54.757  1.00  0.00    -0.352 N 
HETATM    8  H   UNL     1       6.485  29.422  54.358  1.00  0.00     0.163 HD
HETATM    9  O   UNL     1       4.379  29.303  56.723  1.00  0.00    -0.268 OA
BRANCH   7  10
HETATM   10  C   UNL     1       4.404  29.376  53.872  1.00  0.00     0.084 C 
HETATM   11  C   UNL     1       4.755  29.914  52.479  1.00  0.00     0.028 C 
HETATM   12  C   UNL     1       5.625  28.945  51.676  1.00  0.00     0.034 C 
HETATM   13  C   UNL     1       5.028  27.540  51.599  1.00  0.00     0.118 C 
HETATM   14  C   UNL     1       4.633  26.998  52.972  1.00  0.00     0.034 C 
HETATM   15  C   UNL     1       3.772  27.980  53.774  1.00  0.00     0.028 C 
BRANCH  13  16
HETATM   16  O   UNL     1       3.896  27.531  50.732  1.00  0.00    -0.396 OA
HETATM   17  H   UNL     1       4.193  27.642  49.815  1.00  0.00     0.210 HD
ENDBRANCH  13  16
ENDBRANCH   7  10
ENDBRANCH   5   6
BRANCH   1  18
HETATM   18  C   UNL     1       7.613  26.802  56.476  1.00  0.00    -0.004 A 
HETATM   19  C   UNL     1       7.635  26.510  55.106  1.00  0.00     0.021 A 
HETATM   20  C   UNL     1       7.618  25.183  54.639  1.00  0.00    -0.055 A 
HETATM   21  C   UNL     1       7.524  24.128  55.567  1.00  0.00    -0.056 A 
HETATM   22  C   UNL     1       7.657  24.929  53.157  1.00  0.00     0.049 C 
HETATM   23  C   UNL     1       7.488  22.691  55.126  1.00  0.00     0.049 C 
HETATM   24  C   UNL     1       7.487  24.423  56.938  1.00  0.00     0.008 A 
HETATM   25  C   UNL     1       7.529  25.744  57.387  1.00  0.00     0.014 A 
ENDBRANCH   1  18
BRANCH   3  26
HETATM   26  C   UNL     1       9.477  30.677  58.683  1.00  0.00     0.189 C 
BRANCH  26  27
HETATM   27  C   UNL     1       8.945  31.147  60.017  1.00  0.00    -0.038 A 
HETATM   28  C   UNL     1       9.162  30.389  61.177  1.00  0.00     0.009 A 
HETATM   29  C   UNL     1       8.686  30.833  62.413  1.00  0.00     0.001 A 
HETATM   30  C   UNL     1       7.994  32.038  62.506  1.00  0.00     0.000 A 
HETATM   31  C   UNL     1       7.781  32.807  61.363  1.00  0.00     0.001 A 
HETATM   32  C   UNL     1       8.259  32.369  60.128  1.00  0.00     0.009 A 
ENDBRANCH  26  27
ENDBRANCH   3  26
TORSDOF 6
ENDMDL
MODEL 3
REMARK VINA RESULT:      -9.9      2.533      7.872
REMARK  6 active torsions:
REMARK  status: ('A' for Active; 'I' for Inactive)
REMARK    1  A    between atoms: C_6  and  C_7 
REMARK    2  A    between atoms: N_9  and  C_10 
REMARK    3  A    between atoms: C_10  and  C_11 
REMARK    4  A    between atoms: C_18  and  C_19 
REMARK       I    between atoms: C_19  and  N_20 
REMARK    5  A    between atoms: N_20  and  C_21 
REMARK    6  A    between atoms: C_24  and  O_25 
ROOT
HETATM    1  C   UNL     1       6.794  27.432  55.642  1.00  0.00     0.104 A 
HETATM    2  N   UNL     1       5.828  27.932  54.850  1.00  0.00    -0.171 NA
HETATM    3  N   UNL     1       5.338  26.864  54.194  1.00  0.00    -0.275 N 
HETATM    4  C   UNL     1       5.935  25.693  54.549  1.00  0.00     0.132 A 
HETATM    5  C   UNL     1       6.933  26.022  55.447  1.00  0.00     0.080 A 
ENDROOT
BRANCH   5   6
HETATM    6  C   UNL     1       7.872  25.070  56.013  1.00  0.00     0.255 C 
HETATM    7  N   UNL     1       8.122  23.977  55.213  1.00  0.00    -0.352 N 
HETATM    8  H   UNL     1       7.601  23.893  54.350  1.00  0.00     0.163 HD
HETATM    9  O   UNL     1       8.363  25.217  57.127  1.00  0.00    -0.268 OA
BRANCH   7  10
HETATM   10  C   UNL     1       9.051  22.921  55.583  1.00  0.00     0.084 C 
HETATM   11  C   UNL     1       8.375  21.818  56.410  1.00  0.00     0.028 C 
HETATM   12  C   UNL     1       7.403  20.976  55.583  1.00  0.00     0.034 C 
HETATM   13  C   UNL     1       8.040  20.412  54.314  1.00  0.00     0.118 C 
HETATM   14  C   UNL     1       8.754  21.485  53.493  1.00  0.00     0.034 C 
HETATM   15  C   UNL     1       9.718  22.332  54.331  1.00  0.00     0.028 C 
BRANCH  13  16
HETATM   16  O   UNL     1       8.953  19.368  54.642  1.00  0.00    -0.396 OA
HETATM   17  H   UNL     1       9.308  19.519  55.532  1.00  0.00     0.210 HD
ENDBRANCH  13  16
ENDBRANCH   7  10
ENDBRANCH   5   6
BRANCH   1  18
HETATM   18  C   UNL     1       7.537  28.321  56.538  1.00  0.00    -0.004 A 
HETATM   19  C   UNL     1       8.905  28.561  56.353  1.00  0.00     0.021 A 
HETATM   20  C   UNL     1       9.611  29.451  57.183  1.00  0.00    -0.055 A 
HETATM   21  C   UNL     1       8.941  30.073  58.254  1.00  0.00    -0.056 A 
HETATM   22  C   UNL     1      11.076  29.682  56.929  1.00  0.00     0.049 C 
HETATM   23  C   UNL     1       9.648  31.022  59.182  1.00  0.00     0.049 C 
HETATM   24  C   UNL     1       7.575  29.818  58.448  1.00  0.00     0.008 A 
HETATM   25  C   UNL     1       6.882  28.951  57.601  1.00  0.00     0.014 A 
ENDBRANCH   1  18
BRANCH   3  26
HETATM   26  C   UNL     1       4.270  27.038  53.216  1.00  0.00     0.189 C 
BRANCH  26  27
HETATM   27  C   UNL     1       4.756  27.736  51.967  1.00  0.00    -0.038 A 
HETATM   28  C   UNL     1       4.949  27.017  50.779  1.00  0.00     0.009 A 
HETATM   29  C   UNL     1       5.381  27.665  49.619  1.00  0.00     0.001 A 
HETATM   30  C   UNL     1       5.621  29.037  49.632  1.00  0.00     0.000 A 
HETATM   31  C   UNL     1       5.424  29.766  50.803  1.00  0.00     0.001 A 
HETATM   32  C   UNL     1       4.988  29.122  51.962  1.00  0.00     0.009 A 
ENDBRANCH  26  27
ENDBRANCH   3  26
TORSDOF 6
ENDMDL
MODEL 4
REMARK VINA RESULT:      -9.7      2.672      7.014
REMARK  6 active torsions:
REMARK  status: ('A' for Active; 'I' for Inactive)
REMARK    1  A    between atoms: C_6  and  C_7 
REMARK    2  A    between atoms: N_9  and  C_10 
REMARK    3  A    between atoms: C_10  and  C_11 
REMARK    4  A    between atoms: C_18  and  C_19 
REMARK       I    between atoms: C_19  and  N_20 
REMARK    5  A    between atoms: N_20  and  C_21 
REMARK    6  A    between atoms: C_24  and  O_25 
ROOT
HETATM    1  C   UNL     1       5.811  26.627  52.460  1.00  0.00     0.104 A 
HETATM    2  N   UNL     1       5.877  26.548  51.120  1.00  0.00    -0.171 NA
HETATM    3  N   UNL     1       5.436  27.742  50.684  1.00  0.00    -0.275 N 
HETATM    4  C   UNL     1       5.110  28.596  51.693  1.00  0.00     0.132 A 
HETATM    5  C   UNL     1       5.281  27.891  52.870  1.00  0.00     0.080 A 
ENDROOT
BRANCH   5   6
HETATM    6  C   UNL     1       4.961  28.408  54.188  1.00  0.00     0.255 C 
HETATM    7  N   UNL     1       6.045  28.900  54.881  1.00  0.00    -0.352 N 
HETATM    8  H   UNL     1       6.959  28.808  54.457  1.00  0.00     0.163 HD
HETATM    9  O   UNL     1       3.827  28.367  54.652  1.00  0.00    -0.268 OA
BRANCH   7  10
HETATM   10  C   UNL     1       5.938  29.488  56.208  1.00  0.00     0.084 C 
HETATM   11  C   UNL     1       5.788  28.422  57.302  1.00  0.00     0.028 C 
HETATM   12  C   UNL     1       7.071  27.619  57.520  1.00  0.00     0.034 C 
HETATM   13  C   UNL     1       8.290  28.508  57.768  1.00  0.00     0.118 C 
HETATM   14  C   UNL     1       8.438  29.603  56.713  1.00  0.00     0.034 C 
HETATM   15  C   UNL     1       7.145  30.394  56.492  1.00  0.00     0.028 C 
BRANCH  13  16
HETATM   16  O   UNL     1       8.218  29.094  59.065  1.00  0.00    -0.396 OA
HETATM   17  H   UNL     1       8.099  30.053  58.977  1.00  0.00     0.210 HD
ENDBRANCH  13  16
ENDBRANCH   7  10
ENDBRANCH   5   6
BRANCH   1  18
HETATM   18  C   UNL     1       6.250  25.497  53.283  1.00  0.00    -0.004 A 
HETATM   19  C   UNL     1       6.854  24.371  52.709  1.00  0.00     0.021 A 
HETATM   20  C   UNL     1       7.320  23.306  53.501  1.00  0.00    -0.055 A 
HETATM   21  C   UNL     1       7.128  23.349  54.896  1.00  0.00    -0.056 A 
HETATM   22  C   UNL     1       7.975  22.129  52.831  1.00  0.00     0.049 C 
HETATM   23  C   UNL     1       7.593  22.233  55.790  1.00  0.00     0.049 C 
HETATM   24  C   UNL     1       6.508  24.470  55.467  1.00  0.00     0.008 A 
HETATM   25  C   UNL     1       6.072  25.531  54.670  1.00  0.00     0.014 A 
ENDBRANCH   1  18
BRANCH   3  26
HETATM   26  C   UNL     1       5.350  28.008  49.253  1.00  0.00     0.189 C 
BRANCH  26  27
HETATM   27  C   UNL     1       4.076  27.462  48.652  1.00  0.00    -0.038 A 
HETATM   28  C   UNL     1       2.853  28.116  48.863  1.00  0.00     0.009 A 
HETATM   29  C   UNL     1       1.677  27.621  48.293  1.00  0.00     0.001 A 
HETATM   30  C   UNL     1       1.710  26.474  47.504  1.00  0.00     0.000 A 
HETATM   31  C   UNL     1       2.920  25.820  47.278  1.00  0.00     0.001 A 
HETATM   32  C   UNL     1       4.097  26.314  47.842  1.00  0.00     0.009 A 
ENDBRANCH  26  27
ENDBRANCH   3  26
TORSDOF 6
ENDMDL
MODEL 5
REMARK VINA RESULT:      -9.7      2.551      6.875
REMARK  6 active torsions:
REMARK  status: ('A' for Active; 'I' for Inactive)
REMARK    1  A    between atoms: C_6  and  C_7 
REMARK    2  A    between atoms: N_9  and  C_10 
REMARK    3  A    between atoms: C_10  and  C_11 
REMARK    4  A    between atoms: C_18  and  C_19 
REMARK       I    between atoms: C_19  and  N_20 
REMARK    5  A    between atoms: N_20  and  C_21 
REMARK    6  A    between atoms: C_24  and  O_25 
ROOT
HETATM    1  C   UNL     1       7.614  27.005  56.816  1.00  0.00     0.104 A 
HETATM    2  N   UNL     1       8.099  25.806  57.186  1.00  0.00    -0.171 NA
HETATM    3  N   UNL     1       7.305  24.911  56.569  1.00  0.00    -0.275 N 
HETATM    4  C   UNL     1       6.341  25.487  55.798  1.00  0.00     0.132 A 
HETATM    5  C   UNL     1       6.466  26.852  55.975  1.00  0.00     0.080 A 
ENDROOT
BRANCH   5   6
HETATM    6  C   UNL     1       5.574  27.838  55.394  1.00  0.00     0.255 C 
HETATM    7  N   UNL     1       5.007  28.698  56.308  1.00  0.00    -0.352 N 
HETATM    8  H   UNL     1       5.200  28.541  57.289  1.00  0.00     0.163 HD
HETATM    9  O   UNL     1       5.322  27.869  54.194  1.00  0.00    -0.268 OA
BRANCH   7  10
HETATM   10  C   UNL     1       4.106  29.776  55.930  1.00  0.00     0.084 C 
HETATM   11  C   UNL     1       3.079  30.084  57.029  1.00  0.00     0.028 C 
HETATM   12  C   UNL     1       3.711  30.746  58.255  1.00  0.00     0.034 C 
HETATM   13  C   UNL     1       4.538  31.981  57.900  1.00  0.00     0.118 C 
HETATM   14  C   UNL     1       5.541  31.709  56.779  1.00  0.00     0.034 C 
HETATM   15  C   UNL     1       4.903  31.036  55.560  1.00  0.00     0.028 C 
BRANCH  13  16
HETATM   16  O   UNL     1       3.683  33.059  57.531  1.00  0.00    -0.396 OA
HETATM   17  H   UNL     1       3.804  33.793  58.155  1.00  0.00     0.210 HD
ENDBRANCH  13  16
ENDBRANCH   7  10
ENDBRANCH   5   6
BRANCH   1  18
HETATM   18  C   UNL     1       8.262  28.232  57.283  1.00  0.00    -0.004 A 
HETATM   19  C   UNL     1       7.691  29.017  58.293  1.00  0.00     0.021 A 
HETATM   20  C   UNL     1       8.335  30.170  58.777  1.00  0.00    -0.055 A 
HETATM   21  C   UNL     1       9.554  30.573  58.198  1.00  0.00    -0.056 A 
HETATM   22  C   UNL     1       7.682  30.967  59.873  1.00  0.00     0.049 C 
HETATM   23  C   UNL     1      10.280  31.804  58.665  1.00  0.00     0.049 C 
HETATM   24  C   UNL     1      10.116  29.794  57.175  1.00  0.00     0.008 A 
HETATM   25  C   UNL     1       9.477  28.639  56.722  1.00  0.00     0.014 A 
ENDBRANCH   1  18
BRANCH   3  26
HETATM   26  C   UNL     1       7.529  23.483  56.765  1.00  0.00     0.189 C 
BRANCH  26  27
HETATM   27  C   UNL     1       7.699  22.753  55.454  1.00  0.00    -0.038 A 
HETATM   28  C   UNL     1       7.906  23.466  54.264  1.00  0.00     0.009 A 
HETATM   29  C   UNL     1       8.081  22.790  53.054  1.00  0.00     0.001 A 
HETATM   30  C   UNL     1       8.056  21.397  53.019  1.00  0.00     0.000 A 
HETATM   31  C   UNL     1       7.861  20.676  54.196  1.00  0.00     0.001 A 
HETATM   32  C   UNL     1       7.691  21.348  55.406  1.00  0.00     0.009 A 
ENDBRANCH  26  27
ENDBRANCH   3  26
TORSDOF 6
ENDMDL
MODEL 6
REMARK VINA RESULT:      -9.6      2.355      6.766
REMARK  6 active torsions:
REMARK  status: ('A' for Active; 'I' for Inactive)
REMARK    1  A    between atoms: C_6  and  C_7 
REMARK    2  A    between atoms: N_9  and  C_10 
REMARK    3  A    between atoms: C_10  and  C_11 
REMARK    4  A    between atoms: C_18  and  C_19 
REMARK       I    between atoms: C_19  and  N_20 
REMARK    5  A    between atoms: N_20  and  C_21 
REMARK    6  A    between atoms: C_24  and  O_25 
ROOT
HETATM    1  C   UNL     1       5.752  26.623  53.327  1.00  0.00     0.104 A 
HETATM    2  N   UNL     1       5.032  27.242  54.280  1.00  0.00    -0.171 NA
HETATM    3  N   UNL     1       5.578  26.833  55.440  1.00  0.00    -0.275 N 
HETATM    4  C   UNL     1       6.636  25.993  55.271  1.00  0.00     0.132 A 
HETATM    5  C   UNL     1       6.750  25.779  53.910  1.00  0.00     0.080 A 
ENDROOT
BRANCH   5   6
HETATM    6  C   UNL     1       7.706  24.873  53.300  1.00  0.00     0.255 C 
HETATM    7  N   UNL     1       8.010  23.770  54.068  1.00  0.00    -0.352 N 
HETATM    8  H   UNL     1       7.606  23.712  54.993  1.00  0.00     0.163 HD
HETATM    9  O   UNL     1       8.223  25.100  52.211  1.00  0.00    -0.268 OA
BRANCH   7  10
HETATM   10  C   UNL     1       8.924  22.727  53.629  1.00  0.00     0.084 C 
HETATM   11  C   UNL     1       9.816  22.222  54.771  1.00  0.00     0.028 C 
HETATM   12  C   UNL     1       9.039  21.411  55.809  1.00  0.00     0.034 C 
HETATM   13  C   UNL     1       8.230  20.274  55.186  1.00  0.00     0.118 C 
HETATM   14  C   UNL     1       7.363  20.746  54.020  1.00  0.00     0.034 C 
HETATM   15  C   UNL     1       8.146  21.567  52.991  1.00  0.00     0.028 C 
BRANCH  13  16
HETATM   16  O   UNL     1       9.098  19.230  54.751  1.00  0.00    -0.396 OA
HETATM   17  H   UNL     1       9.407  19.424  53.852  1.00  0.00     0.210 HD
ENDBRANCH  13  16
ENDBRANCH   7  10
ENDBRANCH   5   6
BRANCH   1  18
HETATM   18  C   UNL     1       5.453  26.862  51.913  1.00  0.00    -0.004 A 
HETATM   19  C   UNL     1       5.629  28.127  51.336  1.00  0.00     0.021 A 
HETATM   20  C   UNL     1       5.389  28.347  49.967  1.00  0.00    -0.055 A 
HETATM   21  C   UNL     1       4.912  27.287  49.172  1.00  0.00    -0.056 A 
HETATM   22  C   UNL     1       5.609  29.722  49.399  1.00  0.00     0.049 C 
HETATM   23  C   UNL     1       4.624  27.468  47.707  1.00  0.00     0.049 C 
HETATM   24  C   UNL     1       4.721  26.025  49.756  1.00  0.00     0.008 A 
HETATM   25  C   UNL     1       4.987  25.816  51.110  1.00  0.00     0.014 A 
ENDBRANCH   1  18
BRANCH   3  26
HETATM   26  C   UNL     1       5.025  27.297  56.707  1.00  0.00     0.189 C 
BRANCH  26  27
HETATM   27  C   UNL     1       5.787  28.479  57.258  1.00  0.00    -0.038 A 
HETATM   28  C   UNL     1       5.183  29.742  57.334  1.00  0.00     0.009 A 
HETATM   29  C   UNL     1       5.882  30.832  57.860  1.00  0.00     0.001 A 
HETATM   30  C   UNL     1       7.187  30.672  58.319  1.00  0.00     0.000 A 
HETATM   31  C   UNL     1       7.796  29.420  58.258  1.00  0.00     0.001 A 
HETATM   32  C   UNL     1       7.099  28.329  57.738  1.00  0.00     0.009 A 
ENDBRANCH  26  27
ENDBRANCH   3  26
TORSDOF 6
ENDMDL
MODEL 7
REMARK VINA RESULT:      -9.6      4.148      8.877
REMARK  6 active torsions:
REMARK  status: ('A' for Active; 'I' for Inactive)
REMARK    1  A    between atoms: C_6  and  C_7 
REMARK    2  A    between atoms: N_9  and  C_10 
REMARK    3  A    between atoms: C_10  and  C_11 
REMARK    4  A    between atoms: C_18  and  C_19 
REMARK       I    between atoms: C_19  and  N_20 
REMARK    5  A    between atoms: N_20  and  C_21 
REMARK    6  A    between atoms: C_24  and  O_25 
ROOT
HETATM    1  C   UNL     1       6.073  28.857  57.238  1.00  0.00     0.104 A 
HETATM    2  N   UNL     1       5.515  27.705  56.827  1.00  0.00    -0.171 NA
HETATM    3  N   UNL     1       6.425  26.759  57.124  1.00  0.00    -0.275 N 
HETATM    4  C   UNL     1       7.538  27.255  57.731  1.00  0.00     0.132 A 
HETATM    5  C   UNL     1       7.380  28.628  57.773  1.00  0.00     0.080 A 
ENDROOT
BRANCH   5   6
HETATM    6  C   UNL     1       8.382  29.554  58.268  1.00  0.00     0.255 C 
HETATM    7  N   UNL     1       8.114  30.061  59.520  1.00  0.00    -0.352 N 
HETATM    8  H   UNL     1       7.236  29.808  59.956  1.00  0.00     0.163 HD
HETATM    9  O   UNL     1       9.360  29.880  57.604  1.00  0.00    -0.268 OA
BRANCH   7  10
HETATM   10  C   UNL     1       9.004  30.984  60.209  1.00  0.00     0.084 C 
HETATM   11  C   UNL     1       8.416  32.399  60.294  1.00  0.00     0.028 C 
HETATM   12  C   UNL     1       7.226  32.486  61.251  1.00  0.00     0.034 C 
HETATM   13  C   UNL     1       7.540  31.927  62.638  1.00  0.00     0.118 C 
HETATM   14  C   UNL     1       8.163  30.533  62.578  1.00  0.00     0.034 C 
HETATM   15  C   UNL     1       9.347  30.452  61.608  1.00  0.00     0.028 C 
BRANCH  13  16
HETATM   16  O   UNL     1       8.407  32.813  63.343  1.00  0.00    -0.396 OA
HETATM   17  H   UNL     1       8.979  32.298  63.933  1.00  0.00     0.210 HD
ENDBRANCH  13  16
ENDBRANCH   7  10
ENDBRANCH   5   6
BRANCH   1  18
HETATM   18  C   UNL     1       5.338  30.117  57.098  1.00  0.00    -0.004 A 
HETATM   19  C   UNL     1       4.848  30.801  58.219  1.00  0.00     0.021 A 
HETATM   20  C   UNL     1       4.185  32.035  58.091  1.00  0.00    -0.055 A 
HETATM   21  C   UNL     1       3.964  32.568  56.807  1.00  0.00    -0.056 A 
HETATM   22  C   UNL     1       3.691  32.731  59.330  1.00  0.00     0.049 C 
HETATM   23  C   UNL     1       3.248  33.876  56.609  1.00  0.00     0.049 C 
HETATM   24  C   UNL     1       4.442  31.875  55.685  1.00  0.00     0.008 A 
HETATM   25  C   UNL     1       5.120  30.662  55.829  1.00  0.00     0.014 A 
ENDBRANCH   1  18
BRANCH   3  26
HETATM   26  C   UNL     1       6.160  25.364  56.792  1.00  0.00     0.189 C 
BRANCH  26  27
HETATM   27  C   UNL     1       6.816  24.958  55.493  1.00  0.00    -0.038 A 
HETATM   28  C   UNL     1       7.231  23.634  55.290  1.00  0.00     0.009 A 
HETATM   29  C   UNL     1       7.822  23.254  54.082  1.00  0.00     0.001 A 
HETATM   30  C   UNL     1       8.000  24.188  53.065  1.00  0.00     0.000 A 
HETATM   31  C   UNL     1       7.583  25.505  53.250  1.00  0.00     0.001 A 
HETATM   32  C   UNL     1       6.989  25.886  54.452  1.00  0.00     0.009 A 
ENDBRANCH  26  27
ENDBRANCH   3  26
TORSDOF 6
ENDMDL
MODEL 8
REMARK VINA RESULT:      -9.3      1.514      6.322
REMARK  6 active torsions:
REMARK  status: ('A' for Active; 'I' for Inactive)
REMARK    1  A    between atoms: C_6  and  C_7 
REMARK    2  A    between atoms: N_9  and  C_10 
REMARK    3  A    between atoms: C_10  and  C_11 
REMARK    4  A    between atoms: C_18  and  C_19 
REMARK       I    between atoms: C_19  and  N_20 
REMARK    5  A    between atoms: N_20  and  C_21 
REMARK    6  A    between atoms: C_24  and  O_25 
ROOT
HETATM    1  C   UNL     1       7.636  26.552  56.963  1.00  0.00     0.104 A 
HETATM    2  N   UNL     1       8.308  25.423  57.249  1.00  0.00    -0.171 NA
HETATM    3  N   UNL     1       7.594  24.442  56.665  1.00  0.00    -0.275 N 
HETATM    4  C   UNL     1       6.500  24.899  55.996  1.00  0.00     0.132 A 
HETATM    5  C   UNL     1       6.453  26.263  56.212  1.00  0.00     0.080 A 
ENDROOT
BRANCH   5   6
HETATM    6  C   UNL     1       5.389  27.131  55.740  1.00  0.00     0.255 C 
HETATM    7  N   UNL     1       5.307  27.232  54.369  1.00  0.00    -0.352 N 
HETATM    8  H   UNL     1       6.011  26.760  53.817  1.00  0.00     0.163 HD
HETATM    9  O   UNL     1       4.657  27.749  56.506  1.00  0.00    -0.268 OA
BRANCH   7  10
HETATM   10  C   UNL     1       4.295  28.028  53.692  1.00  0.00     0.084 C 
HETATM   11  C   UNL     1       4.853  29.368  53.191  1.00  0.00     0.028 C 
HETATM   12  C   UNL     1       5.821  29.200  52.020  1.00  0.00     0.034 C 
HETATM   13  C   UNL     1       5.229  28.379  50.875  1.00  0.00     0.118 C 
HETATM   14  C   UNL     1       4.631  27.057  51.355  1.00  0.00     0.034 C 
HETATM   15  C   UNL     1       3.672  27.232  52.536  1.00  0.00     0.028 C 
BRANCH  13  16
HETATM   16  O   UNL     1       4.237  29.135  50.186  1.00  0.00    -0.396 OA
HETATM   17  H   UNL     1       4.449  30.080  50.255  1.00  0.00     0.210 HD
ENDBRANCH  13  16
ENDBRANCH   7  10
ENDBRANCH   5   6
BRANCH   1  18
HETATM   18  C   UNL     1       8.149  27.845  57.422  1.00  0.00    -0.004 A 
HETATM   19  C   UNL     1       9.438  28.277  57.084  1.00  0.00     0.021 A 
HETATM   20  C   UNL     1       9.915  29.539  57.482  1.00  0.00    -0.055 A 
HETATM   21  C   UNL     1       9.099  30.363  58.280  1.00  0.00    -0.056 A 
HETATM   22  C   UNL     1      11.303  29.956  57.079  1.00  0.00     0.049 C 
HETATM   23  C   UNL     1       9.562  31.716  58.747  1.00  0.00     0.049 C 
HETATM   24  C   UNL     1       7.814  29.923  58.630  1.00  0.00     0.008 A 
HETATM   25  C   UNL     1       7.345  28.677  58.207  1.00  0.00     0.014 A 
ENDBRANCH   1  18
BRANCH   3  26
HETATM   26  C   UNL     1       8.026  23.055  56.790  1.00  0.00     0.189 C 
BRANCH  26  27
HETATM   27  C   UNL     1       8.079  22.357  55.451  1.00  0.00    -0.038 A 
HETATM   28  C   UNL     1       7.890  20.970  55.364  1.00  0.00     0.009 A 
HETATM   29  C   UNL     1       7.921  20.327  54.124  1.00  0.00     0.001 A 
HETATM   30  C   UNL     1       8.137  21.061  52.959  1.00  0.00     0.000 A 
HETATM   31  C   UNL     1       8.317  22.441  53.031  1.00  0.00     0.001 A 
HETATM   32  C   UNL     1       8.281  23.086  54.267  1.00  0.00     0.009 A 
ENDBRANCH  26  27
ENDBRANCH   3  26
TORSDOF 6
ENDMDL
MODEL 9
REMARK VINA RESULT:      -9.3      2.562      8.171
REMARK  6 active torsions:
REMARK  status: ('A' for Active; 'I' for Inactive)
REMARK    1  A    between atoms: C_6  and  C_7 
REMARK    2  A    between atoms: N_9  and  C_10 
REMARK    3  A    between atoms: C_10  and  C_11 
REMARK    4  A    between atoms: C_18  and  C_19 
REMARK       I    between atoms: C_19  and  N_20 
REMARK    5  A    between atoms: N_20  and  C_21 
REMARK    6  A    between atoms: C_24  and  O_25 
ROOT
HETATM    1  C   UNL     1       5.851  28.002  53.034  1.00  0.00     0.104 A 
HETATM    2  N   UNL     1       5.846  28.737  51.908  1.00  0.00    -0.171 NA
HETATM    3  N   UNL     1       5.394  27.901  50.956  1.00  0.00    -0.275 N 
HETATM    4  C   UNL     1       5.086  26.662  51.429  1.00  0.00     0.132 A 
HETATM    5  C   UNL     1       5.424  26.662  52.769  1.00  0.00     0.080 A 
ENDROOT
BRANCH   5   6
HETATM    6  C   UNL     1       5.333  25.502  53.637  1.00  0.00     0.255 C 
HETATM    7  N   UNL     1       6.061  25.608  54.801  1.00  0.00    -0.352 N 
HETATM    8  H   UNL     1       6.635  26.432  54.928  1.00  0.00     0.163 HD
HETATM    9  O   UNL     1       4.693  24.502  53.331  1.00  0.00    -0.268 OA
BRANCH   7  10
HETATM   10  C   UNL     1       6.084  24.569  55.819  1.00  0.00     0.084 C 
HETATM   11  C   UNL     1       7.233  23.574  55.604  1.00  0.00     0.028 C 
HETATM   12  C   UNL     1       8.604  24.190  55.887  1.00  0.00     0.034 C 
HETATM   13  C   UNL     1       8.684  24.847  57.264  1.00  0.00     0.118 C 
HETATM   14  C   UNL     1       7.528  25.813  57.518  1.00  0.00     0.034 C 
HETATM   15  C   UNL     1       6.159  25.193  57.220  1.00  0.00     0.028 C 
BRANCH  13  16
HETATM   16  O   UNL     1       8.716  23.853  58.286  1.00  0.00    -0.396 OA
HETATM   17  H   UNL     1       7.928  23.944  58.846  1.00  0.00     0.210 HD
ENDBRANCH  13  16
ENDBRANCH   7  10
ENDBRANCH   5   6
BRANCH   1  18
HETATM   18  C   UNL     1       6.264  28.608  54.302  1.00  0.00    -0.004 A 
HETATM   19  C   UNL     1       7.601  28.574  54.723  1.00  0.00     0.021 A 
HETATM   20  C   UNL     1       8.009  29.197  55.916  1.00  0.00    -0.055 A 
HETATM   21  C   UNL     1       7.045  29.821  56.732  1.00  0.00    -0.056 A 
HETATM   22  C   UNL     1       9.459  29.141  56.311  1.00  0.00     0.049 C 
HETATM   23  C   UNL     1       7.421  30.490  58.025  1.00  0.00     0.049 C 
HETATM   24  C   UNL     1       5.705  29.840  56.317  1.00  0.00     0.008 A 
HETATM   25  C   UNL     1       5.319  29.238  55.117  1.00  0.00     0.014 A 
ENDBRANCH   1  18
BRANCH   3  26
HETATM   26  C   UNL     1       5.277  28.364  49.577  1.00  0.00     0.189 C 
BRANCH  26  27
HETATM   27  C   UNL     1       4.100  27.736  48.868  1.00  0.00    -0.038 A 
HETATM   28  C   UNL     1       2.803  28.229  49.071  1.00  0.00     0.009 A 
HETATM   29  C   UNL     1       1.716  27.661  48.401  1.00  0.00     0.001 A 
HETATM   30  C   UNL     1       1.913  26.599  47.521  1.00  0.00     0.000 A 
HETATM   31  C   UNL     1       3.198  26.107  47.303  1.00  0.00     0.001 A 
HETATM   32  C   UNL     1       4.286  26.675  47.966  1.00  0.00     0.009 A 
ENDBRANCH  26  27
ENDBRANCH   3  26
TORSDOF 6
ENDMDL
MODEL 10
REMARK VINA RESULT:      -9.1      2.935      4.196
REMARK  6 active torsions:
REMARK  status: ('A' for Active; 'I' for Inactive)
REMARK    1  A    between atoms: C_6  and  C_7 
REMARK    2  A    between atoms: N_9  and  C_10 
REMARK    3  A    between atoms: C_10  and  C_11 
REMARK    4  A    between atoms: C_18  and  C_19 
REMARK       I    between atoms: C_19  and  N_20 
REMARK    5  A    between atoms: N_20  and  C_21 
REMARK    6  A    between atoms: C_24  and  O_25 
ROOT
HETATM    1  C   UNL     1       7.627  28.051  57.086  1.00  0.00     0.104 A 
HETATM    2  N   UNL     1       8.732  28.504  57.704  1.00  0.00    -0.171 NA
HETATM    3  N   UNL     1       8.420  29.755  58.089  1.00  0.00    -0.275 N 
HETATM    4  C   UNL     1       7.149  30.118  57.762  1.00  0.00     0.132 A 
HETATM    5  C   UNL     1       6.613  29.060  57.053  1.00  0.00     0.080 A 
ENDROOT
BRANCH   5   6
HETATM    6  C   UNL     1       5.295  29.066  56.442  1.00  0.00     0.255 C 
HETATM    7  N   UNL     1       4.985  30.233  55.779  1.00  0.00    -0.352 N 
HETATM    8  H   UNL     1       5.650  30.994  55.822  1.00  0.00     0.163 HD
HETATM    9  O   UNL     1       4.518  28.124  56.549  1.00  0.00    -0.268 OA
BRANCH   7  10
HETATM   10  C   UNL     1       3.726  30.434  55.077  1.00  0.00     0.084 C 
HETATM   11  C   UNL     1       2.698  31.183  55.937  1.00  0.00     0.028 C 
HETATM   12  C   UNL     1       3.068  32.651  56.151  1.00  0.00     0.034 C 
HETATM   13  C   UNL     1       3.344  33.388  54.841  1.00  0.00     0.118 C 
HETATM   14  C   UNL     1       4.337  32.642  53.950  1.00  0.00     0.034 C 
HETATM   15  C   UNL     1       3.965  31.169  53.750  1.00  0.00     0.028 C 
BRANCH  13  16
HETATM   16  O   UNL     1       2.128  33.608  54.131  1.00  0.00    -0.396 OA
HETATM   17  H   UNL     1       2.269  34.294  53.459  1.00  0.00     0.210 HD
ENDBRANCH  13  16
ENDBRANCH   7  10
ENDBRANCH   5   6
BRANCH   1  18
HETATM   18  C   UNL     1       7.593  26.686  56.554  1.00  0.00    -0.004 A 
HETATM   19  C   UNL     1       7.492  26.445  55.177  1.00  0.00     0.021 A 
HETATM   20  C   UNL     1       7.507  25.137  54.660  1.00  0.00    -0.055 A 
HETATM   21  C   UNL     1       7.573  24.046  55.548  1.00  0.00    -0.056 A 
HETATM   22  C   UNL     1       7.410  24.938  53.172  1.00  0.00     0.049 C 
HETATM   23  C   UNL     1       7.578  22.626  55.053  1.00  0.00     0.049 C 
HETATM   24  C   UNL     1       7.658  24.289  56.927  1.00  0.00     0.008 A 
HETATM   25  C   UNL     1       7.666  25.594  57.424  1.00  0.00     0.014 A 
ENDBRANCH   1  18
BRANCH   3  26
HETATM   26  C   UNL     1       9.410  30.570  58.784  1.00  0.00     0.189 C 
BRANCH  26  27
HETATM   27  C   UNL     1       8.882  31.105  60.094  1.00  0.00    -0.038 A 
HETATM   28  C   UNL     1       9.070  30.386  61.283  1.00  0.00     0.009 A 
HETATM   29  C   UNL     1       8.598  30.889  62.498  1.00  0.00     0.001 A 
HETATM   30  C   UNL     1       7.938  32.116  62.540  1.00  0.00     0.000 A 
HETATM   31  C   UNL     1       7.753  32.845  61.367  1.00  0.00     0.001 A 
HETATM   32  C   UNL     1       8.228  32.348  60.153  1.00  0.00     0.009 A 
ENDBRANCH  26  27
ENDBRANCH   3  26
TORSDOF 6
ENDMDL
