MODEL 1
REMARK VINA RESULT:     -10.1      0.000      0.000
REMARK  3 active torsions:
REMARK  status: ('A' for Active; 'I' for Inactive)
REMARK    1  A    between atoms: C_6  and  N_7 
REMARK       I    between atoms: N_7  and  C_8 
REMARK       I    between atoms: C_8  and  N_9 
REMARK    2  A    between atoms: N_9  and  C_10 
REMARK    3  A    between atoms: C_11  and  C_12 
ROOT
HETATM    1  C   UNL     1       6.423  27.567  56.004  1.00  0.00     0.049 A 
HETATM    2  C   UNL     1       6.816  28.916  56.098  1.00  0.00     0.021 A 
HETATM    3  C   UNL     1       5.854  29.937  56.077  1.00  0.00     0.016 A 
HETATM    4  C   UNL     1       4.501  29.617  55.970  1.00  0.00     0.001 A 
HETATM    5  C   UNL     1       4.104  28.282  55.918  1.00  0.00     0.002 A 
HETATM    6  C   UNL     1       5.059  27.261  55.949  1.00  0.00     0.030 A 
ENDROOT
BRANCH   1   7
HETATM    7  N   UNL     1       7.335  26.489  55.988  1.00  0.00    -0.308 N 
HETATM    8  C   UNL     1       7.750  25.843  57.124  1.00  0.00     0.325 C 
HETATM    9  N   UNL     1       8.426  24.669  56.945  1.00  0.00    -0.309 N 
HETATM   10  O   UNL     1       7.649  26.308  58.258  1.00  0.00    -0.247 OA
HETATM   11  H   UNL     1       8.911  24.387  57.788  1.00  0.00     0.170 HD
HETATM   12  H   UNL     1       8.016  26.458  55.242  1.00  0.00     0.170 HD
BRANCH   9  13
HETATM   13  C   UNL     1       8.346  23.710  55.917  1.00  0.00     0.039 A 
HETATM   14  C   UNL     1       8.249  24.021  54.561  1.00  0.00     0.072 A 
HETATM   15  C   UNL     1       8.102  23.001  53.622  1.00  0.00     0.124 A 
HETATM   16  C   UNL     1       8.051  21.659  54.000  1.00  0.00    -0.023 A 
HETATM   17  F   UNL     1       7.988  23.333  52.328  1.00  0.00    -0.205 F 
HETATM   18  C   UNL     1       7.837  20.579  52.985  1.00  0.00     0.051 C 
HETATM   19  C   UNL     1       8.129  21.348  55.360  1.00  0.00     0.012 A 
HETATM   20  C   UNL     1       8.273  22.367  56.308  1.00  0.00     0.030 A 
ENDBRANCH   9  13
ENDBRANCH   1   7
BRANCH   2  21
HETATM   21  C   UNL     1       8.211  29.296  56.424  1.00  0.00     0.089 A 
HETATM   22  N   UNL     1       9.117  29.250  55.493  1.00  0.00    -0.171 NA
HETATM   23  N   UNL     1      10.382  29.617  55.852  1.00  0.00    -0.243 N 
HETATM   24  C   UNL     1      10.772  30.029  57.099  1.00  0.00     0.261 A 
HETATM   25  H   UNL     1      11.084  29.594  55.122  1.00  0.00     0.192 HD
HETATM   26  O   UNL     1      11.922  30.357  57.372  1.00  0.00    -0.267 OA
HETATM   27  C   UNL     1       9.717  30.057  58.130  1.00  0.00     0.078 A 
HETATM   28  C   UNL     1       8.466  29.698  57.827  1.00  0.00     0.040 A 
ENDBRANCH   2  21
TORSDOF 3
ENDMDL
MODEL 2
REMARK VINA RESULT:      -9.8      2.191      4.109
REMARK  3 active torsions:
REMARK  status: ('A' for Active; 'I' for Inactive)
REMARK    1  A    between atoms: C_6  and  N_7 
REMARK       I    between atoms: N_7  and  C_8 
REMARK       I    between atoms: C_8  and  N_9 
REMARK    2  A    between atoms: N_9  and  C_10 
REMARK    3  A    between atoms: C_11  and  C_12 
ROOT
HETATM    1  C   UNL     1       7.888  27.411  56.511  1.00  0.00     0.049 A 
HETATM    2  C   UNL     1       6.793  27.812  55.721  1.00  0.00     0.021 A 
HETATM    3  C   UNL     1       6.347  29.142  55.753  1.00  0.00     0.016 A 
HETATM    4  C   UNL     1       6.994  30.074  56.564  1.00  0.00     0.001 A 
HETATM    5  C   UNL     1       8.103  29.691  57.316  1.00  0.00     0.002 A 
HETATM    6  C   UNL     1       8.558  28.369  57.279  1.00  0.00     0.030 A 
ENDROOT
BRANCH   1   7
HETATM    7  N   UNL     1       8.374  26.086  56.553  1.00  0.00    -0.308 N 
HETATM    8  C   UNL     1       8.178  25.250  57.622  1.00  0.00     0.325 C 
HETATM    9  N   UNL     1       8.476  23.931  57.428  1.00  0.00    -0.309 N 
HETATM   10  O   UNL     1       7.865  25.632  58.749  1.00  0.00    -0.247 OA
HETATM   11  H   UNL     1       8.550  23.432  58.306  1.00  0.00     0.170 HD
HETATM   12  H   UNL     1       9.214  25.874  56.032  1.00  0.00     0.170 HD
BRANCH   9  13
HETATM   13  C   UNL     1       8.438  23.142  56.261  1.00  0.00     0.039 A 
HETATM   14  C   UNL     1       8.247  23.652  54.978  1.00  0.00     0.072 A 
HETATM   15  C   UNL     1       8.152  22.783  53.891  1.00  0.00     0.124 A 
HETATM   16  C   UNL     1       8.248  21.399  54.049  1.00  0.00    -0.023 A 
HETATM   17  F   UNL     1       7.945  23.301  52.672  1.00  0.00    -0.205 F 
HETATM   18  C   UNL     1       8.089  20.477  52.880  1.00  0.00     0.051 C 
HETATM   19  C   UNL     1       8.421  20.888  55.338  1.00  0.00     0.012 A 
HETATM   20  C   UNL     1       8.513  21.754  56.433  1.00  0.00     0.030 A 
ENDBRANCH   9  13
ENDBRANCH   1   7
BRANCH   2  21
HETATM   21  C   UNL     1       6.211  26.919  54.691  1.00  0.00     0.089 A 
HETATM   22  N   UNL     1       5.417  25.958  55.060  1.00  0.00    -0.171 NA
HETATM   23  N   UNL     1       4.907  25.172  54.066  1.00  0.00    -0.243 N 
HETATM   24  C   UNL     1       5.159  25.313  52.726  1.00  0.00     0.261 A 
HETATM   25  H   UNL     1       4.277  24.432  54.352  1.00  0.00     0.192 HD
HETATM   26  O   UNL     1       4.670  24.584  51.869  1.00  0.00    -0.267 OA
HETATM   27  C   UNL     1       6.074  26.408  52.351  1.00  0.00     0.078 A 
HETATM   28  C   UNL     1       6.603  27.196  53.290  1.00  0.00     0.040 A 
ENDBRANCH   2  21
TORSDOF 3
ENDMDL
MODEL 3
REMARK VINA RESULT:      -9.6      2.886      6.850
REMARK  3 active torsions:
REMARK  status: ('A' for Active; 'I' for Inactive)
REMARK    1  A    between atoms: C_6  and  N_7 
REMARK       I    between atoms: N_7  and  C_8 
REMARK       I    between atoms: C_8  and  N_9 
REMARK    2  A    between atoms: N_9  and  C_10 
REMARK    3  A    between atoms: C_11  and  C_12 
ROOT
HETATM    1  C   UNL     1       7.534  22.918  55.290  1.00  0.00     0.049 A 
HETATM    2  C   UNL     1       7.512  22.803  53.887  1.00  0.00     0.021 A 
HETATM    3  C   UNL     1       7.801  21.574  53.273  1.00  0.00     0.016 A 
HETATM    4  C   UNL     1       8.103  20.459  54.054  1.00  0.00     0.001 A 
HETATM    5  C   UNL     1       8.087  20.558  55.444  1.00  0.00     0.002 A 
HETATM    6  C   UNL     1       7.789  21.778  56.060  1.00  0.00     0.030 A 
ENDROOT
BRANCH   1   7
HETATM    7  N   UNL     1       7.285  24.126  55.977  1.00  0.00    -0.308 N 
HETATM    8  C   UNL     1       8.255  24.816  56.656  1.00  0.00     0.325 C 
HETATM    9  N   UNL     1       7.937  26.084  57.054  1.00  0.00    -0.309 N 
HETATM   10  O   UNL     1       9.326  24.328  57.015  1.00  0.00    -0.247 OA
HETATM   11  H   UNL     1       8.586  26.430  57.751  1.00  0.00     0.170 HD
HETATM   12  H   UNL     1       6.357  24.274  56.351  1.00  0.00     0.170 HD
BRANCH   9  13
HETATM   13  C   UNL     1       7.059  27.031  56.491  1.00  0.00     0.039 A 
HETATM   14  C   UNL     1       6.982  27.314  55.128  1.00  0.00     0.072 A 
HETATM   15  C   UNL     1       6.132  28.321  54.673  1.00  0.00     0.124 A 
HETATM   16  C   UNL     1       5.341  29.064  55.551  1.00  0.00    -0.023 A 
HETATM   17  F   UNL     1       6.097  28.586  53.359  1.00  0.00    -0.205 F 
HETATM   18  C   UNL     1       4.475  30.180  55.053  1.00  0.00     0.051 C 
HETATM   19  C   UNL     1       5.433  28.794  56.919  1.00  0.00     0.012 A 
HETATM   20  C   UNL     1       6.287  27.787  57.382  1.00  0.00     0.030 A 
ENDBRANCH   9  13
ENDBRANCH   1   7
BRANCH   2  21
HETATM   21  C   UNL     1       6.993  23.893  53.027  1.00  0.00     0.089 A 
HETATM   22  N   UNL     1       7.791  24.465  52.175  1.00  0.00    -0.171 NA
HETATM   23  N   UNL     1       7.254  25.458  51.408  1.00  0.00    -0.243 N 
HETATM   24  C   UNL     1       5.956  25.896  51.458  1.00  0.00     0.261 A 
HETATM   25  H   UNL     1       7.872  25.894  50.734  1.00  0.00     0.192 HD
HETATM   26  O   UNL     1       5.518  26.789  50.741  1.00  0.00    -0.267 OA
HETATM   27  C   UNL     1       5.087  25.229  52.446  1.00  0.00     0.078 A 
HETATM   28  C   UNL     1       5.571  24.258  53.225  1.00  0.00     0.040 A 
ENDBRANCH   2  21
TORSDOF 3
ENDMDL
MODEL 4
REMARK VINA RESULT:      -9.5      3.167      7.171
REMARK  3 active torsions:
REMARK  status: ('A' for Active; 'I' for Inactive)
REMARK    1  A    between atoms: C_6  and  N_7 
REMARK       I    between atoms: N_7  and  C_8 
REMARK       I    between atoms: C_8  and  N_9 
REMARK    2  A    between atoms: N_9  and  C_10 
REMARK    3  A    between atoms: C_11  and  C_12 
ROOT
HETATM    1  C   UNL     1       7.768  24.412  55.535  1.00  0.00     0.049 A 
HETATM    2  C   UNL     1       7.622  23.850  54.252  1.00  0.00     0.021 A 
HETATM    3  C   UNL     1       8.024  22.528  54.007  1.00  0.00     0.016 A 
HETATM    4  C   UNL     1       8.564  21.762  55.040  1.00  0.00     0.001 A 
HETATM    5  C   UNL     1       8.673  22.300  56.322  1.00  0.00     0.002 A 
HETATM    6  C   UNL     1       8.263  23.614  56.572  1.00  0.00     0.030 A 
ENDROOT
BRANCH   1   7
HETATM    7  N   UNL     1       7.414  25.742  55.848  1.00  0.00    -0.308 N 
HETATM    8  C   UNL     1       6.376  26.064  56.684  1.00  0.00     0.325 C 
HETATM    9  N   UNL     1       6.306  27.365  57.097  1.00  0.00    -0.309 N 
HETATM   10  O   UNL     1       5.467  25.292  56.985  1.00  0.00    -0.247 OA
HETATM   11  H   UNL     1       5.400  27.582  57.492  1.00  0.00     0.170 HD
HETATM   12  H   UNL     1       7.603  26.456  55.157  1.00  0.00     0.170 HD
BRANCH   9  13
HETATM   13  C   UNL     1       7.320  28.324  57.290  1.00  0.00     0.039 A 
HETATM   14  C   UNL     1       8.656  28.131  56.942  1.00  0.00     0.072 A 
HETATM   15  C   UNL     1       9.601  29.113  57.239  1.00  0.00     0.124 A 
HETATM   16  C   UNL     1       9.246  30.301  57.880  1.00  0.00    -0.023 A 
HETATM   17  F   UNL     1      10.882  28.889  56.913  1.00  0.00    -0.205 F 
HETATM   18  C   UNL     1      10.281  31.321  58.242  1.00  0.00     0.051 C 
HETATM   19  C   UNL     1       7.910  30.485  58.246  1.00  0.00     0.012 A 
HETATM   20  C   UNL     1       6.958  29.503  57.954  1.00  0.00     0.030 A 
ENDBRANCH   9  13
ENDBRANCH   1   7
BRANCH   2  21
HETATM   21  C   UNL     1       6.865  24.544  53.183  1.00  0.00     0.089 A 
HETATM   22  N   UNL     1       7.511  25.064  52.182  1.00  0.00    -0.171 NA
HETATM   23  N   UNL     1       6.759  25.685  51.226  1.00  0.00    -0.243 N 
HETATM   24  C   UNL     1       5.393  25.802  51.233  1.00  0.00     0.261 A 
HETATM   25  H   UNL     1       7.261  26.078  50.439  1.00  0.00     0.192 HD
HETATM   26  O   UNL     1       4.761  26.364  50.345  1.00  0.00    -0.267 OA
HETATM   27  C   UNL     1       4.699  25.208  52.392  1.00  0.00     0.078 A 
HETATM   28  C   UNL     1       5.395  24.598  53.355  1.00  0.00     0.040 A 
ENDBRANCH   2  21
TORSDOF 3
ENDMDL
MODEL 5
REMARK VINA RESULT:      -9.2      2.806      3.858
REMARK  3 active torsions:
REMARK  status: ('A' for Active; 'I' for Inactive)
REMARK    1  A    between atoms: C_6  and  N_7 
REMARK       I    between atoms: N_7  and  C_8 
REMARK       I    between atoms: C_8  and  N_9 
REMARK    2  A    between atoms: N_9  and  C_10 
REMARK    3  A    between atoms: C_11  and  C_12 
ROOT
HETATM    1  C   UNL     1       5.180  26.594  53.520  1.00  0.00     0.049 A 
HETATM    2  C   UNL     1       5.413  27.298  54.717  1.00  0.00     0.021 A 
HETATM    3  C   UNL     1       4.738  28.502  54.973  1.00  0.00     0.016 A 
HETATM    4  C   UNL     1       3.827  29.001  54.043  1.00  0.00     0.001 A 
HETATM    5  C   UNL     1       3.563  28.286  52.876  1.00  0.00     0.002 A 
HETATM    6  C   UNL     1       4.225  27.082  52.622  1.00  0.00     0.030 A 
ENDROOT
BRANCH   1   7
HETATM    7  N   UNL     1       5.843  25.394  53.181  1.00  0.00    -0.308 N 
HETATM    8  C   UNL     1       6.982  25.358  52.420  1.00  0.00     0.325 C 
HETATM    9  N   UNL     1       7.653  24.168  52.383  1.00  0.00    -0.309 N 
HETATM   10  O   UNL     1       7.361  26.280  51.698  1.00  0.00    -0.247 OA
HETATM   11  H   UNL     1       8.321  24.141  51.622  1.00  0.00     0.170 HD
HETATM   12  H   UNL     1       5.287  24.553  53.104  1.00  0.00     0.170 HD
BRANCH   9  13
HETATM   13  C   UNL     1       7.748  23.136  53.336  1.00  0.00     0.039 A 
HETATM   14  C   UNL     1       7.936  23.346  54.702  1.00  0.00     0.072 A 
HETATM   15  C   UNL     1       8.090  22.257  55.559  1.00  0.00     0.124 A 
HETATM   16  C   UNL     1       8.057  20.944  55.088  1.00  0.00    -0.023 A 
HETATM   17  F   UNL     1       8.293  22.492  56.863  1.00  0.00    -0.205 F 
HETATM   18  C   UNL     1       8.280  19.787  56.012  1.00  0.00     0.051 C 
HETATM   19  C   UNL     1       7.888  20.734  53.716  1.00  0.00     0.012 A 
HETATM   20  C   UNL     1       7.737  21.822  52.851  1.00  0.00     0.030 A 
ENDBRANCH   9  13
ENDBRANCH   1   7
BRANCH   2  21
HETATM   21  C   UNL     1       6.204  26.708  55.823  1.00  0.00     0.089 A 
HETATM   22  N   UNL     1       5.742  25.666  56.449  1.00  0.00    -0.171 NA
HETATM   23  N   UNL     1       6.518  25.164  57.454  1.00  0.00    -0.243 N 
HETATM   24  C   UNL     1       7.732  25.660  57.852  1.00  0.00     0.261 A 
HETATM   25  H   UNL     1       6.165  24.344  57.932  1.00  0.00     0.192 HD
HETATM   26  O   UNL     1       8.397  25.169  58.758  1.00  0.00    -0.267 OA
HETATM   27  C   UNL     1       8.214  26.850  57.124  1.00  0.00     0.078 A 
HETATM   28  C   UNL     1       7.485  27.380  56.139  1.00  0.00     0.040 A 
ENDBRANCH   2  21
TORSDOF 3
ENDMDL
MODEL 6
REMARK VINA RESULT:      -9.1      4.306      6.866
REMARK  3 active torsions:
REMARK  status: ('A' for Active; 'I' for Inactive)
REMARK    1  A    between atoms: C_6  and  N_7 
REMARK       I    between atoms: N_7  and  C_8 
REMARK       I    between atoms: C_8  and  N_9 
REMARK    2  A    between atoms: N_9  and  C_10 
REMARK    3  A    between atoms: C_11  and  C_12 
ROOT
HETATM    1  C   UNL     1       7.171  24.862  53.039  1.00  0.00     0.049 A 
HETATM    2  C   UNL     1       7.274  25.262  54.385  1.00  0.00     0.021 A 
HETATM    3  C   UNL     1       7.912  24.436  55.323  1.00  0.00     0.016 A 
HETATM    4  C   UNL     1       8.456  23.217  54.920  1.00  0.00     0.001 A 
HETATM    5  C   UNL     1       8.393  22.835  53.581  1.00  0.00     0.002 A 
HETATM    6  C   UNL     1       7.766  23.660  52.642  1.00  0.00     0.030 A 
ENDROOT
BRANCH   1   7
HETATM    7  N   UNL     1       6.517  25.625  52.047  1.00  0.00    -0.308 N 
HETATM    8  C   UNL     1       5.198  25.452  51.716  1.00  0.00     0.325 C 
HETATM    9  N   UNL     1       4.634  26.417  50.931  1.00  0.00    -0.309 N 
HETATM   10  O   UNL     1       4.545  24.445  51.988  1.00  0.00    -0.247 OA
HETATM   11  H   UNL     1       3.760  26.105  50.527  1.00  0.00     0.170 HD
HETATM   12  H   UNL     1       7.074  25.983  51.282  1.00  0.00     0.170 HD
BRANCH   9  13
HETATM   13  C   UNL     1       4.923  27.791  50.812  1.00  0.00     0.039 A 
HETATM   14  C   UNL     1       4.631  28.740  51.790  1.00  0.00     0.072 A 
HETATM   15  C   UNL     1       4.890  30.089  51.550  1.00  0.00     0.124 A 
HETATM   16  C   UNL     1       5.444  30.526  50.346  1.00  0.00    -0.023 A 
HETATM   17  F   UNL     1       4.576  30.981  52.501  1.00  0.00    -0.205 F 
HETATM   18  C   UNL     1       5.665  31.983  50.082  1.00  0.00     0.051 C 
HETATM   19  C   UNL     1       5.720  29.576  49.358  1.00  0.00     0.012 A 
HETATM   20  C   UNL     1       5.458  28.222  49.591  1.00  0.00     0.030 A 
ENDBRANCH   9  13
ENDBRANCH   1   7
BRANCH   2  21
HETATM   21  C   UNL     1       6.904  26.631  54.817  1.00  0.00     0.089 A 
HETATM   22  N   UNL     1       7.419  27.653  54.200  1.00  0.00    -0.171 NA
HETATM   23  N   UNL     1       7.037  28.888  54.639  1.00  0.00    -0.243 N 
HETATM   24  C   UNL     1       6.162  29.137  55.665  1.00  0.00     0.261 A 
HETATM   25  H   UNL     1       7.428  29.684  54.149  1.00  0.00     0.192 HD
HETATM   26  O   UNL     1       5.844  30.268  56.018  1.00  0.00    -0.267 OA
HETATM   27  C   UNL     1       5.610  27.951  56.346  1.00  0.00     0.078 A 
HETATM   28  C   UNL     1       5.962  26.723  55.956  1.00  0.00     0.040 A 
ENDBRANCH   2  21
TORSDOF 3
ENDMDL
MODEL 7
REMARK VINA RESULT:      -9.0      5.576      9.167
REMARK  3 active torsions:
REMARK  status: ('A' for Active; 'I' for Inactive)
REMARK    1  A    between atoms: C_6  and  N_7 
REMARK       I    between atoms: N_7  and  C_8 
REMARK       I    between atoms: C_8  and  N_9 
REMARK    2  A    between atoms: N_9  and  C_10 
REMARK    3  A    between atoms: C_11  and  C_12 
ROOT
HETATM    1  C   UNL     1       7.802  30.094  58.195  1.00  0.00     0.049 A 
HETATM    2  C   UNL     1       6.710  30.454  57.382  1.00  0.00     0.021 A 
HETATM    3  C   UNL     1       6.488  29.797  56.162  1.00  0.00     0.016 A 
HETATM    4  C   UNL     1       7.347  28.777  55.754  1.00  0.00     0.001 A 
HETATM    5  C   UNL     1       8.405  28.389  56.574  1.00  0.00     0.002 A 
HETATM    6  C   UNL     1       8.624  29.034  57.796  1.00  0.00     0.030 A 
ENDROOT
BRANCH   1   7
HETATM    7  N   UNL     1       8.106  30.729  59.419  1.00  0.00    -0.308 N 
HETATM    8  C   UNL     1       8.950  31.805  59.515  1.00  0.00     0.325 C 
HETATM    9  N   UNL     1       8.954  32.472  60.708  1.00  0.00    -0.309 N 
HETATM   10  O   UNL     1       9.763  32.124  58.649  1.00  0.00    -0.247 OA
HETATM   11  H   UNL     1       9.762  33.077  60.793  1.00  0.00     0.170 HD
HETATM   12  H   UNL     1       8.078  30.170  60.261  1.00  0.00     0.170 HD
BRANCH   9  13
HETATM   13  C   UNL     1       7.939  32.643  61.670  1.00  0.00     0.039 A 
HETATM   14  C   UNL     1       6.623  32.986  61.365  1.00  0.00     0.072 A 
HETATM   15  C   UNL     1       5.705  33.204  62.393  1.00  0.00     0.124 A 
HETATM   16  C   UNL     1       6.067  33.083  63.735  1.00  0.00    -0.023 A 
HETATM   17  F   UNL     1       4.453  33.556  62.070  1.00  0.00    -0.205 F 
HETATM   18  C   UNL     1       5.085  33.374  64.828  1.00  0.00     0.051 C 
HETATM   19  C   UNL     1       7.391  32.757  64.040  1.00  0.00     0.012 A 
HETATM   20  C   UNL     1       8.318  32.542  63.014  1.00  0.00     0.030 A 
ENDBRANCH   9  13
ENDBRANCH   1   7
BRANCH   2  21
HETATM   21  C   UNL     1       5.655  31.376  57.866  1.00  0.00     0.089 A 
HETATM   22  N   UNL     1       5.881  32.657  57.864  1.00  0.00    -0.171 NA
HETATM   23  N   UNL     1       4.870  33.456  58.315  1.00  0.00    -0.243 N 
HETATM   24  C   UNL     1       3.648  33.025  58.762  1.00  0.00     0.261 A 
HETATM   25  H   UNL     1       5.041  34.454  58.300  1.00  0.00     0.192 HD
HETATM   26  O   UNL     1       2.767  33.784  59.151  1.00  0.00    -0.267 OA
HETATM   27  C   UNL     1       3.436  31.565  58.759  1.00  0.00     0.078 A 
HETATM   28  C   UNL     1       4.401  30.744  58.334  1.00  0.00     0.040 A 
ENDBRANCH   2  21
TORSDOF 3
ENDMDL
MODEL 8
REMARK VINA RESULT:      -8.9      4.969      7.120
REMARK  3 active torsions:
REMARK  status: ('A' for Active; 'I' for Inactive)
REMARK    1  A    between atoms: C_6  and  N_7 
REMARK       I    between atoms: N_7  and  C_8 
REMARK       I    between atoms: C_8  and  N_9 
REMARK    2  A    between atoms: N_9  and  C_10 
REMARK    3  A    between atoms: C_11  and  C_12 
ROOT
HETATM    1  C   UNL     1       6.535  26.460  54.162  1.00  0.00     0.049 A 
HETATM    2  C   UNL     1       7.337  25.579  54.913  1.00  0.00     0.021 A 
HETATM    3  C   UNL     1       7.719  25.911  56.222  1.00  0.00     0.016 A 
HETATM    4  C   UNL     1       7.296  27.114  56.787  1.00  0.00     0.001 A 
HETATM    5  C   UNL     1       6.468  27.970  56.062  1.00  0.00     0.002 A 
HETATM    6  C   UNL     1       6.078  27.638  54.761  1.00  0.00     0.030 A 
ENDROOT
BRANCH   1   7
HETATM    7  N   UNL     1       6.137  26.208  52.831  1.00  0.00    -0.308 N 
HETATM    8  C   UNL     1       5.008  25.501  52.508  1.00  0.00     0.325 C 
HETATM    9  N   UNL     1       4.610  25.551  51.202  1.00  0.00    -0.309 N 
HETATM   10  O   UNL     1       4.414  24.755  53.286  1.00  0.00    -0.247 OA
HETATM   11  H   UNL     1       3.938  24.823  50.989  1.00  0.00     0.170 HD
HETATM   12  H   UNL     1       6.859  26.146  52.126  1.00  0.00     0.170 HD
BRANCH   9  13
HETATM   13  C   UNL     1       4.774  26.556  50.228  1.00  0.00     0.039 A 
HETATM   14  C   UNL     1       5.325  27.810  50.484  1.00  0.00     0.072 A 
HETATM   15  C   UNL     1       5.380  28.766  49.469  1.00  0.00     0.124 A 
HETATM   16  C   UNL     1       4.896  28.502  48.187  1.00  0.00    -0.023 A 
HETATM   17  F   UNL     1       5.894  29.971  49.751  1.00  0.00    -0.205 F 
HETATM   18  C   UNL     1       4.911  29.556  47.124  1.00  0.00     0.051 C 
HETATM   19  C   UNL     1       4.326  27.250  47.937  1.00  0.00     0.012 A 
HETATM   20  C   UNL     1       4.264  26.289  48.951  1.00  0.00     0.030 A 
ENDBRANCH   9  13
ENDBRANCH   1   7
BRANCH   2  21
HETATM   21  C   UNL     1       7.633  24.206  54.441  1.00  0.00     0.089 A 
HETATM   22  N   UNL     1       8.064  24.031  53.227  1.00  0.00    -0.171 NA
HETATM   23  N   UNL     1       8.325  22.744  52.851  1.00  0.00    -0.243 N 
HETATM   24  C   UNL     1       8.174  21.633  53.640  1.00  0.00     0.261 A 
HETATM   25  H   UNL     1       8.674  22.609  51.909  1.00  0.00     0.192 HD
HETATM   26  O   UNL     1       8.429  20.496  53.258  1.00  0.00    -0.267 OA
HETATM   27  C   UNL     1       7.672  21.874  55.006  1.00  0.00     0.078 A 
HETATM   28  C   UNL     1       7.396  23.116  55.415  1.00  0.00     0.040 A 
ENDBRANCH   2  21
TORSDOF 3
ENDMDL
MODEL 9
REMARK VINA RESULT:      -8.6      5.533      7.733
REMARK  3 active torsions:
REMARK  status: ('A' for Active; 'I' for Inactive)
REMARK    1  A    between atoms: C_6  and  N_7 
REMARK       I    between atoms: N_7  and  C_8 
REMARK       I    between atoms: C_8  and  N_9 
REMARK    2  A    between atoms: N_9  and  C_10 
REMARK    3  A    between atoms: C_11  and  C_12 
ROOT
HETATM    1  C   UNL     1       6.968  32.046  61.486  1.00  0.00     0.049 A 
HETATM    2  C   UNL     1       5.924  32.738  62.129  1.00  0.00     0.021 A 
HETATM    3  C   UNL     1       6.075  33.174  63.455  1.00  0.00     0.016 A 
HETATM    4  C   UNL     1       7.267  32.929  64.137  1.00  0.00     0.001 A 
HETATM    5  C   UNL     1       8.318  32.280  63.491  1.00  0.00     0.002 A 
HETATM    6  C   UNL     1       8.175  31.853  62.167  1.00  0.00     0.030 A 
ENDROOT
BRANCH   1   7
HETATM    7  N   UNL     1       6.878  31.551  60.166  1.00  0.00    -0.308 N 
HETATM    8  C   UNL     1       7.857  31.744  59.226  1.00  0.00     0.325 C 
HETATM    9  N   UNL     1       7.757  31.003  58.082  1.00  0.00    -0.309 N 
HETATM   10  O   UNL     1       8.732  32.605  59.306  1.00  0.00    -0.247 OA
HETATM   11  H   UNL     1       8.349  31.371  57.347  1.00  0.00     0.170 HD
HETATM   12  H   UNL     1       5.957  31.444  59.764  1.00  0.00     0.170 HD
BRANCH   9  13
HETATM   13  C   UNL     1       7.197  29.730  57.856  1.00  0.00     0.039 A 
HETATM   14  C   UNL     1       7.906  28.534  57.961  1.00  0.00     0.072 A 
HETATM   15  C   UNL     1       7.282  27.327  57.647  1.00  0.00     0.124 A 
HETATM   16  C   UNL     1       5.951  27.276  57.229  1.00  0.00    -0.023 A 
HETATM   17  F   UNL     1       7.996  26.195  57.734  1.00  0.00    -0.205 F 
HETATM   18  C   UNL     1       5.313  25.978  56.843  1.00  0.00     0.051 C 
HETATM   19  C   UNL     1       5.247  28.477  57.106  1.00  0.00     0.012 A 
HETATM   20  C   UNL     1       5.868  29.692  57.415  1.00  0.00     0.030 A 
ENDBRANCH   9  13
ENDBRANCH   1   7
BRANCH   2  21
HETATM   21  C   UNL     1       4.731  33.207  61.386  1.00  0.00     0.089 A 
HETATM   22  N   UNL     1       3.815  32.348  61.049  1.00  0.00    -0.171 NA
HETATM   23  N   UNL     1       2.737  32.840  60.371  1.00  0.00    -0.243 N 
HETATM   24  C   UNL     1       2.540  34.151  60.023  1.00  0.00     0.261 A 
HETATM   25  H   UNL     1       2.016  32.173  60.120  1.00  0.00     0.192 HD
HETATM   26  O   UNL     1       1.549  34.546  59.419  1.00  0.00    -0.267 OA
HETATM   27  C   UNL     1       3.608  35.091  60.414  1.00  0.00     0.078 A 
HETATM   28  C   UNL     1       4.685  34.653  61.071  1.00  0.00     0.040 A 
ENDBRANCH   2  21
TORSDOF 3
ENDMDL
MODEL 10
REMARK VINA RESULT:      -8.6      4.674      6.652
REMARK  3 active torsions:
REMARK  status: ('A' for Active; 'I' for Inactive)
REMARK    1  A    between atoms: C_6  and  N_7 
REMARK       I    between atoms: N_7  and  C_8 
REMARK       I    between atoms: C_8  and  N_9 
REMARK    2  A    between atoms: N_9  and  C_10 
REMARK    3  A    between atoms: C_11  and  C_12 
ROOT
HETATM    1  C   UNL     1       6.019  25.417  53.621  1.00  0.00     0.049 A 
HETATM    2  C   UNL     1       6.148  25.484  55.022  1.00  0.00     0.021 A 
HETATM    3  C   UNL     1       6.800  24.457  55.723  1.00  0.00     0.016 A 
HETATM    4  C   UNL     1       7.331  23.370  55.029  1.00  0.00     0.001 A 
HETATM    5  C   UNL     1       7.242  23.320  53.639  1.00  0.00     0.002 A 
HETATM    6  C   UNL     1       6.602  24.346  52.937  1.00  0.00     0.030 A 
ENDROOT
BRANCH   1   7
HETATM    7  N   UNL     1       5.350  26.396  52.853  1.00  0.00    -0.308 N 
HETATM    8  C   UNL     1       5.954  27.547  52.418  1.00  0.00     0.325 C 
HETATM    9  N   UNL     1       5.275  28.274  51.481  1.00  0.00    -0.309 N 
HETATM   10  O   UNL     1       6.991  28.005  52.894  1.00  0.00    -0.247 OA
HETATM   11  H   UNL     1       5.647  29.213  51.397  1.00  0.00     0.170 HD
HETATM   12  H   UNL     1       4.352  26.494  52.979  1.00  0.00     0.170 HD
BRANCH   9  13
HETATM   13  C   UNL     1       4.366  27.870  50.484  1.00  0.00     0.039 A 
HETATM   14  C   UNL     1       4.594  26.819  49.596  1.00  0.00     0.072 A 
HETATM   15  C   UNL     1       3.664  26.539  48.596  1.00  0.00     0.124 A 
HETATM   16  C   UNL     1       2.493  27.286  48.454  1.00  0.00    -0.023 A 
HETATM   17  F   UNL     1       3.922  25.538  47.742  1.00  0.00    -0.205 F 
HETATM   18  C   UNL     1       1.531  27.009  47.341  1.00  0.00     0.051 C 
HETATM   19  C   UNL     1       2.274  28.351  49.332  1.00  0.00     0.012 A 
HETATM   20  C   UNL     1       3.205  28.639  50.336  1.00  0.00     0.030 A 
ENDBRANCH   9  13
ENDBRANCH   1   7
BRANCH   2  21
HETATM   21  C   UNL     1       5.792  26.709  55.776  1.00  0.00     0.089 A 
HETATM   22  N   UNL     1       4.563  27.134  55.755  1.00  0.00    -0.171 NA
HETATM   23  N   UNL     1       4.295  28.264  56.473  1.00  0.00    -0.243 N 
HETATM   24  C   UNL     1       5.204  28.978  57.210  1.00  0.00     0.261 A 
HETATM   25  H   UNL     1       3.335  28.587  56.468  1.00  0.00     0.192 HD
HETATM   26  O   UNL     1       4.913  29.985  57.846  1.00  0.00    -0.267 OA
HETATM   27  C   UNL     1       6.589  28.469  57.198  1.00  0.00     0.078 A 
HETATM   28  C   UNL     1       6.899  27.372  56.503  1.00  0.00     0.040 A 
ENDBRANCH   2  21
TORSDOF 3
ENDMDL
