MODEL 1
REMARK VINA RESULT:      -8.9      0.000      0.000
REMARK  12 active torsions:
REMARK  status: ('A' for Active; 'I' for Inactive)
REMARK    1  A    between atoms: C_2  and  N_3 
REMARK    2  A    between atoms: N_3  and  C_5 
REMARK    3  A    between atoms: N_3  and  C_37 
REMARK    4  A    between atoms: C_5  and  C_6 
REMARK    5  A    between atoms: N_7  and  C_8 
REMARK    6  A    between atoms: C_12  and  N_13 
REMARK    7  A    between atoms: C_16  and  C_17 
REMARK       I    between atoms: C_17  and  N_18 
REMARK    8  A    between atoms: N_18  and  N_19 
REMARK    9  A    between atoms: C_20  and  C_21 
REMARK   10  A    between atoms: C_23  and  C_24 
REMARK   11  A    between atoms: C_28  and  O_29 
REMARK   12  A    between atoms: C_30  and  C_31 
ROOT
HETATM    1  C   UNL     1       4.847  30.362  57.366  1.00  0.00     0.293 C 
HETATM    2  N   UNL     1       4.750  29.006  57.616  1.00  0.00    -0.242 N 
HETATM    3  O   UNL     1       5.240  30.872  56.319  1.00  0.00    -0.264 OA
HETATM    4  H   UNL     1       4.410  28.662  58.509  1.00  0.00     0.192 HD
ENDROOT
BRANCH   1   5
HETATM    5  C   UNL     1       4.452  31.211  58.481  1.00  0.00     0.170 A 
HETATM    6  C   UNL     1       5.303  31.823  59.391  1.00  0.00     0.096 A 
HETATM    7  N   UNL     1       4.449  32.426  60.309  1.00  0.00    -0.215 N 
HETATM    8  N   UNL     1       3.169  32.277  59.875  1.00  0.00     0.012 NA
HETATM    9  N   UNL     1       3.161  31.520  58.790  1.00  0.00    -0.152 NA
BRANCH   6  10
HETATM   10  C   UNL     1       6.783  31.936  59.376  1.00  0.00     0.296 C 
BRANCH  10  11
HETATM   11  N   UNL     1       7.555  30.812  60.042  1.00  0.00    -0.066 N 
HETATM   12  H   UNL     1       6.895  30.024  60.139  1.00  0.00     0.280 HD
BRANCH  11  13
HETATM   13  C   UNL     1       7.997  31.212  61.445  1.00  0.00     0.231 C 
HETATM   14  C   UNL     1       9.463  31.604  61.474  1.00  0.00     0.034 C 
ENDBRANCH  11  13
BRANCH  11  15
HETATM   15  C   UNL     1       8.739  30.344  59.206  1.00  0.00     0.231 C 
HETATM   16  C   UNL     1       8.306  29.307  58.181  1.00  0.00     0.034 C 
ENDBRANCH  11  15
ENDBRANCH  10  11
ENDBRANCH   6  10
BRANCH   7  17
HETATM   17  C   UNL     1       4.774  33.054  61.534  1.00  0.00     0.225 A 
HETATM   18  N   UNL     1       5.025  34.366  61.563  1.00  0.00    -0.081 NA
HETATM   19  O   UNL     1       5.323  34.614  62.907  1.00  0.00    -0.103 OA
HETATM   20  N   UNL     1       5.276  33.447  63.655  1.00  0.00    -0.083 NA
HETATM   21  C   UNL     1       4.938  32.479  62.805  1.00  0.00     0.201 A 
BRANCH  21  22
HETATM   22  N   UNL     1       4.786  31.189  63.140  1.00  0.00    -0.379 N 
HETATM   23  H   UNL     1       4.556  30.932  64.098  1.00  0.00     0.158 HD
HETATM   24  H   UNL     1       5.063  30.409  62.546  1.00  0.00     0.158 HD
ENDBRANCH  21  22
ENDBRANCH   7  17
ENDBRANCH   1   5
BRANCH   2  25
HETATM   25  N   UNL     1       5.106  28.137  56.633  1.00  0.00    -0.184 NA
HETATM   26  C   UNL     1       5.630  27.013  57.007  1.00  0.00     0.150 C 
BRANCH  26  27
HETATM   27  C   UNL     1       6.042  26.004  56.007  1.00  0.00    -0.016 A 
HETATM   28  C   UNL     1       6.834  24.917  56.390  1.00  0.00     0.023 A 
HETATM   29  C   UNL     1       7.255  23.936  55.472  1.00  0.00    -0.016 A 
HETATM   30  C   UNL     1       6.842  24.127  54.126  1.00  0.00     0.079 A 
HETATM   31  C   UNL     1       6.037  25.228  53.702  1.00  0.00    -0.016 A 
HETATM   32  C   UNL     1       5.643  26.154  54.683  1.00  0.00     0.023 A 
BRANCH  29  33
HETATM   33  C   UNL     1       8.117  22.748  55.977  1.00  0.00    -0.021 C 
HETATM   34  C   UNL     1       7.426  21.361  55.825  1.00  0.00     0.019 C 
HETATM   35  C   UNL     1       9.426  22.632  55.165  1.00  0.00     0.019 C 
HETATM   36  C   UNL     1       8.406  22.889  57.490  1.00  0.00     0.019 C 
ENDBRANCH  29  33
BRANCH  30  37
HETATM   37  O   UNL     1       7.195  23.251  53.137  1.00  0.00    -0.360 OA
HETATM   38  H   UNL     1       7.333  22.363  53.481  1.00  0.00     0.217 HD
ENDBRANCH  30  37
BRANCH  31  39
HETATM   39  C   UNL     1       5.617  25.425  52.219  1.00  0.00    -0.021 C 
HETATM   40  C   UNL     1       4.604  24.342  51.785  1.00  0.00     0.019 C 
HETATM   41  C   UNL     1       4.924  26.787  51.945  1.00  0.00     0.019 C 
HETATM   42  C   UNL     1       6.858  25.392  51.298  1.00  0.00     0.019 C 
ENDBRANCH  31  39
ENDBRANCH  26  27
ENDBRANCH   2  25
TORSDOF 12
ENDMDL
MODEL 2
REMARK VINA RESULT:      -8.7      0.189      3.022
REMARK  12 active torsions:
REMARK  status: ('A' for Active; 'I' for Inactive)
REMARK    1  A    between atoms: C_2  and  N_3 
REMARK    2  A    between atoms: N_3  and  C_5 
REMARK    3  A    between atoms: N_3  and  C_37 
REMARK    4  A    between atoms: C_5  and  C_6 
REMARK    5  A    between atoms: N_7  and  C_8 
REMARK    6  A    between atoms: C_12  and  N_13 
REMARK    7  A    between atoms: C_16  and  C_17 
REMARK       I    between atoms: C_17  and  N_18 
REMARK    8  A    between atoms: N_18  and  N_19 
REMARK    9  A    between atoms: C_20  and  C_21 
REMARK   10  A    between atoms: C_23  and  C_24 
REMARK   11  A    between atoms: C_28  and  O_29 
REMARK   12  A    between atoms: C_30  and  C_31 
ROOT
HETATM    1  C   UNL     1       4.801  30.404  57.354  1.00  0.00     0.293 C 
HETATM    2  N   UNL     1       4.864  29.055  57.641  1.00  0.00    -0.242 N 
HETATM    3  O   UNL     1       5.070  30.921  56.272  1.00  0.00    -0.264 OA
HETATM    4  H   UNL     1       4.621  28.704  58.563  1.00  0.00     0.192 HD
ENDROOT
BRANCH   1   5
HETATM    5  C   UNL     1       4.389  31.241  58.472  1.00  0.00     0.170 A 
HETATM    6  C   UNL     1       5.228  31.882  59.373  1.00  0.00     0.096 A 
HETATM    7  N   UNL     1       4.364  32.458  60.299  1.00  0.00    -0.215 N 
HETATM    8  N   UNL     1       3.085  32.265  59.878  1.00  0.00     0.012 NA
HETATM    9  N   UNL     1       3.091  31.507  58.794  1.00  0.00    -0.152 NA
BRANCH   6  10
HETATM   10  C   UNL     1       6.703  32.045  59.343  1.00  0.00     0.296 C 
BRANCH  10  11
HETATM   11  N   UNL     1       7.523  30.893  59.896  1.00  0.00    -0.066 N 
HETATM   12  H   UNL     1       6.893  30.076  59.925  1.00  0.00     0.280 HD
BRANCH  11  13
HETATM   13  C   UNL     1       7.967  31.178  61.326  1.00  0.00     0.231 C 
HETATM   14  C   UNL     1       9.378  30.679  61.579  1.00  0.00     0.034 C 
ENDBRANCH  11  13
BRANCH  11  15
HETATM   15  C   UNL     1       8.712  30.547  59.010  1.00  0.00     0.231 C 
HETATM   16  C   UNL     1       8.400  29.356  58.118  1.00  0.00     0.034 C 
ENDBRANCH  11  15
ENDBRANCH  10  11
ENDBRANCH   6  10
BRANCH   7  17
HETATM   17  C   UNL     1       4.680  33.096  61.521  1.00  0.00     0.225 A 
HETATM   18  N   UNL     1       4.877  34.418  61.548  1.00  0.00    -0.081 NA
HETATM   19  O   UNL     1       5.184  34.676  62.888  1.00  0.00    -0.103 OA
HETATM   20  N   UNL     1       5.195  33.508  63.635  1.00  0.00    -0.083 NA
HETATM   21  C   UNL     1       4.885  32.527  62.788  1.00  0.00     0.201 A 
BRANCH  21  22
HETATM   22  N   UNL     1       4.790  31.232  63.124  1.00  0.00    -0.379 N 
HETATM   23  H   UNL     1       5.558  30.768  63.603  1.00  0.00     0.158 HD
HETATM   24  H   UNL     1       4.069  30.605  62.772  1.00  0.00     0.158 HD
ENDBRANCH  21  22
ENDBRANCH   7  17
ENDBRANCH   1   5
BRANCH   2  25
HETATM   25  N   UNL     1       5.249  28.198  56.658  1.00  0.00    -0.184 NA
HETATM   26  C   UNL     1       5.635  27.018  57.026  1.00  0.00     0.150 C 
BRANCH  26  27
HETATM   27  C   UNL     1       6.064  26.018  56.024  1.00  0.00    -0.016 A 
HETATM   28  C   UNL     1       5.673  26.148  54.688  1.00  0.00     0.023 A 
HETATM   29  C   UNL     1       6.052  25.217  53.703  1.00  0.00    -0.016 A 
HETATM   30  C   UNL     1       6.843  24.125  54.152  1.00  0.00     0.079 A 
HETATM   31  C   UNL     1       7.256  23.961  55.509  1.00  0.00    -0.016 A 
HETATM   32  C   UNL     1       6.851  24.944  56.429  1.00  0.00     0.023 A 
BRANCH  29  33
HETATM   33  C   UNL     1       5.594  25.439  52.237  1.00  0.00    -0.021 C 
HETATM   34  C   UNL     1       4.880  26.803  52.001  1.00  0.00     0.019 C 
HETATM   35  C   UNL     1       6.805  25.454  51.277  1.00  0.00     0.019 C 
HETATM   36  C   UNL     1       4.561  24.367  51.820  1.00  0.00     0.019 C 
ENDBRANCH  29  33
BRANCH  30  37
HETATM   37  O   UNL     1       7.266  23.147  53.295  1.00  0.00    -0.360 OA
HETATM   38  H   UNL     1       7.933  23.474  52.682  1.00  0.00     0.217 HD
ENDBRANCH  30  37
BRANCH  31  39
HETATM   39  C   UNL     1       8.103  22.746  55.978  1.00  0.00    -0.021 C 
HETATM   40  C   UNL     1       7.355  21.420  55.715  1.00  0.00     0.019 C 
HETATM   41  C   UNL     1       9.465  22.617  55.244  1.00  0.00     0.019 C 
HETATM   42  C   UNL     1       8.444  22.875  57.480  1.00  0.00     0.019 C 
ENDBRANCH  31  39
ENDBRANCH  26  27
ENDBRANCH   2  25
TORSDOF 12
ENDMDL
MODEL 3
REMARK VINA RESULT:      -8.7      6.686     10.501
REMARK  12 active torsions:
REMARK  status: ('A' for Active; 'I' for Inactive)
REMARK    1  A    between atoms: C_2  and  N_3 
REMARK    2  A    between atoms: N_3  and  C_5 
REMARK    3  A    between atoms: N_3  and  C_37 
REMARK    4  A    between atoms: C_5  and  C_6 
REMARK    5  A    between atoms: N_7  and  C_8 
REMARK    6  A    between atoms: C_12  and  N_13 
REMARK    7  A    between atoms: C_16  and  C_17 
REMARK       I    between atoms: C_17  and  N_18 
REMARK    8  A    between atoms: N_18  and  N_19 
REMARK    9  A    between atoms: C_20  and  C_21 
REMARK   10  A    between atoms: C_23  and  C_24 
REMARK   11  A    between atoms: C_28  and  O_29 
REMARK   12  A    between atoms: C_30  and  C_31 
ROOT
HETATM    1  C   UNL     1       4.584  27.021  49.420  1.00  0.00     0.293 C 
HETATM    2  N   UNL     1       4.403  25.957  50.282  1.00  0.00    -0.242 N 
HETATM    3  O   UNL     1       5.464  27.874  49.509  1.00  0.00    -0.264 OA
HETATM    4  H   UNL     1       3.651  25.288  50.138  1.00  0.00     0.192 HD
ENDROOT
BRANCH   1   5
HETATM    5  C   UNL     1       3.611  27.096  48.340  1.00  0.00     0.170 A 
HETATM    6  C   UNL     1       2.576  28.014  48.229  1.00  0.00     0.096 A 
HETATM    7  N   UNL     1       1.876  27.609  47.097  1.00  0.00    -0.215 N 
HETATM    8  N   UNL     1       2.552  26.583  46.512  1.00  0.00     0.012 NA
HETATM    9  N   UNL     1       3.582  26.250  47.272  1.00  0.00    -0.152 NA
BRANCH   6  10
HETATM   10  C   UNL     1       2.296  29.229  49.033  1.00  0.00     0.296 C 
BRANCH  10  11
HETATM   11  N   UNL     1       3.478  30.138  49.321  1.00  0.00    -0.066 N 
HETATM   12  H   UNL     1       4.324  29.560  49.204  1.00  0.00     0.280 HD
BRANCH  11  13
HETATM   13  C   UNL     1       3.453  30.623  50.766  1.00  0.00     0.231 C 
HETATM   14  C   UNL     1       3.064  29.508  51.719  1.00  0.00     0.034 C 
ENDBRANCH  11  13
BRANCH  11  15
HETATM   15  C   UNL     1       3.561  31.310  48.351  1.00  0.00     0.231 C 
HETATM   16  C   UNL     1       4.505  30.999  47.201  1.00  0.00     0.034 C 
ENDBRANCH  11  15
ENDBRANCH  10  11
ENDBRANCH   6  10
BRANCH   7  17
HETATM   17  C   UNL     1       0.639  28.088  46.607  1.00  0.00     0.225 A 
HETATM   18  N   UNL     1      -0.450  27.316  46.683  1.00  0.00    -0.081 NA
HETATM   19  O   UNL     1      -1.448  28.099  46.093  1.00  0.00    -0.103 OA
HETATM   20  N   UNL     1      -0.940  29.309  45.647  1.00  0.00    -0.083 NA
HETATM   21  C   UNL     1       0.354  29.303  45.963  1.00  0.00     0.201 A 
BRANCH  21  22
HETATM   22  N   UNL     1       1.208  30.304  45.701  1.00  0.00    -0.379 N 
HETATM   23  H   UNL     1       1.231  30.730  44.777  1.00  0.00     0.158 HD
HETATM   24  H   UNL     1       1.984  30.564  46.307  1.00  0.00     0.158 HD
ENDBRANCH  21  22
ENDBRANCH   7  17
ENDBRANCH   1   5
BRANCH   2  25
HETATM   25  N   UNL     1       5.261  25.812  51.326  1.00  0.00    -0.184 NA
HETATM   26  C   UNL     1       5.012  24.855  52.162  1.00  0.00     0.150 C 
BRANCH  26  27
HETATM   27  C   UNL     1       5.896  24.618  53.324  1.00  0.00    -0.016 A 
HETATM   28  C   UNL     1       6.595  23.413  53.442  1.00  0.00     0.023 A 
HETATM   29  C   UNL     1       7.442  23.142  54.534  1.00  0.00    -0.016 A 
HETATM   30  C   UNL     1       7.530  24.162  55.520  1.00  0.00     0.079 A 
HETATM   31  C   UNL     1       6.827  25.401  55.431  1.00  0.00    -0.016 A 
HETATM   32  C   UNL     1       6.015  25.602  54.301  1.00  0.00     0.023 A 
BRANCH  29  33
HETATM   33  C   UNL     1       8.200  21.789  54.585  1.00  0.00    -0.021 C 
HETATM   34  C   UNL     1       9.734  21.934  54.809  1.00  0.00     0.019 C 
HETATM   35  C   UNL     1       7.707  20.925  55.767  1.00  0.00     0.019 C 
HETATM   36  C   UNL     1       8.059  21.035  53.242  1.00  0.00     0.019 C 
ENDBRANCH  29  33
BRANCH  30  37
HETATM   37  O   UNL     1       8.310  24.016  56.634  1.00  0.00    -0.360 OA
HETATM   38  H   UNL     1       7.809  24.173  57.441  1.00  0.00     0.217 HD
ENDBRANCH  30  37
BRANCH  31  39
HETATM   39  C   UNL     1       6.923  26.491  56.534  1.00  0.00    -0.021 C 
HETATM   40  C   UNL     1       5.535  27.103  56.826  1.00  0.00     0.019 C 
HETATM   41  C   UNL     1       7.444  25.954  57.895  1.00  0.00     0.019 C 
HETATM   42  C   UNL     1       7.915  27.599  56.111  1.00  0.00     0.019 C 
ENDBRANCH  31  39
ENDBRANCH  26  27
ENDBRANCH   2  25
TORSDOF 12
ENDMDL
MODEL 4
REMARK VINA RESULT:      -8.7      2.160      4.330
REMARK  12 active torsions:
REMARK  status: ('A' for Active; 'I' for Inactive)
REMARK    1  A    between atoms: C_2  and  N_3 
REMARK    2  A    between atoms: N_3  and  C_5 
REMARK    3  A    between atoms: N_3  and  C_37 
REMARK    4  A    between atoms: C_5  and  C_6 
REMARK    5  A    between atoms: N_7  and  C_8 
REMARK    6  A    between atoms: C_12  and  N_13 
REMARK    7  A    between atoms: C_16  and  C_17 
REMARK       I    between atoms: C_17  and  N_18 
REMARK    8  A    between atoms: N_18  and  N_19 
REMARK    9  A    between atoms: C_20  and  C_21 
REMARK   10  A    between atoms: C_23  and  C_24 
REMARK   11  A    between atoms: C_28  and  O_29 
REMARK   12  A    between atoms: C_30  and  C_31 
ROOT
HETATM    1  C   UNL     1       4.917  31.772  58.371  1.00  0.00     0.293 C 
HETATM    2  N   UNL     1       4.513  30.481  58.091  1.00  0.00    -0.242 N 
HETATM    3  O   UNL     1       5.691  32.445  57.693  1.00  0.00    -0.264 OA
HETATM    4  H   UNL     1       3.865  29.992  58.701  1.00  0.00     0.192 HD
ENDROOT
BRANCH   1   5
HETATM    5  C   UNL     1       4.358  32.329  59.595  1.00  0.00     0.170 A 
HETATM    6  C   UNL     1       5.049  32.590  60.770  1.00  0.00     0.096 A 
HETATM    7  N   UNL     1       4.066  33.007  61.662  1.00  0.00    -0.215 N 
HETATM    8  N   UNL     1       2.886  33.104  60.993  1.00  0.00     0.012 NA
HETATM    9  N   UNL     1       3.048  32.668  59.755  1.00  0.00    -0.152 NA
BRANCH   6  10
HETATM   10  C   UNL     1       6.508  32.558  61.038  1.00  0.00     0.296 C 
BRANCH  10  11
HETATM   11  N   UNL     1       7.142  31.186  61.179  1.00  0.00    -0.066 N 
HETATM   12  H   UNL     1       6.363  30.512  61.248  1.00  0.00     0.280 HD
BRANCH  11  13
HETATM   13  C   UNL     1       7.946  31.088  62.470  1.00  0.00     0.231 C 
HETATM   14  C   UNL     1       8.134  32.449  63.113  1.00  0.00     0.034 C 
ENDBRANCH  11  13
BRANCH  11  15
HETATM   15  C   UNL     1       7.993  30.811  59.973  1.00  0.00     0.231 C 
HETATM   16  C   UNL     1       8.908  31.958  59.574  1.00  0.00     0.034 C 
ENDBRANCH  11  15
ENDBRANCH  10  11
ENDBRANCH   6  10
BRANCH   7  17
HETATM   17  C   UNL     1       4.182  33.251  63.050  1.00  0.00     0.225 A 
HETATM   18  N   UNL     1       4.813  32.366  63.829  1.00  0.00    -0.081 NA
HETATM   19  O   UNL     1       4.707  32.923  65.109  1.00  0.00    -0.103 OA
HETATM   20  N   UNL     1       3.993  34.111  65.082  1.00  0.00    -0.083 NA
HETATM   21  C   UNL     1       3.664  34.314  63.807  1.00  0.00     0.201 A 
BRANCH  21  22
HETATM   22  N   UNL     1       2.964  35.367  63.358  1.00  0.00    -0.379 N 
HETATM   23  H   UNL     1       3.245  36.313  63.606  1.00  0.00     0.158 HD
HETATM   24  H   UNL     1       2.044  35.296  62.927  1.00  0.00     0.158 HD
ENDBRANCH  21  22
ENDBRANCH   7  17
ENDBRANCH   1   5
BRANCH   2  25
HETATM   25  N   UNL     1       4.993  29.878  56.971  1.00  0.00    -0.184 NA
HETATM   26  C   UNL     1       4.135  29.599  56.042  1.00  0.00     0.150 C 
BRANCH  26  27
HETATM   27  C   UNL     1       4.568  28.949  54.786  1.00  0.00    -0.016 A 
HETATM   28  C   UNL     1       4.336  29.572  53.556  1.00  0.00     0.023 A 
HETATM   29  C   UNL     1       4.724  28.987  52.336  1.00  0.00    -0.016 A 
HETATM   30  C   UNL     1       5.350  27.715  52.427  1.00  0.00     0.079 A 
HETATM   31  C   UNL     1       5.598  27.050  53.667  1.00  0.00    -0.016 A 
HETATM   32  C   UNL     1       5.196  27.708  54.842  1.00  0.00     0.023 A 
BRANCH  29  33
HETATM   33  C   UNL     1       4.450  29.749  51.012  1.00  0.00    -0.021 C 
HETATM   34  C   UNL     1       5.709  29.921  50.112  1.00  0.00     0.019 C 
HETATM   35  C   UNL     1       3.436  28.982  50.133  1.00  0.00     0.019 C 
HETATM   36  C   UNL     1       3.964  31.188  51.302  1.00  0.00     0.019 C 
ENDBRANCH  29  33
BRANCH  30  37
HETATM   37  O   UNL     1       5.763  27.037  51.314  1.00  0.00    -0.360 OA
HETATM   38  H   UNL     1       5.786  26.086  51.464  1.00  0.00     0.217 HD
ENDBRANCH  30  37
BRANCH  31  39
HETATM   39  C   UNL     1       6.265  25.649  53.738  1.00  0.00    -0.021 C 
HETATM   40  C   UNL     1       6.225  25.093  55.179  1.00  0.00     0.019 C 
HETATM   41  C   UNL     1       5.566  24.582  52.853  1.00  0.00     0.019 C 
HETATM   42  C   UNL     1       7.725  25.721  53.237  1.00  0.00     0.019 C 
ENDBRANCH  31  39
ENDBRANCH  26  27
ENDBRANCH   2  25
TORSDOF 12
ENDMDL
MODEL 5
REMARK VINA RESULT:      -8.5      6.755     10.680
REMARK  12 active torsions:
REMARK  status: ('A' for Active; 'I' for Inactive)
REMARK    1  A    between atoms: C_2  and  N_3 
REMARK    2  A    between atoms: N_3  and  C_5 
REMARK    3  A    between atoms: N_3  and  C_37 
REMARK    4  A    between atoms: C_5  and  C_6 
REMARK    5  A    between atoms: N_7  and  C_8 
REMARK    6  A    between atoms: C_12  and  N_13 
REMARK    7  A    between atoms: C_16  and  C_17 
REMARK       I    between atoms: C_17  and  N_18 
REMARK    8  A    between atoms: N_18  and  N_19 
REMARK    9  A    between atoms: C_20  and  C_21 
REMARK   10  A    between atoms: C_23  and  C_24 
REMARK   11  A    between atoms: C_28  and  O_29 
REMARK   12  A    between atoms: C_30  and  C_31 
ROOT
HETATM    1  C   UNL     1       4.549  26.952  49.363  1.00  0.00     0.293 C 
HETATM    2  N   UNL     1       4.425  25.834  50.164  1.00  0.00    -0.242 N 
HETATM    3  O   UNL     1       5.389  27.840  49.495  1.00  0.00    -0.264 OA
HETATM    4  H   UNL     1       3.704  25.140  49.987  1.00  0.00     0.192 HD
ENDROOT
BRANCH   1   5
HETATM    5  C   UNL     1       3.564  27.043  48.295  1.00  0.00     0.170 A 
HETATM    6  C   UNL     1       2.554  27.989  48.186  1.00  0.00     0.096 A 
HETATM    7  N   UNL     1       1.828  27.590  47.068  1.00  0.00    -0.215 N 
HETATM    8  N   UNL     1       2.467  26.539  46.487  1.00  0.00     0.012 NA
HETATM    9  N   UNL     1       3.497  26.185  47.238  1.00  0.00    -0.152 NA
BRANCH   6  10
HETATM   10  C   UNL     1       2.319  29.221  48.979  1.00  0.00     0.296 C 
BRANCH  10  11
HETATM   11  N   UNL     1       3.512  30.141  49.170  1.00  0.00    -0.066 N 
HETATM   12  H   UNL     1       4.350  29.540  49.146  1.00  0.00     0.280 HD
BRANCH  11  13
HETATM   13  C   UNL     1       3.469  30.810  50.539  1.00  0.00     0.231 C 
HETATM   14  C   UNL     1       2.090  31.364  50.844  1.00  0.00     0.034 C 
ENDBRANCH  11  13
BRANCH  11  15
HETATM   15  C   UNL     1       3.633  31.174  48.058  1.00  0.00     0.231 C 
HETATM   16  C   UNL     1       4.658  30.741  47.021  1.00  0.00     0.034 C 
ENDBRANCH  11  15
ENDBRANCH  10  11
ENDBRANCH   6  10
BRANCH   7  17
HETATM   17  C   UNL     1       0.598  28.098  46.588  1.00  0.00     0.225 A 
HETATM   18  N   UNL     1      -0.508  27.352  46.673  1.00  0.00    -0.081 NA
HETATM   19  O   UNL     1      -1.492  28.159  46.091  1.00  0.00    -0.103 OA
HETATM   20  N   UNL     1      -0.958  29.357  45.641  1.00  0.00    -0.083 NA
HETATM   21  C   UNL     1       0.338  29.320  45.946  1.00  0.00     0.201 A 
BRANCH  21  22
HETATM   22  N   UNL     1       1.212  30.301  45.677  1.00  0.00    -0.379 N 
HETATM   23  H   UNL     1       1.597  30.867  46.431  1.00  0.00     0.158 HD
HETATM   24  H   UNL     1       1.395  30.659  44.742  1.00  0.00     0.158 HD
ENDBRANCH  21  22
ENDBRANCH   7  17
ENDBRANCH   1   5
BRANCH   2  25
HETATM   25  N   UNL     1       5.298  25.671  51.193  1.00  0.00    -0.184 NA
HETATM   26  C   UNL     1       4.927  24.893  52.160  1.00  0.00     0.150 C 
BRANCH  26  27
HETATM   27  C   UNL     1       5.816  24.651  53.318  1.00  0.00    -0.016 A 
HETATM   28  C   UNL     1       5.955  25.624  54.312  1.00  0.00     0.023 A 
HETATM   29  C   UNL     1       6.794  25.440  55.427  1.00  0.00    -0.016 A 
HETATM   30  C   UNL     1       7.506  24.211  55.473  1.00  0.00     0.079 A 
HETATM   31  C   UNL     1       7.389  23.199  54.472  1.00  0.00    -0.016 A 
HETATM   32  C   UNL     1       6.517  23.452  53.399  1.00  0.00     0.023 A 
BRANCH  29  33
HETATM   33  C   UNL     1       6.882  26.558  56.500  1.00  0.00    -0.021 C 
HETATM   34  C   UNL     1       7.423  26.070  57.876  1.00  0.00     0.019 C 
HETATM   35  C   UNL     1       7.862  27.669  56.060  1.00  0.00     0.019 C 
HETATM   36  C   UNL     1       5.479  27.135  56.801  1.00  0.00     0.019 C 
ENDBRANCH  29  33
BRANCH  30  37
HETATM   37  O   UNL     1       8.362  23.916  56.498  1.00  0.00    -0.360 OA
HETATM   38  H   UNL     1       9.115  23.398  56.195  1.00  0.00     0.217 HD
ENDBRANCH  30  37
BRANCH  31  39
HETATM   39  C   UNL     1       8.196  21.873  54.535  1.00  0.00    -0.021 C 
HETATM   40  C   UNL     1       8.056  21.081  53.215  1.00  0.00     0.019 C 
HETATM   41  C   UNL     1       9.720  22.082  54.744  1.00  0.00     0.019 C 
HETATM   42  C   UNL     1       7.721  21.010  55.726  1.00  0.00     0.019 C 
ENDBRANCH  31  39
ENDBRANCH  26  27
ENDBRANCH   2  25
TORSDOF 12
ENDMDL
MODEL 6
REMARK VINA RESULT:      -8.4      1.910      3.058
REMARK  12 active torsions:
REMARK  status: ('A' for Active; 'I' for Inactive)
REMARK    1  A    between atoms: C_2  and  N_3 
REMARK    2  A    between atoms: N_3  and  C_5 
REMARK    3  A    between atoms: N_3  and  C_37 
REMARK    4  A    between atoms: C_5  and  C_6 
REMARK    5  A    between atoms: N_7  and  C_8 
REMARK    6  A    between atoms: C_12  and  N_13 
REMARK    7  A    between atoms: C_16  and  C_17 
REMARK       I    between atoms: C_17  and  N_18 
REMARK    8  A    between atoms: N_18  and  N_19 
REMARK    9  A    between atoms: C_20  and  C_21 
REMARK   10  A    between atoms: C_23  and  C_24 
REMARK   11  A    between atoms: C_28  and  O_29 
REMARK   12  A    between atoms: C_30  and  C_31 
ROOT
HETATM    1  C   UNL     1       4.987  31.483  57.838  1.00  0.00     0.293 C 
HETATM    2  N   UNL     1       4.648  30.170  57.571  1.00  0.00    -0.242 N 
HETATM    3  O   UNL     1       5.713  32.192  57.145  1.00  0.00    -0.264 OA
HETATM    4  H   UNL     1       4.036  29.650  58.193  1.00  0.00     0.192 HD
ENDROOT
BRANCH   1   5
HETATM    5  C   UNL     1       4.417  32.015  59.067  1.00  0.00     0.170 A 
HETATM    6  C   UNL     1       5.112  32.330  60.227  1.00  0.00     0.096 A 
HETATM    7  N   UNL     1       4.122  32.694  61.134  1.00  0.00    -0.215 N 
HETATM    8  N   UNL     1       2.925  32.712  60.487  1.00  0.00     0.012 NA
HETATM    9  N   UNL     1       3.091  32.275  59.249  1.00  0.00    -0.152 NA
BRANCH   6  10
HETATM   10  C   UNL     1       6.575  32.390  60.468  1.00  0.00     0.296 C 
BRANCH  10  11
HETATM   11  N   UNL     1       7.279  31.065  60.698  1.00  0.00    -0.066 N 
HETATM   12  H   UNL     1       6.540  30.373  60.893  1.00  0.00     0.280 HD
BRANCH  11  13
HETATM   13  C   UNL     1       8.177  31.133  61.928  1.00  0.00     0.231 C 
HETATM   14  C   UNL     1       8.060  32.473  62.629  1.00  0.00     0.034 C 
ENDBRANCH  11  13
BRANCH  11  15
HETATM   15  C   UNL     1       8.059  30.601  59.475  1.00  0.00     0.231 C 
HETATM   16  C   UNL     1       9.193  31.562  59.154  1.00  0.00     0.034 C 
ENDBRANCH  11  15
ENDBRANCH  10  11
ENDBRANCH   6  10
BRANCH   7  17
HETATM   17  C   UNL     1       4.248  32.958  62.518  1.00  0.00     0.225 A 
HETATM   18  N   UNL     1       4.721  32.010  63.334  1.00  0.00    -0.081 NA
HETATM   19  O   UNL     1       4.679  32.614  64.595  1.00  0.00    -0.103 OA
HETATM   20  N   UNL     1       4.155  33.896  64.521  1.00  0.00    -0.083 NA
HETATM   21  C   UNL     1       3.885  34.110  63.235  1.00  0.00     0.201 A 
BRANCH  21  22
HETATM   22  N   UNL     1       3.363  35.243  62.743  1.00  0.00    -0.379 N 
HETATM   23  H   UNL     1       3.730  36.146  63.035  1.00  0.00     0.158 HD
HETATM   24  H   UNL     1       2.487  35.289  62.226  1.00  0.00     0.158 HD
ENDBRANCH  21  22
ENDBRANCH   7  17
ENDBRANCH   1   5
BRANCH   2  25
HETATM   25  N   UNL     1       5.143  29.587  56.447  1.00  0.00    -0.184 NA
HETATM   26  C   UNL     1       4.281  29.114  55.604  1.00  0.00     0.150 C 
BRANCH  26  27
HETATM   27  C   UNL     1       4.728  28.469  54.350  1.00  0.00    -0.016 A 
HETATM   28  C   UNL     1       5.530  27.325  54.394  1.00  0.00     0.023 A 
HETATM   29  C   UNL     1       5.983  26.682  53.227  1.00  0.00    -0.016 A 
HETATM   30  C   UNL     1       5.591  27.277  51.998  1.00  0.00     0.079 A 
HETATM   31  C   UNL     1       4.777  28.447  51.918  1.00  0.00    -0.016 A 
HETATM   32  C   UNL     1       4.350  29.020  53.129  1.00  0.00     0.023 A 
BRANCH  29  33
HETATM   33  C   UNL     1       6.854  25.404  53.358  1.00  0.00    -0.021 C 
HETATM   34  C   UNL     1       8.110  25.401  52.436  1.00  0.00     0.019 C 
HETATM   35  C   UNL     1       7.414  25.262  54.791  1.00  0.00     0.019 C 
HETATM   36  C   UNL     1       6.048  24.150  52.944  1.00  0.00     0.019 C 
ENDBRANCH  29  33
BRANCH  30  37
HETATM   37  O   UNL     1       5.976  26.755  50.794  1.00  0.00    -0.360 OA
HETATM   38  H   UNL     1       5.661  27.289  50.057  1.00  0.00     0.217 HD
ENDBRANCH  30  37
BRANCH  31  39
HETATM   39  C   UNL     1       4.381  29.092  50.560  1.00  0.00    -0.021 C 
HETATM   40  C   UNL     1       3.424  30.286  50.776  1.00  0.00     0.019 C 
HETATM   41  C   UNL     1       5.589  29.655  49.764  1.00  0.00     0.019 C 
HETATM   42  C   UNL     1       3.721  28.041  49.638  1.00  0.00     0.019 C 
ENDBRANCH  31  39
ENDBRANCH  26  27
ENDBRANCH   2  25
TORSDOF 12
ENDMDL
MODEL 7
REMARK VINA RESULT:      -7.8      6.378     10.051
REMARK  12 active torsions:
REMARK  status: ('A' for Active; 'I' for Inactive)
REMARK    1  A    between atoms: C_2  and  N_3 
REMARK    2  A    between atoms: N_3  and  C_5 
REMARK    3  A    between atoms: N_3  and  C_37 
REMARK    4  A    between atoms: C_5  and  C_6 
REMARK    5  A    between atoms: N_7  and  C_8 
REMARK    6  A    between atoms: C_12  and  N_13 
REMARK    7  A    between atoms: C_16  and  C_17 
REMARK       I    between atoms: C_17  and  N_18 
REMARK    8  A    between atoms: N_18  and  N_19 
REMARK    9  A    between atoms: C_20  and  C_21 
REMARK   10  A    between atoms: C_23  and  C_24 
REMARK   11  A    between atoms: C_28  and  O_29 
REMARK   12  A    between atoms: C_30  and  C_31 
ROOT
HETATM    1  C   UNL     1       4.412  28.034  50.271  1.00  0.00     0.293 C 
HETATM    2  N   UNL     1       5.426  27.099  50.352  1.00  0.00    -0.242 N 
HETATM    3  O   UNL     1       3.821  28.536  51.225  1.00  0.00    -0.264 OA
HETATM    4  H   UNL     1       5.869  26.734  49.513  1.00  0.00     0.192 HD
ENDROOT
BRANCH   1   5
HETATM    5  C   UNL     1       4.044  28.410  48.914  1.00  0.00     0.170 A 
HETATM    6  C   UNL     1       3.927  29.703  48.421  1.00  0.00     0.096 A 
HETATM    7  N   UNL     1       3.456  29.536  47.123  1.00  0.00    -0.215 N 
HETATM    8  N   UNL     1       3.426  28.206  46.839  1.00  0.00     0.012 NA
HETATM    9  N   UNL     1       3.750  27.521  47.924  1.00  0.00    -0.152 NA
BRANCH   6  10
HETATM   10  C   UNL     1       4.308  30.993  49.048  1.00  0.00     0.296 C 
BRANCH  10  11
HETATM   11  N   UNL     1       3.419  31.488  50.175  1.00  0.00    -0.066 N 
HETATM   12  H   UNL     1       3.270  30.682  50.802  1.00  0.00     0.280 HD
BRANCH  11  13
HETATM   13  C   UNL     1       2.055  31.913  49.646  1.00  0.00     0.231 C 
HETATM   14  C   UNL     1       0.966  30.948  50.075  1.00  0.00     0.034 C 
ENDBRANCH  11  13
BRANCH  11  15
HETATM   15  C   UNL     1       4.068  32.606  50.980  1.00  0.00     0.231 C 
HETATM   16  C   UNL     1       4.113  32.257  52.459  1.00  0.00     0.034 C 
ENDBRANCH  11  15
ENDBRANCH  10  11
ENDBRANCH   6  10
BRANCH   7  17
HETATM   17  C   UNL     1       3.008  30.522  46.214  1.00  0.00     0.225 A 
HETATM   18  N   UNL     1       1.698  30.746  46.068  1.00  0.00    -0.081 NA
HETATM   19  O   UNL     1       1.643  31.747  45.093  1.00  0.00    -0.103 OA
HETATM   20  N   UNL     1       2.912  32.086  44.650  1.00  0.00    -0.083 NA
HETATM   21  C   UNL     1       3.759  31.326  45.342  1.00  0.00     0.201 A 
BRANCH  21  22
HETATM   22  N   UNL     1       5.094  31.354  45.207  1.00  0.00    -0.379 N 
HETATM   23  H   UNL     1       5.527  31.064  44.333  1.00  0.00     0.158 HD
HETATM   24  H   UNL     1       5.742  31.472  45.983  1.00  0.00     0.158 HD
ENDBRANCH  21  22
ENDBRANCH   7  17
ENDBRANCH   1   5
BRANCH   2  25
HETATM   25  N   UNL     1       5.830  26.683  51.581  1.00  0.00    -0.184 NA
HETATM   26  C   UNL     1       5.997  25.409  51.743  1.00  0.00     0.150 C 
BRANCH  26  27
HETATM   27  C   UNL     1       6.442  24.866  53.045  1.00  0.00    -0.016 A 
HETATM   28  C   UNL     1       7.058  23.612  53.110  1.00  0.00     0.023 A 
HETATM   29  C   UNL     1       7.492  23.054  54.328  1.00  0.00    -0.016 A 
HETATM   30  C   UNL     1       7.248  23.833  55.490  1.00  0.00     0.079 A 
HETATM   31  C   UNL     1       6.618  25.114  55.458  1.00  0.00    -0.016 A 
HETATM   32  C   UNL     1       6.231  25.610  54.202  1.00  0.00     0.023 A 
BRANCH  29  33
HETATM   33  C   UNL     1       8.185  21.665  54.317  1.00  0.00    -0.021 C 
HETATM   34  C   UNL     1       7.651  20.686  55.405  1.00  0.00     0.019 C 
HETATM   35  C   UNL     1       7.943  20.938  52.975  1.00  0.00     0.019 C 
HETATM   36  C   UNL     1       9.696  21.809  54.613  1.00  0.00     0.019 C 
ENDBRANCH  29  33
BRANCH  30  37
HETATM   37  O   UNL     1       7.611  23.396  56.735  1.00  0.00    -0.360 OA
HETATM   38  H   UNL     1       8.326  22.753  56.692  1.00  0.00     0.217 HD
ENDBRANCH  30  37
BRANCH  31  39
HETATM   39  C   UNL     1       6.343  25.936  56.748  1.00  0.00    -0.021 C 
HETATM   40  C   UNL     1       5.083  25.415  57.475  1.00  0.00     0.019 C 
HETATM   41  C   UNL     1       7.493  25.863  57.789  1.00  0.00     0.019 C 
HETATM   42  C   UNL     1       6.179  27.435  56.406  1.00  0.00     0.019 C 
ENDBRANCH  31  39
ENDBRANCH  26  27
ENDBRANCH   2  25
TORSDOF 12
ENDMDL
MODEL 8
REMARK VINA RESULT:      -7.8      6.379     10.127
REMARK  12 active torsions:
REMARK  status: ('A' for Active; 'I' for Inactive)
REMARK    1  A    between atoms: C_2  and  N_3 
REMARK    2  A    between atoms: N_3  and  C_5 
REMARK    3  A    between atoms: N_3  and  C_37 
REMARK    4  A    between atoms: C_5  and  C_6 
REMARK    5  A    between atoms: N_7  and  C_8 
REMARK    6  A    between atoms: C_12  and  N_13 
REMARK    7  A    between atoms: C_16  and  C_17 
REMARK       I    between atoms: C_17  and  N_18 
REMARK    8  A    between atoms: N_18  and  N_19 
REMARK    9  A    between atoms: C_20  and  C_21 
REMARK   10  A    between atoms: C_23  and  C_24 
REMARK   11  A    between atoms: C_28  and  O_29 
REMARK   12  A    between atoms: C_30  and  C_31 
ROOT
HETATM    1  C   UNL     1       4.468  27.873  50.342  1.00  0.00     0.293 C 
HETATM    2  N   UNL     1       5.555  27.028  50.449  1.00  0.00    -0.242 N 
HETATM    3  O   UNL     1       3.771  28.268  51.274  1.00  0.00    -0.264 OA
HETATM    4  H   UNL     1       6.085  26.750  49.627  1.00  0.00     0.192 HD
ENDROOT
BRANCH   1   5
HETATM    5  C   UNL     1       4.158  28.290  48.981  1.00  0.00     0.170 A 
HETATM    6  C   UNL     1       3.949  29.591  48.547  1.00  0.00     0.096 A 
HETATM    7  N   UNL     1       3.586  29.455  47.211  1.00  0.00    -0.215 N 
HETATM    8  N   UNL     1       3.707  28.147  46.859  1.00  0.00     0.012 NA
HETATM    9  N   UNL     1       4.022  27.434  47.929  1.00  0.00    -0.152 NA
BRANCH   6  10
HETATM   10  C   UNL     1       4.156  30.874  49.264  1.00  0.00     0.296 C 
BRANCH  10  11
HETATM   11  N   UNL     1       3.166  31.202  50.368  1.00  0.00    -0.066 N 
HETATM   12  H   UNL     1       2.961  30.312  50.847  1.00  0.00     0.280 HD
BRANCH  11  13
HETATM   13  C   UNL     1       1.856  31.720  49.787  1.00  0.00     0.231 C 
HETATM   14  C   UNL     1       0.751  30.687  49.899  1.00  0.00     0.034 C 
ENDBRANCH  11  13
BRANCH  11  15
HETATM   15  C   UNL     1       3.736  32.176  51.390  1.00  0.00     0.231 C 
HETATM   16  C   UNL     1       3.603  31.624  52.801  1.00  0.00     0.034 C 
ENDBRANCH  11  15
ENDBRANCH  10  11
ENDBRANCH   6  10
BRANCH   7  17
HETATM   17  C   UNL     1       3.107  30.445  46.322  1.00  0.00     0.225 A 
HETATM   18  N   UNL     1       1.790  30.637  46.188  1.00  0.00    -0.081 NA
HETATM   19  O   UNL     1       1.703  31.653  45.231  1.00  0.00    -0.103 OA
HETATM   20  N   UNL     1       2.960  32.033  44.786  1.00  0.00    -0.083 NA
HETATM   21  C   UNL     1       3.831  31.284  45.459  1.00  0.00     0.201 A 
BRANCH  21  22
HETATM   22  N   UNL     1       5.163  31.349  45.317  1.00  0.00    -0.379 N 
HETATM   23  H   UNL     1       5.598  31.085  44.436  1.00  0.00     0.158 HD
HETATM   24  H   UNL     1       5.813  31.470  46.091  1.00  0.00     0.158 HD
ENDBRANCH  21  22
ENDBRANCH   7  17
ENDBRANCH   1   5
BRANCH   2  25
HETATM   25  N   UNL     1       5.912  26.581  51.682  1.00  0.00    -0.184 NA
HETATM   26  C   UNL     1       6.265  25.339  51.776  1.00  0.00     0.150 C 
BRANCH  26  27
HETATM   27  C   UNL     1       6.677  24.768  53.078  1.00  0.00    -0.016 A 
HETATM   28  C   UNL     1       6.535  25.516  54.250  1.00  0.00     0.023 A 
HETATM   29  C   UNL     1       6.919  25.016  55.509  1.00  0.00    -0.016 A 
HETATM   30  C   UNL     1       7.477  23.710  55.514  1.00  0.00     0.079 A 
HETATM   31  C   UNL     1       7.639  22.921  54.334  1.00  0.00    -0.016 A 
HETATM   32  C   UNL     1       7.215  23.486  53.119  1.00  0.00     0.023 A 
BRANCH  29  33
HETATM   33  C   UNL     1       6.713  25.900  56.768  1.00  0.00    -0.021 C 
HETATM   34  C   UNL     1       7.826  25.731  57.845  1.00  0.00     0.019 C 
HETATM   35  C   UNL     1       6.742  27.400  56.400  1.00  0.00     0.019 C 
HETATM   36  C   UNL     1       5.397  25.524  57.488  1.00  0.00     0.019 C 
ENDBRANCH  29  33
BRANCH  30  37
HETATM   37  O   UNL     1       7.900  23.115  56.671  1.00  0.00    -0.360 OA
HETATM   38  H   UNL     1       7.459  23.485  57.443  1.00  0.00     0.217 HD
ENDBRANCH  30  37
BRANCH  31  39
HETATM   39  C   UNL     1       8.273  21.503  54.364  1.00  0.00    -0.021 C 
HETATM   40  C   UNL     1       9.775  21.579  54.720  1.00  0.00     0.019 C 
HETATM   41  C   UNL     1       7.635  20.559  55.419  1.00  0.00     0.019 C 
HETATM   42  C   UNL     1       8.084  20.800  53.000  1.00  0.00     0.019 C 
ENDBRANCH  31  39
ENDBRANCH  26  27
ENDBRANCH   2  25
TORSDOF 12
ENDMDL
MODEL 9
REMARK VINA RESULT:      -7.7      2.543      3.929
REMARK  12 active torsions:
REMARK  status: ('A' for Active; 'I' for Inactive)
REMARK    1  A    between atoms: C_2  and  N_3 
REMARK    2  A    between atoms: N_3  and  C_5 
REMARK    3  A    between atoms: N_3  and  C_37 
REMARK    4  A    between atoms: C_5  and  C_6 
REMARK    5  A    between atoms: N_7  and  C_8 
REMARK    6  A    between atoms: C_12  and  N_13 
REMARK    7  A    between atoms: C_16  and  C_17 
REMARK       I    between atoms: C_17  and  N_18 
REMARK    8  A    between atoms: N_18  and  N_19 
REMARK    9  A    between atoms: C_20  and  C_21 
REMARK   10  A    between atoms: C_23  and  C_24 
REMARK   11  A    between atoms: C_28  and  O_29 
REMARK   12  A    between atoms: C_30  and  C_31 
ROOT
HETATM    1  C   UNL     1       3.443  31.966  59.886  1.00  0.00     0.293 C 
HETATM    2  N   UNL     1       4.258  32.315  58.827  1.00  0.00    -0.242 N 
HETATM    3  O   UNL     1       2.731  30.966  59.944  1.00  0.00    -0.264 OA
HETATM    4  H   UNL     1       4.822  33.160  58.857  1.00  0.00     0.192 HD
ENDROOT
BRANCH   1   5
HETATM    5  C   UNL     1       3.457  32.909  60.995  1.00  0.00     0.170 A 
HETATM    6  C   UNL     1       4.320  32.886  62.083  1.00  0.00     0.096 A 
HETATM    7  N   UNL     1       3.867  33.914  62.903  1.00  0.00    -0.215 N 
HETATM    8  N   UNL     1       2.872  34.580  62.257  1.00  0.00     0.012 NA
HETATM    9  N   UNL     1       2.600  33.961  61.120  1.00  0.00    -0.152 NA
BRANCH   6  10
HETATM   10  C   UNL     1       5.527  32.056  62.317  1.00  0.00     0.296 C 
BRANCH  10  11
HETATM   11  N   UNL     1       6.864  32.698  61.996  1.00  0.00    -0.066 N 
HETATM   12  H   UNL     1       6.707  33.718  62.007  1.00  0.00     0.280 HD
BRANCH  11  13
HETATM   13  C   UNL     1       7.326  32.323  60.593  1.00  0.00     0.231 C 
HETATM   14  C   UNL     1       8.838  32.371  60.473  1.00  0.00     0.034 C 
ENDBRANCH  11  13
BRANCH  11  15
HETATM   15  C   UNL     1       7.932  32.369  63.031  1.00  0.00     0.231 C 
HETATM   16  C   UNL     1       7.785  33.245  64.264  1.00  0.00     0.034 C 
ENDBRANCH  11  15
ENDBRANCH  10  11
ENDBRANCH   6  10
BRANCH   7  17
HETATM   17  C   UNL     1       4.277  34.239  64.217  1.00  0.00     0.225 A 
HETATM   18  N   UNL     1       4.353  33.280  65.146  1.00  0.00    -0.081 NA
HETATM   19  O   UNL     1       4.759  33.967  66.294  1.00  0.00    -0.103 OA
HETATM   20  N   UNL     1       4.891  35.325  66.047  1.00  0.00    -0.083 NA
HETATM   21  C   UNL     1       4.590  35.496  64.761  1.00  0.00     0.201 A 
BRANCH  21  22
HETATM   22  N   UNL     1       4.599  36.677  64.125  1.00  0.00    -0.379 N 
HETATM   23  H   UNL     1       3.766  37.260  64.114  1.00  0.00     0.158 HD
HETATM   24  H   UNL     1       5.332  36.971  63.481  1.00  0.00     0.158 HD
ENDBRANCH  21  22
ENDBRANCH   7  17
ENDBRANCH   1   5
BRANCH   2  25
HETATM   25  N   UNL     1       4.301  31.497  57.742  1.00  0.00    -0.184 NA
HETATM   26  C   UNL     1       5.147  30.517  57.780  1.00  0.00     0.150 C 
BRANCH  26  27
HETATM   27  C   UNL     1       5.258  29.571  56.648  1.00  0.00    -0.016 A 
HETATM   28  C   UNL     1       5.875  28.329  56.827  1.00  0.00     0.023 A 
HETATM   29  C   UNL     1       6.009  27.402  55.777  1.00  0.00    -0.016 A 
HETATM   30  C   UNL     1       5.495  27.811  54.517  1.00  0.00     0.079 A 
HETATM   31  C   UNL     1       4.863  29.073  54.300  1.00  0.00    -0.016 A 
HETATM   32  C   UNL     1       4.753  29.936  55.404  1.00  0.00     0.023 A 
BRANCH  29  33
HETATM   33  C   UNL     1       6.689  26.035  56.058  1.00  0.00    -0.021 C 
HETATM   34  C   UNL     1       7.578  25.521  54.887  1.00  0.00     0.019 C 
HETATM   35  C   UNL     1       7.645  26.133  57.268  1.00  0.00     0.019 C 
HETATM   36  C   UNL     1       5.626  24.931  56.270  1.00  0.00     0.019 C 
ENDBRANCH  29  33
BRANCH  30  37
HETATM   37  O   UNL     1       5.574  27.005  53.415  1.00  0.00    -0.360 OA
HETATM   38  H   UNL     1       6.197  26.283  53.546  1.00  0.00     0.217 HD
ENDBRANCH  30  37
BRANCH  31  39
HETATM   39  C   UNL     1       4.329  29.505  52.907  1.00  0.00    -0.021 C 
HETATM   40  C   UNL     1       3.951  31.004  52.903  1.00  0.00     0.019 C 
HETATM   41  C   UNL     1       5.362  29.326  51.762  1.00  0.00     0.019 C 
HETATM   42  C   UNL     1       3.106  28.647  52.509  1.00  0.00     0.019 C 
ENDBRANCH  31  39
ENDBRANCH  26  27
ENDBRANCH   2  25
TORSDOF 12
ENDMDL
MODEL 10
REMARK VINA RESULT:      -7.6      3.068     10.887
REMARK  12 active torsions:
REMARK  status: ('A' for Active; 'I' for Inactive)
REMARK    1  A    between atoms: C_2  and  N_3 
REMARK    2  A    between atoms: N_3  and  C_5 
REMARK    3  A    between atoms: N_3  and  C_37 
REMARK    4  A    between atoms: C_5  and  C_6 
REMARK    5  A    between atoms: N_7  and  C_8 
REMARK    6  A    between atoms: C_12  and  N_13 
REMARK    7  A    between atoms: C_16  and  C_17 
REMARK       I    between atoms: C_17  and  N_18 
REMARK    8  A    between atoms: N_18  and  N_19 
REMARK    9  A    between atoms: C_20  and  C_21 
REMARK   10  A    between atoms: C_23  and  C_24 
REMARK   11  A    between atoms: C_28  and  O_29 
REMARK   12  A    between atoms: C_30  and  C_31 
ROOT
HETATM    1  C   UNL     1       5.616  31.709  58.335  1.00  0.00     0.293 C 
HETATM    2  N   UNL     1       5.576  31.609  59.712  1.00  0.00    -0.242 N 
HETATM    3  O   UNL     1       5.824  32.737  57.696  1.00  0.00    -0.264 OA
HETATM    4  H   UNL     1       5.402  30.718  60.168  1.00  0.00     0.192 HD
ENDROOT
BRANCH   1   5
HETATM    5  C   UNL     1       5.370  30.458  57.632  1.00  0.00     0.170 A 
HETATM    6  C   UNL     1       6.267  29.408  57.482  1.00  0.00     0.096 A 
HETATM    7  N   UNL     1       5.606  28.506  56.655  1.00  0.00    -0.215 N 
HETATM    8  N   UNL     1       4.340  28.956  56.444  1.00  0.00     0.012 NA
HETATM    9  N   UNL     1       4.201  30.147  57.005  1.00  0.00    -0.152 NA
BRANCH   6  10
HETATM   10  C   UNL     1       7.589  29.193  58.121  1.00  0.00     0.296 C 
BRANCH  10  11
HETATM   11  N   UNL     1       8.739  30.035  57.600  1.00  0.00    -0.066 N 
HETATM   12  H   UNL     1       8.350  30.624  56.847  1.00  0.00     0.280 HD
BRANCH  11  13
HETATM   13  C   UNL     1       9.819  29.156  56.979  1.00  0.00     0.231 C 
HETATM   14  C   UNL     1      11.195  29.775  57.133  1.00  0.00     0.034 C 
ENDBRANCH  11  13
BRANCH  11  15
HETATM   15  C   UNL     1       9.323  30.949  58.668  1.00  0.00     0.231 C 
HETATM   16  C   UNL     1       8.907  30.497  60.059  1.00  0.00     0.034 C 
ENDBRANCH  11  15
ENDBRANCH  10  11
ENDBRANCH   6  10
BRANCH   7  17
HETATM   17  C   UNL     1       6.112  27.333  56.048  1.00  0.00     0.225 A 
HETATM   18  N   UNL     1       7.105  27.420  55.159  1.00  0.00    -0.081 NA
HETATM   19  O   UNL     1       7.314  26.093  54.770  1.00  0.00    -0.103 OA
HETATM   20  N   UNL     1       6.428  25.237  55.406  1.00  0.00    -0.083 NA
HETATM   21  C   UNL     1       5.680  26.005  56.197  1.00  0.00     0.201 A 
BRANCH  21  22
HETATM   22  N   UNL     1       4.696  25.553  56.989  1.00  0.00    -0.379 N 
HETATM   23  H   UNL     1       4.686  25.788  57.979  1.00  0.00     0.158 HD
HETATM   24  H   UNL     1       4.037  24.825  56.719  1.00  0.00     0.158 HD
ENDBRANCH  21  22
ENDBRANCH   7  17
ENDBRANCH   1   5
BRANCH   2  25
HETATM   25  N   UNL     1       5.786  32.730  60.451  1.00  0.00    -0.184 NA
HETATM   26  C   UNL     1       4.893  33.022  61.343  1.00  0.00     0.150 C 
BRANCH  26  27
HETATM   27  C   UNL     1       5.043  34.219  62.198  1.00  0.00    -0.016 A 
HETATM   28  C   UNL     1       5.044  34.093  63.591  1.00  0.00     0.023 A 
HETATM   29  C   UNL     1       5.177  35.205  64.443  1.00  0.00    -0.016 A 
HETATM   30  C   UNL     1       5.291  36.468  63.803  1.00  0.00     0.079 A 
HETATM   31  C   UNL     1       5.288  36.632  62.385  1.00  0.00    -0.016 A 
HETATM   32  C   UNL     1       5.170  35.470  61.602  1.00  0.00     0.023 A 
BRANCH  29  33
HETATM   33  C   UNL     1       5.190  34.982  65.979  1.00  0.00    -0.021 C 
HETATM   34  C   UNL     1       4.173  33.909  66.468  1.00  0.00     0.019 C 
HETATM   35  C   UNL     1       6.569  34.467  66.451  1.00  0.00     0.019 C 
HETATM   36  C   UNL     1       4.793  36.280  66.721  1.00  0.00     0.019 C 
ENDBRANCH  29  33
BRANCH  30  37
HETATM   37  O   UNL     1       5.414  37.627  64.520  1.00  0.00    -0.360 OA
HETATM   38  H   UNL     1       4.795  37.656  65.258  1.00  0.00     0.217 HD
ENDBRANCH  30  37
BRANCH  31  39
HETATM   39  C   UNL     1       5.392  38.028  61.710  1.00  0.00    -0.021 C 
HETATM   40  C   UNL     1       4.923  37.964  60.239  1.00  0.00     0.019 C 
HETATM   41  C   UNL     1       4.513  39.113  62.388  1.00  0.00     0.019 C 
HETATM   42  C   UNL     1       6.843  38.555  61.783  1.00  0.00     0.019 C 
ENDBRANCH  31  39
ENDBRANCH  26  27
ENDBRANCH   2  25
TORSDOF 12
ENDMDL
