MODEL 1
REMARK VINA RESULT:      -9.4      0.000      0.000
REMARK  5 active torsions:
REMARK  status: ('A' for Active; 'I' for Inactive)
REMARK    1  A    between atoms: C_3  and  O_4 
REMARK    2  A    between atoms: O_4  and  C_5 
REMARK    3  A    between atoms: C_5  and  C_6 
REMARK       I    between atoms: C_6  and  N_7 
REMARK    4  A    between atoms: N_7  and  C_8 
REMARK    5  A    between atoms: C_14  and  C_15 
ROOT
HETATM    1  C   UNL     1       8.056  24.439  56.493  1.00  0.00     0.137 A 
HETATM    2  N   UNL     1       8.534  23.494  57.365  1.00  0.00    -0.262 N 
HETATM    3  H   UNL     1       8.927  23.669  58.288  1.00  0.00     0.191 HD
HETATM    4  N   UNL     1       8.459  22.235  56.901  1.00  0.00    -0.177 NA
HETATM    5  C   UNL     1       7.898  22.372  55.693  1.00  0.00     0.065 A 
HETATM    6  C   UNL     1       7.626  21.170  54.866  1.00  0.00     0.073 C 
HETATM    7  C   UNL     1       7.630  23.736  55.383  1.00  0.00     0.046 A 
ENDROOT
BRANCH   1   8
HETATM    8  N   UNL     1       8.048  25.798  56.764  1.00  0.00    -0.309 N 
HETATM    9  C   UNL     1       6.911  26.442  57.240  1.00  0.00     0.247 C 
HETATM   10  O   UNL     1       5.861  25.858  57.507  1.00  0.00    -0.271 OA
HETATM   11  H   UNL     1       8.898  26.318  56.582  1.00  0.00     0.170 HD
BRANCH   9  12
HETATM   12  C   UNL     1       7.100  27.953  57.394  1.00  0.00     0.278 C 
BRANCH  12  13
HETATM   13  O   UNL     1       8.465  28.233  57.669  1.00  0.00    -0.342 OA
BRANCH  13  14
HETATM   14  C   UNL     1       8.764  29.454  58.208  1.00  0.00     0.075 A 
HETATM   15  C   UNL     1       9.941  30.058  57.731  1.00  0.00    -0.029 A 
HETATM   16  C   UNL     1      10.791  29.373  56.695  1.00  0.00     0.051 C 
HETATM   17  C   UNL     1      10.316  31.320  58.215  1.00  0.00     0.009 A 
HETATM   18  C   UNL     1       9.532  31.973  59.166  1.00  0.00     0.001 A 
HETATM   19  C   UNL     1       8.365  31.377  59.631  1.00  0.00     0.003 A 
HETATM   20  C   UNL     1       7.978  30.122  59.152  1.00  0.00     0.037 A 
ENDBRANCH  13  14
ENDBRANCH  12  13
ENDBRANCH   9  12
ENDBRANCH   1   8
BRANCH   7  21
HETATM   21  C   UNL     1       7.046  24.325  54.195  1.00  0.00    -0.020 A 
HETATM   22  C   UNL     1       7.832  24.574  53.062  1.00  0.00     0.014 A 
HETATM   23  C   UNL     1       7.265  25.155  51.925  1.00  0.00     0.020 A 
HETATM   24  C   UNL     1       5.912  25.493  51.923  1.00  0.00     0.011 A 
HETATM   25 BR   UNL     1       5.146  26.286  50.388  1.00  0.00    -0.051 Br
HETATM   26  C   UNL     1       5.122  25.256  53.046  1.00  0.00     0.020 A 
HETATM   27  C   UNL     1       5.689  24.673  54.182  1.00  0.00     0.014 A 
ENDBRANCH   7  21
TORSDOF 5
ENDMDL
MODEL 2
REMARK VINA RESULT:      -9.4      2.535      3.266
REMARK  5 active torsions:
REMARK  status: ('A' for Active; 'I' for Inactive)
REMARK    1  A    between atoms: C_3  and  O_4 
REMARK    2  A    between atoms: O_4  and  C_5 
REMARK    3  A    between atoms: C_5  and  C_6 
REMARK       I    between atoms: C_6  and  N_7 
REMARK    4  A    between atoms: N_7  and  C_8 
REMARK    5  A    between atoms: C_14  and  C_15 
ROOT
HETATM    1  C   UNL     1       8.253  23.546  56.053  1.00  0.00     0.137 A 
HETATM    2  N   UNL     1       8.744  22.422  56.669  1.00  0.00    -0.262 N 
HETATM    3  H   UNL     1       9.167  22.378  57.594  1.00  0.00     0.191 HD
HETATM    4  N   UNL     1       8.638  21.304  55.931  1.00  0.00    -0.177 NA
HETATM    5  C   UNL     1       8.043  21.719  54.805  1.00  0.00     0.065 A 
HETATM    6  C   UNL     1       7.729  20.740  53.734  1.00  0.00     0.073 C 
HETATM    7  C   UNL     1       7.784  23.119  54.826  1.00  0.00     0.046 A 
ENDROOT
BRANCH   1   8
HETATM    8  N   UNL     1       8.273  24.806  56.629  1.00  0.00    -0.309 N 
HETATM    9  C   UNL     1       7.135  25.365  57.202  1.00  0.00     0.247 C 
HETATM   10  O   UNL     1       6.059  24.775  57.292  1.00  0.00    -0.271 OA
HETATM   11  H   UNL     1       9.144  25.322  56.600  1.00  0.00     0.170 HD
BRANCH   9  12
HETATM   12  C   UNL     1       7.360  26.792  57.706  1.00  0.00     0.278 C 
BRANCH  12  13
HETATM   13  O   UNL     1       7.510  27.667  56.597  1.00  0.00    -0.342 OA
BRANCH  13  14
HETATM   14  C   UNL     1       6.374  28.070  55.950  1.00  0.00     0.075 A 
HETATM   15  C   UNL     1       6.501  28.270  54.564  1.00  0.00    -0.029 A 
HETATM   16  C   UNL     1       7.818  28.045  53.872  1.00  0.00     0.051 C 
HETATM   17  C   UNL     1       5.381  28.666  53.818  1.00  0.00     0.009 A 
HETATM   18  C   UNL     1       4.150  28.865  54.441  1.00  0.00     0.001 A 
HETATM   19  C   UNL     1       4.026  28.660  55.812  1.00  0.00     0.003 A 
HETATM   20  C   UNL     1       5.133  28.260  56.566  1.00  0.00     0.037 A 
ENDBRANCH  13  14
ENDBRANCH  12  13
ENDBRANCH   9  12
ENDBRANCH   1   8
BRANCH   7  21
HETATM   21  C   UNL     1       7.173  23.970  53.825  1.00  0.00    -0.020 A 
HETATM   22  C   UNL     1       5.834  24.365  53.945  1.00  0.00     0.014 A 
HETATM   23  C   UNL     1       5.249  25.175  52.968  1.00  0.00     0.020 A 
HETATM   24  C   UNL     1       6.000  25.583  51.867  1.00  0.00     0.011 A 
HETATM   25 BR   UNL     1       5.206  26.672  50.542  1.00  0.00    -0.051 Br
HETATM   26  C   UNL     1       7.331  25.191  51.734  1.00  0.00     0.020 A 
HETATM   27  C   UNL     1       7.917  24.384  52.712  1.00  0.00     0.014 A 
ENDBRANCH   7  21
TORSDOF 5
ENDMDL
MODEL 3
REMARK VINA RESULT:      -9.4      0.527      1.501
REMARK  5 active torsions:
REMARK  status: ('A' for Active; 'I' for Inactive)
REMARK    1  A    between atoms: C_3  and  O_4 
REMARK    2  A    between atoms: O_4  and  C_5 
REMARK    3  A    between atoms: C_5  and  C_6 
REMARK       I    between atoms: C_6  and  N_7 
REMARK    4  A    between atoms: N_7  and  C_8 
REMARK    5  A    between atoms: C_14  and  C_15 
ROOT
HETATM    1  C   UNL     1       7.892  24.601  56.441  1.00  0.00     0.137 A 
HETATM    2  N   UNL     1       8.399  23.689  57.332  1.00  0.00    -0.262 N 
HETATM    3  H   UNL     1       8.756  23.891  58.264  1.00  0.00     0.191 HD
HETATM    4  N   UNL     1       8.409  22.425  56.874  1.00  0.00    -0.177 NA
HETATM    5  C   UNL     1       7.875  22.525  55.649  1.00  0.00     0.065 A 
HETATM    6  C   UNL     1       7.695  21.305  54.823  1.00  0.00     0.073 C 
HETATM    7  C   UNL     1       7.538  23.870  55.324  1.00  0.00     0.046 A 
ENDROOT
BRANCH   1   8
HETATM    8  N   UNL     1       7.800  25.959  56.702  1.00  0.00    -0.309 N 
HETATM    9  C   UNL     1       6.618  26.537  57.154  1.00  0.00     0.247 C 
HETATM   10  O   UNL     1       5.599  25.894  57.405  1.00  0.00    -0.271 OA
HETATM   11  H   UNL     1       8.621  26.527  56.533  1.00  0.00     0.170 HD
BRANCH   9  12
HETATM   12  C   UNL     1       6.715  28.057  57.302  1.00  0.00     0.278 C 
BRANCH  12  13
HETATM   13  O   UNL     1       7.662  28.374  58.312  1.00  0.00    -0.342 OA
BRANCH  13  14
HETATM   14  C   UNL     1       8.726  29.157  57.959  1.00  0.00     0.075 A 
HETATM   15  C   UNL     1       8.891  30.335  58.710  1.00  0.00    -0.029 A 
HETATM   16  C   UNL     1       7.938  30.677  59.823  1.00  0.00     0.051 C 
HETATM   17  C   UNL     1       9.968  31.189  58.428  1.00  0.00     0.009 A 
HETATM   18  C   UNL     1      10.867  30.879  57.409  1.00  0.00     0.001 A 
HETATM   19  C   UNL     1      10.705  29.710  56.671  1.00  0.00     0.003 A 
HETATM   20  C   UNL     1       9.639  28.848  56.947  1.00  0.00     0.037 A 
ENDBRANCH  13  14
ENDBRANCH  12  13
ENDBRANCH   9  12
ENDBRANCH   1   8
BRANCH   7  21
HETATM   21  C   UNL     1       6.955  24.419  54.117  1.00  0.00    -0.020 A 
HETATM   22  C   UNL     1       7.756  24.706  53.004  1.00  0.00     0.014 A 
HETATM   23  C   UNL     1       7.188  25.248  51.848  1.00  0.00     0.020 A 
HETATM   24  C   UNL     1       5.819  25.509  51.808  1.00  0.00     0.011 A 
HETATM   25 BR   UNL     1       5.051  26.250  50.248  1.00  0.00    -0.051 Br
HETATM   26  C   UNL     1       5.013  25.233  52.911  1.00  0.00     0.020 A 
HETATM   27  C   UNL     1       5.581  24.689  54.065  1.00  0.00     0.014 A 
ENDBRANCH   7  21
TORSDOF 5
ENDMDL
MODEL 4
REMARK VINA RESULT:      -8.8      3.584      7.626
REMARK  5 active torsions:
REMARK  status: ('A' for Active; 'I' for Inactive)
REMARK    1  A    between atoms: C_3  and  O_4 
REMARK    2  A    between atoms: O_4  and  C_5 
REMARK    3  A    between atoms: C_5  and  C_6 
REMARK       I    between atoms: C_6  and  N_7 
REMARK    4  A    between atoms: N_7  and  C_8 
REMARK    5  A    between atoms: C_14  and  C_15 
ROOT
HETATM    1  C   UNL     1       5.460  26.724  53.926  1.00  0.00     0.137 A 
HETATM    2  N   UNL     1       4.271  26.664  53.241  1.00  0.00    -0.262 N 
HETATM    3  H   UNL     1       3.942  25.886  52.674  1.00  0.00     0.191 HD
HETATM    4  N   UNL     1       3.516  27.769  53.361  1.00  0.00    -0.177 NA
HETATM    5  C   UNL     1       4.236  28.564  54.163  1.00  0.00     0.065 A 
HETATM    6  C   UNL     1       3.704  29.894  54.554  1.00  0.00     0.073 C 
HETATM    7  C   UNL     1       5.469  27.960  54.543  1.00  0.00     0.046 A 
ENDROOT
BRANCH   1   8
HETATM    8  N   UNL     1       6.394  25.701  53.930  1.00  0.00    -0.309 N 
HETATM    9  C   UNL     1       7.026  25.285  52.763  1.00  0.00     0.247 C 
HETATM   10  O   UNL     1       6.851  25.818  51.667  1.00  0.00    -0.271 OA
HETATM   11  H   UNL     1       6.590  25.247  54.814  1.00  0.00     0.170 HD
BRANCH   9  12
HETATM   12  C   UNL     1       7.959  24.092  52.982  1.00  0.00     0.278 C 
BRANCH  12  13
HETATM   13  O   UNL     1       7.202  22.974  53.425  1.00  0.00    -0.342 OA
BRANCH  13  14
HETATM   14  C   UNL     1       7.685  22.265  54.490  1.00  0.00     0.075 A 
HETATM   15  C   UNL     1       8.148  20.970  54.200  1.00  0.00    -0.029 A 
HETATM   16  C   UNL     1       8.100  20.433  52.795  1.00  0.00     0.051 C 
HETATM   17  C   UNL     1       8.678  20.178  55.229  1.00  0.00     0.009 A 
HETATM   18  C   UNL     1       8.742  20.666  56.534  1.00  0.00     0.001 A 
HETATM   19  C   UNL     1       8.289  21.950  56.818  1.00  0.00     0.003 A 
HETATM   20  C   UNL     1       7.765  22.751  55.799  1.00  0.00     0.037 A 
ENDBRANCH  13  14
ENDBRANCH  12  13
ENDBRANCH   9  12
ENDBRANCH   1   8
BRANCH   7  21
HETATM   21  C   UNL     1       6.536  28.466  55.381  1.00  0.00    -0.020 A 
HETATM   22  C   UNL     1       6.304  28.762  56.731  1.00  0.00     0.014 A 
HETATM   23  C   UNL     1       7.336  29.262  57.530  1.00  0.00     0.020 A 
HETATM   24  C   UNL     1       8.598  29.473  56.977  1.00  0.00     0.011 A 
HETATM   25 BR   UNL     1       9.992  30.157  58.054  1.00  0.00    -0.051 Br
HETATM   26  C   UNL     1       8.839  29.188  55.634  1.00  0.00     0.020 A 
HETATM   27  C   UNL     1       7.808  28.685  54.836  1.00  0.00     0.014 A 
ENDBRANCH   7  21
TORSDOF 5
ENDMDL
MODEL 5
REMARK VINA RESULT:      -8.8      3.305      7.566
REMARK  5 active torsions:
REMARK  status: ('A' for Active; 'I' for Inactive)
REMARK    1  A    between atoms: C_3  and  O_4 
REMARK    2  A    between atoms: O_4  and  C_5 
REMARK    3  A    between atoms: C_5  and  C_6 
REMARK       I    between atoms: C_6  and  N_7 
REMARK    4  A    between atoms: N_7  and  C_8 
REMARK    5  A    between atoms: C_14  and  C_15 
ROOT
HETATM    1  C   UNL     1       5.663  27.124  55.000  1.00  0.00     0.137 A 
HETATM    2  N   UNL     1       4.601  26.951  54.148  1.00  0.00    -0.262 N 
HETATM    3  H   UNL     1       4.314  26.077  53.712  1.00  0.00     0.191 HD
HETATM    4  N   UNL     1       3.916  28.079  53.893  1.00  0.00    -0.177 NA
HETATM    5  C   UNL     1       4.549  29.009  54.619  1.00  0.00     0.065 A 
HETATM    6  C   UNL     1       4.055  30.409  54.615  1.00  0.00     0.073 C 
HETATM    7  C   UNL     1       5.658  28.466  55.329  1.00  0.00     0.046 A 
ENDROOT
BRANCH   1   8
HETATM    8  N   UNL     1       6.510  26.098  55.387  1.00  0.00    -0.309 N 
HETATM    9  C   UNL     1       6.157  25.197  56.386  1.00  0.00     0.247 C 
HETATM   10  O   UNL     1       5.065  25.205  56.953  1.00  0.00    -0.271 OA
HETATM   11  H   UNL     1       7.413  26.037  54.931  1.00  0.00     0.170 HD
BRANCH   9  12
HETATM   12  C   UNL     1       7.269  24.197  56.710  1.00  0.00     0.278 C 
BRANCH  12  13
HETATM   13  O   UNL     1       8.093  24.020  55.566  1.00  0.00    -0.342 OA
BRANCH  13  14
HETATM   14  C   UNL     1       8.081  22.793  54.962  1.00  0.00     0.075 A 
HETATM   15  C   UNL     1       8.002  22.806  53.558  1.00  0.00    -0.029 A 
HETATM   16  C   UNL     1       7.937  24.107  52.804  1.00  0.00     0.051 C 
HETATM   17  C   UNL     1       8.003  21.593  52.855  1.00  0.00     0.009 A 
HETATM   18  C   UNL     1       8.077  20.379  53.538  1.00  0.00     0.001 A 
HETATM   19  C   UNL     1       8.161  20.369  54.926  1.00  0.00     0.003 A 
HETATM   20  C   UNL     1       8.167  21.572  55.639  1.00  0.00     0.037 A 
ENDBRANCH  13  14
ENDBRANCH  12  13
ENDBRANCH   9  12
ENDBRANCH   1   8
BRANCH   7  21
HETATM   21  C   UNL     1       6.607  29.112  56.212  1.00  0.00    -0.020 A 
HETATM   22  C   UNL     1       7.973  29.129  55.902  1.00  0.00     0.014 A 
HETATM   23  C   UNL     1       8.884  29.743  56.766  1.00  0.00     0.020 A 
HETATM   24  C   UNL     1       8.430  30.334  57.944  1.00  0.00     0.011 A 
HETATM   25 BR   UNL     1       9.662  31.158  59.116  1.00  0.00    -0.051 Br
HETATM   26  C   UNL     1       7.074  30.318  58.266  1.00  0.00     0.020 A 
HETATM   27  C   UNL     1       6.163  29.707  57.401  1.00  0.00     0.014 A 
ENDBRANCH   7  21
TORSDOF 5
ENDMDL
MODEL 6
REMARK VINA RESULT:      -8.7      3.392      5.487
REMARK  5 active torsions:
REMARK  status: ('A' for Active; 'I' for Inactive)
REMARK    1  A    between atoms: C_3  and  O_4 
REMARK    2  A    between atoms: O_4  and  C_5 
REMARK    3  A    between atoms: C_5  and  C_6 
REMARK       I    between atoms: C_6  and  N_7 
REMARK    4  A    between atoms: N_7  and  C_8 
REMARK    5  A    between atoms: C_14  and  C_15 
ROOT
HETATM    1  C   UNL     1       6.021  28.424  52.997  1.00  0.00     0.137 A 
HETATM    2  N   UNL     1       5.450  29.466  52.310  1.00  0.00    -0.262 N 
HETATM    3  H   UNL     1       5.343  30.421  52.644  1.00  0.00     0.191 HD
HETATM    4  N   UNL     1       4.997  29.133  51.089  1.00  0.00    -0.177 NA
HETATM    5  C   UNL     1       5.302  27.833  50.978  1.00  0.00     0.065 A 
HETATM    6  C   UNL     1       4.974  27.103  49.728  1.00  0.00     0.073 C 
HETATM    7  C   UNL     1       5.941  27.335  52.150  1.00  0.00     0.046 A 
ENDROOT
BRANCH   1   8
HETATM    8  N   UNL     1       6.542  28.542  54.275  1.00  0.00    -0.309 N 
HETATM    9  C   UNL     1       5.718  28.638  55.392  1.00  0.00     0.247 C 
HETATM   10  O   UNL     1       4.491  28.570  55.340  1.00  0.00    -0.271 OA
HETATM   11  H   UNL     1       7.549  28.579  54.371  1.00  0.00     0.170 HD
BRANCH   9  12
HETATM   12  C   UNL     1       6.498  28.841  56.694  1.00  0.00     0.278 C 
BRANCH  12  13
HETATM   13  O   UNL     1       6.313  27.713  57.537  1.00  0.00    -0.342 OA
BRANCH  13  14
HETATM   14  C   UNL     1       7.018  26.579  57.239  1.00  0.00     0.075 A 
HETATM   15  C   UNL     1       6.246  25.428  57.000  1.00  0.00    -0.029 A 
HETATM   16  C   UNL     1       4.744  25.480  57.075  1.00  0.00     0.051 C 
HETATM   17  C   UNL     1       6.885  24.224  56.670  1.00  0.00     0.009 A 
HETATM   18  C   UNL     1       8.275  24.162  56.583  1.00  0.00     0.001 A 
HETATM   19  C   UNL     1       9.036  25.303  56.814  1.00  0.00     0.003 A 
HETATM   20  C   UNL     1       8.411  26.511  57.138  1.00  0.00     0.037 A 
ENDBRANCH  13  14
ENDBRANCH  12  13
ENDBRANCH   9  12
ENDBRANCH   1   8
BRANCH   7  21
HETATM   21  C   UNL     1       6.423  26.004  52.455  1.00  0.00    -0.020 A 
HETATM   22  C   UNL     1       7.771  25.672  52.266  1.00  0.00     0.014 A 
HETATM   23  C   UNL     1       8.225  24.381  52.551  1.00  0.00     0.020 A 
HETATM   24  C   UNL     1       7.330  23.420  53.018  1.00  0.00     0.011 A 
HETATM   25 BR   UNL     1       7.942  21.673  53.395  1.00  0.00    -0.051 Br
HETATM   26  C   UNL     1       5.986  23.737  53.204  1.00  0.00     0.020 A 
HETATM   27  C   UNL     1       5.532  25.028  52.923  1.00  0.00     0.014 A 
ENDBRANCH   7  21
TORSDOF 5
ENDMDL
MODEL 7
REMARK VINA RESULT:      -8.5      3.023      6.613
REMARK  5 active torsions:
REMARK  status: ('A' for Active; 'I' for Inactive)
REMARK    1  A    between atoms: C_3  and  O_4 
REMARK    2  A    between atoms: O_4  and  C_5 
REMARK    3  A    between atoms: C_5  and  C_6 
REMARK       I    between atoms: C_6  and  N_7 
REMARK    4  A    between atoms: N_7  and  C_8 
REMARK    5  A    between atoms: C_14  and  C_15 
ROOT
HETATM    1  C   UNL     1       6.582  27.344  56.292  1.00  0.00     0.137 A 
HETATM    2  N   UNL     1       6.575  28.077  57.453  1.00  0.00    -0.262 N 
HETATM    3  H   UNL     1       7.048  27.834  58.321  1.00  0.00     0.191 HD
HETATM    4  N   UNL     1       5.853  29.208  57.380  1.00  0.00    -0.177 NA
HETATM    5  C   UNL     1       5.390  29.212  56.123  1.00  0.00     0.065 A 
HETATM    6  C   UNL     1       4.553  30.343  55.650  1.00  0.00     0.073 C 
HETATM    7  C   UNL     1       5.813  28.062  55.397  1.00  0.00     0.046 A 
ENDROOT
BRANCH   1   8
HETATM    8  N   UNL     1       7.253  26.140  56.150  1.00  0.00    -0.309 N 
HETATM    9  C   UNL     1       7.924  25.548  57.214  1.00  0.00     0.247 C 
HETATM   10  O   UNL     1       7.928  26.007  58.356  1.00  0.00    -0.271 OA
HETATM   11  H   UNL     1       7.257  25.710  55.232  1.00  0.00     0.170 HD
BRANCH   9  12
HETATM   12  C   UNL     1       8.661  24.266  56.817  1.00  0.00     0.278 C 
BRANCH  12  13
HETATM   13  O   UNL     1       7.714  23.249  56.520  1.00  0.00    -0.342 OA
BRANCH  13  14
HETATM   14  C   UNL     1       7.803  22.640  55.299  1.00  0.00     0.075 A 
HETATM   15  C   UNL     1       8.060  21.257  55.326  1.00  0.00    -0.029 A 
HETATM   16  C   UNL     1       8.220  20.531  56.634  1.00  0.00     0.051 C 
HETATM   17  C   UNL     1       8.149  20.547  54.120  1.00  0.00     0.009 A 
HETATM   18  C   UNL     1       7.990  21.203  52.900  1.00  0.00     0.001 A 
HETATM   19  C   UNL     1       7.730  22.570  52.876  1.00  0.00     0.003 A 
HETATM   20  C   UNL     1       7.633  23.288  54.072  1.00  0.00     0.037 A 
ENDBRANCH  13  14
ENDBRANCH  12  13
ENDBRANCH   9  12
ENDBRANCH   1   8
BRANCH   7  21
HETATM   21  C   UNL     1       5.536  27.668  54.031  1.00  0.00    -0.020 A 
HETATM   22  C   UNL     1       5.097  26.370  53.737  1.00  0.00     0.014 A 
HETATM   23  C   UNL     1       4.845  25.995  52.415  1.00  0.00     0.020 A 
HETATM   24  C   UNL     1       5.039  26.915  51.386  1.00  0.00     0.011 A 
HETATM   25 BR   UNL     1       4.707  26.404  49.597  1.00  0.00    -0.051 Br
HETATM   26  C   UNL     1       5.483  28.206  51.665  1.00  0.00     0.020 A 
HETATM   27  C   UNL     1       5.731  28.583  52.987  1.00  0.00     0.014 A 
ENDBRANCH   7  21
TORSDOF 5
ENDMDL
MODEL 8
REMARK VINA RESULT:      -8.5      3.401      5.589
REMARK  5 active torsions:
REMARK  status: ('A' for Active; 'I' for Inactive)
REMARK    1  A    between atoms: C_3  and  O_4 
REMARK    2  A    between atoms: O_4  and  C_5 
REMARK    3  A    between atoms: C_5  and  C_6 
REMARK       I    between atoms: C_6  and  N_7 
REMARK    4  A    between atoms: N_7  and  C_8 
REMARK    5  A    between atoms: C_14  and  C_15 
ROOT
HETATM    1  C   UNL     1       3.986  27.905  52.830  1.00  0.00     0.137 A 
HETATM    2  N   UNL     1       3.283  28.758  52.016  1.00  0.00    -0.262 N 
HETATM    3  H   UNL     1       2.619  29.467  52.317  1.00  0.00     0.191 HD
HETATM    4  N   UNL     1       3.529  28.589  50.706  1.00  0.00    -0.177 NA
HETATM    5  C   UNL     1       4.435  27.602  50.674  1.00  0.00     0.065 A 
HETATM    6  C   UNL     1       4.980  27.143  49.372  1.00  0.00     0.073 C 
HETATM    7  C   UNL     1       4.753  27.131  51.980  1.00  0.00     0.046 A 
ENDROOT
BRANCH   1   8
HETATM    8  N   UNL     1       3.876  27.899  54.211  1.00  0.00    -0.309 N 
HETATM    9  C   UNL     1       4.383  28.934  54.989  1.00  0.00     0.247 C 
HETATM   10  O   UNL     1       4.908  29.943  54.519  1.00  0.00    -0.271 OA
HETATM   11  H   UNL     1       3.430  27.099  54.643  1.00  0.00     0.170 HD
BRANCH   9  12
HETATM   12  C   UNL     1       4.224  28.687  56.491  1.00  0.00     0.278 C 
BRANCH  12  13
HETATM   13  O   UNL     1       5.506  28.520  57.081  1.00  0.00    -0.342 OA
BRANCH  13  14
HETATM   14  C   UNL     1       6.089  27.286  56.987  1.00  0.00     0.075 A 
HETATM   15  C   UNL     1       7.482  27.256  57.180  1.00  0.00    -0.029 A 
HETATM   16  C   UNL     1       8.246  28.519  57.468  1.00  0.00     0.051 C 
HETATM   17  C   UNL     1       8.161  26.030  57.120  1.00  0.00     0.009 A 
HETATM   18  C   UNL     1       7.465  24.848  56.868  1.00  0.00     0.001 A 
HETATM   19  C   UNL     1       6.086  24.881  56.684  1.00  0.00     0.003 A 
HETATM   20  C   UNL     1       5.397  26.095  56.747  1.00  0.00     0.037 A 
ENDBRANCH  13  14
ENDBRANCH  12  13
ENDBRANCH   9  12
ENDBRANCH   1   8
BRANCH   7  21
HETATM   21  C   UNL     1       5.663  26.084  52.398  1.00  0.00    -0.020 A 
HETATM   22  C   UNL     1       5.186  24.800  52.692  1.00  0.00     0.014 A 
HETATM   23  C   UNL     1       6.068  23.799  53.107  1.00  0.00     0.020 A 
HETATM   24  C   UNL     1       7.427  24.084  53.235  1.00  0.00     0.011 A 
HETATM   25 BR   UNL     1       8.619  22.733  53.804  1.00  0.00    -0.051 Br
HETATM   26  C   UNL     1       7.912  25.359  52.951  1.00  0.00     0.020 A 
HETATM   27  C   UNL     1       7.030  26.359  52.533  1.00  0.00     0.014 A 
ENDBRANCH   7  21
TORSDOF 5
ENDMDL
MODEL 9
REMARK VINA RESULT:      -8.5      4.256      8.195
REMARK  5 active torsions:
REMARK  status: ('A' for Active; 'I' for Inactive)
REMARK    1  A    between atoms: C_3  and  O_4 
REMARK    2  A    between atoms: O_4  and  C_5 
REMARK    3  A    between atoms: C_5  and  C_6 
REMARK       I    between atoms: C_6  and  N_7 
REMARK    4  A    between atoms: N_7  and  C_8 
REMARK    5  A    between atoms: C_14  and  C_15 
ROOT
HETATM    1  C   UNL     1       6.814  27.591  53.721  1.00  0.00     0.137 A 
HETATM    2  N   UNL     1       6.799  28.776  54.414  1.00  0.00    -0.262 N 
HETATM    3  H   UNL     1       6.501  29.680  54.055  1.00  0.00     0.191 HD
HETATM    4  N   UNL     1       7.238  28.674  55.680  1.00  0.00    -0.177 NA
HETATM    5  C   UNL     1       7.532  27.374  55.813  1.00  0.00     0.065 A 
HETATM    6  C   UNL     1       8.035  26.860  57.112  1.00  0.00     0.073 C 
HETATM    7  C   UNL     1       7.290  26.648  54.611  1.00  0.00     0.046 A 
ENDROOT
BRANCH   1   8
HETATM    8  N   UNL     1       6.414  27.471  52.400  1.00  0.00    -0.309 N 
HETATM    9  C   UNL     1       5.158  26.980  52.058  1.00  0.00     0.247 C 
HETATM   10  O   UNL     1       4.300  26.673  52.885  1.00  0.00    -0.271 OA
HETATM   11  H   UNL     1       7.079  27.735  51.682  1.00  0.00     0.170 HD
BRANCH   9  12
HETATM   12  C   UNL     1       4.956  26.857  50.546  1.00  0.00     0.278 C 
BRANCH  12  13
HETATM   13  O   UNL     1       3.994  27.811  50.119  1.00  0.00    -0.342 OA
BRANCH  13  14
HETATM   14  C   UNL     1       3.190  27.471  49.066  1.00  0.00     0.075 A 
HETATM   15  C   UNL     1       1.925  28.087  49.043  1.00  0.00    -0.029 A 
HETATM   16  C   UNL     1       1.520  29.051  50.124  1.00  0.00     0.051 C 
HETATM   17  C   UNL     1       1.042  27.810  47.990  1.00  0.00     0.009 A 
HETATM   18  C   UNL     1       1.408  26.929  46.973  1.00  0.00     0.001 A 
HETATM   19  C   UNL     1       2.662  26.327  46.995  1.00  0.00     0.003 A 
HETATM   20  C   UNL     1       3.553  26.598  48.037  1.00  0.00     0.037 A 
ENDBRANCH  13  14
ENDBRANCH  12  13
ENDBRANCH   9  12
ENDBRANCH   1   8
BRANCH   7  21
HETATM   21  C   UNL     1       7.479  25.243  54.316  1.00  0.00    -0.020 A 
HETATM   22  C   UNL     1       7.966  24.835  53.067  1.00  0.00     0.014 A 
HETATM   23  C   UNL     1       8.133  23.476  52.786  1.00  0.00     0.020 A 
HETATM   24  C   UNL     1       7.805  22.525  53.751  1.00  0.00     0.011 A 
HETATM   25 BR   UNL     1       8.022  20.687  53.368  1.00  0.00    -0.051 Br
HETATM   26  C   UNL     1       7.313  22.919  54.994  1.00  0.00     0.020 A 
HETATM   27  C   UNL     1       7.150  24.277  55.276  1.00  0.00     0.014 A 
ENDBRANCH   7  21
TORSDOF 5
ENDMDL
MODEL 10
REMARK VINA RESULT:      -8.2      5.166      8.297
REMARK  5 active torsions:
REMARK  status: ('A' for Active; 'I' for Inactive)
REMARK    1  A    between atoms: C_3  and  O_4 
REMARK    2  A    between atoms: O_4  and  C_5 
REMARK    3  A    between atoms: C_5  and  C_6 
REMARK       I    between atoms: C_6  and  N_7 
REMARK    4  A    between atoms: N_7  and  C_8 
REMARK    5  A    between atoms: C_14  and  C_15 
ROOT
HETATM    1  C   UNL     1       4.599  26.752  49.671  1.00  0.00     0.137 A 
HETATM    2  N   UNL     1       3.866  25.761  49.068  1.00  0.00    -0.262 N 
HETATM    3  H   UNL     1       4.057  24.762  49.105  1.00  0.00     0.191 HD
HETATM    4  N   UNL     1       2.811  26.212  48.368  1.00  0.00    -0.177 NA
HETATM    5  C   UNL     1       2.857  27.539  48.539  1.00  0.00     0.065 A 
HETATM    6  C   UNL     1       1.815  28.399  47.922  1.00  0.00     0.073 C 
HETATM    7  C   UNL     1       3.964  27.934  49.344  1.00  0.00     0.046 A 
ENDROOT
BRANCH   1   8
HETATM    8  N   UNL     1       5.733  26.512  50.431  1.00  0.00    -0.309 N 
HETATM    9  C   UNL     1       5.723  25.617  51.495  1.00  0.00     0.247 C 
HETATM   10  O   UNL     1       4.743  24.940  51.805  1.00  0.00    -0.271 OA
HETATM   11  H   UNL     1       6.572  27.029  50.198  1.00  0.00     0.170 HD
BRANCH   9  12
HETATM   12  C   UNL     1       7.056  25.564  52.245  1.00  0.00     0.278 C 
BRANCH  12  13
HETATM   13  O   UNL     1       6.840  25.074  53.560  1.00  0.00    -0.342 OA
BRANCH  13  14
HETATM   14  C   UNL     1       7.274  23.808  53.843  1.00  0.00     0.075 A 
HETATM   15  C   UNL     1       7.263  23.451  55.203  1.00  0.00    -0.029 A 
HETATM   16  C   UNL     1       6.798  24.426  56.251  1.00  0.00     0.051 C 
HETATM   17  C   UNL     1       7.674  22.165  55.583  1.00  0.00     0.009 A 
HETATM   18  C   UNL     1       8.095  21.245  54.623  1.00  0.00     0.001 A 
HETATM   19  C   UNL     1       8.098  21.599  53.277  1.00  0.00     0.003 A 
HETATM   20  C   UNL     1       7.686  22.876  52.886  1.00  0.00     0.037 A 
ENDBRANCH  13  14
ENDBRANCH  12  13
ENDBRANCH   9  12
ENDBRANCH   1   8
BRANCH   7  21
HETATM   21  C   UNL     1       4.389  29.254  49.763  1.00  0.00    -0.020 A 
HETATM   22  C   UNL     1       3.967  29.782  50.990  1.00  0.00     0.014 A 
HETATM   23  C   UNL     1       4.371  31.062  51.382  1.00  0.00     0.020 A 
HETATM   24  C   UNL     1       5.191  31.815  50.543  1.00  0.00     0.011 A 
HETATM   25 BR   UNL     1       5.730  33.548  51.068  1.00  0.00    -0.051 Br
HETATM   26  C   UNL     1       5.610  31.302  49.317  1.00  0.00     0.020 A 
HETATM   27  C   UNL     1       5.209  30.022  48.927  1.00  0.00     0.014 A 
ENDBRANCH   7  21
TORSDOF 5
ENDMDL
