MODEL 1
REMARK VINA RESULT:      -8.1      0.000      0.000
REMARK  5 active torsions:
REMARK  status: ('A' for Active; 'I' for Inactive)
REMARK    1  A    between atoms: C_2  and  N_3 
REMARK    2  A    between atoms: N_3  and  C_6 
REMARK    3  A    between atoms: C_6  and  C_7 
REMARK    4  A    between atoms: C_8  and  N_9 
REMARK       I    between atoms: N_9  and  C_10 
REMARK    5  A    between atoms: C_10  and  C_11 
ROOT
HETATM    1  N   UNL     1       6.099  25.909  55.832  1.00  0.00    -0.322 N 
HETATM    2  C   UNL     1       7.219  25.427  55.192  1.00  0.00     0.259 C 
HETATM    3  O   UNL     1       7.852  26.033  54.341  1.00  0.00    -0.267 OA
HETATM    4  H   UNL     1       5.821  25.349  56.636  1.00  0.00     0.169 HD
ENDROOT
BRANCH   1   5
HETATM    5  C   UNL     1       5.474  27.185  55.752  1.00  0.00     0.043 A 
HETATM    6  C   UNL     1       4.890  27.815  54.629  1.00  0.00    -0.006 A 
HETATM    7  C   UNL     1       4.380  29.129  54.786  1.00  0.00     0.011 A 
HETATM    8  C   UNL     1       4.400  29.788  56.013  1.00  0.00     0.001 A 
HETATM    9  C   UNL     1       4.922  29.146  57.121  1.00  0.00     0.002 A 
HETATM   10  C   UNL     1       5.448  27.861  56.991  1.00  0.00     0.030 A 
BRANCH   6  11
HETATM   11  C   UNL     1       4.695  27.221  53.253  1.00  0.00     0.273 C 
BRANCH  11  12
HETATM   12  N   UNL     1       4.072  25.867  53.299  1.00  0.00    -0.072 N 
HETATM   13  H   UNL     1       3.086  25.942  53.021  1.00  0.00     0.277 HD
HETATM   14  H   UNL     1       4.085  25.583  54.283  1.00  0.00     0.277 HD
BRANCH  12  15
HETATM   15  C   UNL     1       4.784  24.820  52.520  1.00  0.00     0.228 C 
HETATM   16  C   UNL     1       5.789  25.500  51.611  1.00  0.00     0.034 C 
ENDBRANCH  12  15
ENDBRANCH  11  12
ENDBRANCH   6  11
ENDBRANCH   1   5
BRANCH   2  17
HETATM   17  C   UNL     1       7.578  24.074  55.553  1.00  0.00     0.067 A 
HETATM   18  C   UNL     1       7.755  22.917  54.730  1.00  0.00     0.015 A 
HETATM   19  C   UNL     1       8.192  21.910  55.587  1.00  0.00     0.086 A 
HETATM   20  C   UNL     1       7.647  22.618  53.357  1.00  0.00     0.015 A 
HETATM   21  C   UNL     1       8.518  20.620  55.181  1.00  0.00     0.038 A 
HETATM   22  O   UNL     1       8.273  22.375  56.861  1.00  0.00    -0.321 OA
HETATM   23  C   UNL     1       8.404  20.347  53.816  1.00  0.00     0.003 A 
HETATM   24  C   UNL     1       7.977  21.327  52.918  1.00  0.00     0.001 A 
HETATM   25  C   UNL     1       7.922  23.683  56.832  1.00  0.00     0.160 A 
ENDBRANCH   2  17
TORSDOF 5
ENDMDL
MODEL 2
REMARK VINA RESULT:      -8.1      1.845      3.637
REMARK  5 active torsions:
REMARK  status: ('A' for Active; 'I' for Inactive)
REMARK    1  A    between atoms: C_2  and  N_3 
REMARK    2  A    between atoms: N_3  and  C_6 
REMARK    3  A    between atoms: C_6  and  C_7 
REMARK    4  A    between atoms: C_8  and  N_9 
REMARK       I    between atoms: N_9  and  C_10 
REMARK    5  A    between atoms: C_10  and  C_11 
ROOT
HETATM    1  N   UNL     1       5.792  25.458  52.697  1.00  0.00    -0.322 N 
HETATM    2  C   UNL     1       7.066  24.961  52.866  1.00  0.00     0.259 C 
HETATM    3  O   UNL     1       8.022  25.235  52.156  1.00  0.00    -0.267 OA
HETATM    4  H   UNL     1       5.179  25.270  53.488  1.00  0.00     0.169 HD
ENDROOT
BRANCH   1   5
HETATM    5  C   UNL     1       5.299  26.426  51.779  1.00  0.00     0.043 A 
HETATM    6  C   UNL     1       5.068  27.805  51.987  1.00  0.00    -0.006 A 
HETATM    7  C   UNL     1       4.508  28.559  50.925  1.00  0.00     0.011 A 
HETATM    8  C   UNL     1       4.224  27.993  49.684  1.00  0.00     0.001 A 
HETATM    9  C   UNL     1       4.503  26.656  49.468  1.00  0.00     0.002 A 
HETATM   10  C   UNL     1       5.036  25.886  50.501  1.00  0.00     0.030 A 
BRANCH   6  11
HETATM   11  C   UNL     1       5.402  28.606  53.224  1.00  0.00     0.273 C 
BRANCH  11  12
HETATM   12  N   UNL     1       6.870  28.698  53.467  1.00  0.00    -0.072 N 
HETATM   13  H   UNL     1       7.162  29.679  53.390  1.00  0.00     0.277 HD
HETATM   14  H   UNL     1       7.316  28.191  52.696  1.00  0.00     0.277 HD
BRANCH  12  15
HETATM   15  C   UNL     1       7.338  28.083  54.737  1.00  0.00     0.228 C 
HETATM   16  C   UNL     1       6.147  27.932  55.663  1.00  0.00     0.034 C 
ENDBRANCH  12  15
ENDBRANCH  11  12
ENDBRANCH   6  11
ENDBRANCH   1   5
BRANCH   2  17
HETATM   17  C   UNL     1       7.196  24.000  53.938  1.00  0.00     0.067 A 
HETATM   18  C   UNL     1       7.633  22.639  53.907  1.00  0.00     0.015 A 
HETATM   19  C   UNL     1       7.654  22.220  55.235  1.00  0.00     0.086 A 
HETATM   20  C   UNL     1       8.061  21.729  52.919  1.00  0.00     0.015 A 
HETATM   21  C   UNL     1       8.059  20.957  55.654  1.00  0.00     0.038 A 
HETATM   22  O   UNL     1       7.247  23.225  56.054  1.00  0.00    -0.321 OA
HETATM   23  C   UNL     1       8.480  20.073  54.657  1.00  0.00     0.003 A 
HETATM   24  C   UNL     1       8.483  20.450  53.313  1.00  0.00     0.001 A 
HETATM   25  C   UNL     1       6.991  24.300  55.270  1.00  0.00     0.160 A 
ENDBRANCH   2  17
TORSDOF 5
ENDMDL
MODEL 3
REMARK VINA RESULT:      -8.0      1.860      2.619
REMARK  5 active torsions:
REMARK  status: ('A' for Active; 'I' for Inactive)
REMARK    1  A    between atoms: C_2  and  N_3 
REMARK    2  A    between atoms: N_3  and  C_6 
REMARK    3  A    between atoms: C_6  and  C_7 
REMARK    4  A    between atoms: C_8  and  N_9 
REMARK       I    between atoms: N_9  and  C_10 
REMARK    5  A    between atoms: C_10  and  C_11 
ROOT
HETATM    1  N   UNL     1       7.483  26.541  55.330  1.00  0.00    -0.322 N 
HETATM    2  C   UNL     1       6.818  25.335  55.354  1.00  0.00     0.259 C 
HETATM    3  O   UNL     1       5.920  25.048  56.131  1.00  0.00    -0.267 OA
HETATM    4  H   UNL     1       8.061  26.665  54.501  1.00  0.00     0.169 HD
ENDROOT
BRANCH   1   5
HETATM    5  C   UNL     1       7.259  27.727  56.083  1.00  0.00     0.043 A 
HETATM    6  C   UNL     1       6.366  28.790  55.813  1.00  0.00    -0.006 A 
HETATM    7  C   UNL     1       6.368  29.906  56.688  1.00  0.00     0.011 A 
HETATM    8  C   UNL     1       7.184  29.961  57.816  1.00  0.00     0.001 A 
HETATM    9  C   UNL     1       8.016  28.895  58.104  1.00  0.00     0.002 A 
HETATM   10  C   UNL     1       8.048  27.793  57.251  1.00  0.00     0.030 A 
BRANCH   6  11
HETATM   11  C   UNL     1       5.346  28.860  54.701  1.00  0.00     0.273 C 
BRANCH  11  12
HETATM   12  N   UNL     1       5.974  29.022  53.359  1.00  0.00    -0.072 N 
HETATM   13  H   UNL     1       6.974  29.221  53.478  1.00  0.00     0.277 HD
HETATM   14  H   UNL     1       5.550  29.859  52.947  1.00  0.00     0.277 HD
BRANCH  12  15
HETATM   15  C   UNL     1       5.748  27.895  52.417  1.00  0.00     0.228 C 
HETATM   16  C   UNL     1       4.592  27.062  52.937  1.00  0.00     0.034 C 
ENDBRANCH  12  15
ENDBRANCH  11  12
ENDBRANCH   6  11
ENDBRANCH   1   5
BRANCH   2  17
HETATM   17  C   UNL     1       7.314  24.360  54.409  1.00  0.00     0.067 A 
HETATM   18  C   UNL     1       7.610  22.972  54.587  1.00  0.00     0.015 A 
HETATM   19  C   UNL     1       7.962  22.498  53.326  1.00  0.00     0.086 A 
HETATM   20  C   UNL     1       7.573  22.052  55.655  1.00  0.00     0.015 A 
HETATM   21  C   UNL     1       8.293  21.175  53.048  1.00  0.00     0.038 A 
HETATM   22  O   UNL     1       7.913  23.502  52.412  1.00  0.00    -0.321 OA
HETATM   23  C   UNL     1       8.248  20.281  54.121  1.00  0.00     0.003 A 
HETATM   24  C   UNL     1       7.895  20.710  55.402  1.00  0.00     0.001 A 
HETATM   25  C   UNL     1       7.503  24.616  53.065  1.00  0.00     0.160 A 
ENDBRANCH   2  17
TORSDOF 5
ENDMDL
MODEL 4
REMARK VINA RESULT:      -7.9      1.496      2.918
REMARK  5 active torsions:
REMARK  status: ('A' for Active; 'I' for Inactive)
REMARK    1  A    between atoms: C_2  and  N_3 
REMARK    2  A    between atoms: N_3  and  C_6 
REMARK    3  A    between atoms: C_6  and  C_7 
REMARK    4  A    between atoms: C_8  and  N_9 
REMARK       I    between atoms: N_9  and  C_10 
REMARK    5  A    between atoms: C_10  and  C_11 
ROOT
HETATM    1  N   UNL     1       5.843  26.206  54.766  1.00  0.00    -0.322 N 
HETATM    2  C   UNL     1       7.046  25.662  54.372  1.00  0.00     0.259 C 
HETATM    3  O   UNL     1       7.775  26.131  53.510  1.00  0.00    -0.267 OA
HETATM    4  H   UNL     1       5.473  25.788  55.618  1.00  0.00     0.169 HD
ENDROOT
BRANCH   1   5
HETATM    5  C   UNL     1       5.213  27.420  54.376  1.00  0.00     0.043 A 
HETATM    6  C   UNL     1       5.336  28.705  54.953  1.00  0.00    -0.006 A 
HETATM    7  C   UNL     1       4.550  29.758  54.419  1.00  0.00     0.011 A 
HETATM    8  C   UNL     1       3.705  29.571  53.328  1.00  0.00     0.001 A 
HETATM    9  C   UNL     1       3.629  28.325  52.734  1.00  0.00     0.002 A 
HETATM   10  C   UNL     1       4.377  27.266  53.249  1.00  0.00     0.030 A 
BRANCH   6  11
HETATM   11  C   UNL     1       6.268  29.115  56.069  1.00  0.00     0.273 C 
BRANCH  11  12
HETATM   12  N   UNL     1       7.649  29.398  55.586  1.00  0.00    -0.072 N 
HETATM   13  H   UNL     1       7.794  30.414  55.562  1.00  0.00     0.277 HD
HETATM   14  H   UNL     1       7.683  29.068  54.617  1.00  0.00     0.277 HD
BRANCH  12  15
HETATM   15  C   UNL     1       8.732  28.707  56.333  1.00  0.00     0.228 C 
HETATM   16  C   UNL     1       8.097  27.814  57.380  1.00  0.00     0.034 C 
ENDBRANCH  12  15
ENDBRANCH  11  12
ENDBRANCH   6  11
ENDBRANCH   1   5
BRANCH   2  17
HETATM   17  C   UNL     1       7.377  24.412  55.017  1.00  0.00     0.067 A 
HETATM   18  C   UNL     1       7.639  23.125  54.451  1.00  0.00     0.015 A 
HETATM   19  C   UNL     1       7.999  22.310  55.522  1.00  0.00     0.086 A 
HETATM   20  C   UNL     1       7.663  22.567  53.157  1.00  0.00     0.015 A 
HETATM   21  C   UNL     1       8.371  20.974  55.403  1.00  0.00     0.038 A 
HETATM   22  O   UNL     1       7.957  23.011  56.685  1.00  0.00    -0.321 OA
HETATM   23  C   UNL     1       8.388  20.444  54.111  1.00  0.00     0.003 A 
HETATM   24  C   UNL     1       8.041  21.224  53.006  1.00  0.00     0.001 A 
HETATM   25  C   UNL     1       7.601  24.280  56.373  1.00  0.00     0.160 A 
ENDBRANCH   2  17
TORSDOF 5
ENDMDL
MODEL 5
REMARK VINA RESULT:      -7.9      2.408      3.837
REMARK  5 active torsions:
REMARK  status: ('A' for Active; 'I' for Inactive)
REMARK    1  A    between atoms: C_2  and  N_3 
REMARK    2  A    between atoms: N_3  and  C_6 
REMARK    3  A    between atoms: C_6  and  C_7 
REMARK    4  A    between atoms: C_8  and  N_9 
REMARK       I    between atoms: N_9  and  C_10 
REMARK    5  A    between atoms: C_10  and  C_11 
ROOT
HETATM    1  N   UNL     1       6.606  26.392  55.193  1.00  0.00    -0.322 N 
HETATM    2  C   UNL     1       6.717  25.079  55.595  1.00  0.00     0.259 C 
HETATM    3  O   UNL     1       6.474  24.672  56.721  1.00  0.00    -0.267 OA
HETATM    4  H   UNL     1       6.666  26.509  54.183  1.00  0.00     0.169 HD
ENDROOT
BRANCH   1   5
HETATM    5  C   UNL     1       6.125  27.530  55.897  1.00  0.00     0.043 A 
HETATM    6  C   UNL     1       6.802  28.338  56.840  1.00  0.00    -0.006 A 
HETATM    7  C   UNL     1       6.083  29.392  57.459  1.00  0.00     0.011 A 
HETATM    8  C   UNL     1       4.759  29.676  57.133  1.00  0.00     0.001 A 
HETATM    9  C   UNL     1       4.119  28.918  56.170  1.00  0.00     0.002 A 
HETATM   10  C   UNL     1       4.796  27.863  55.559  1.00  0.00     0.030 A 
BRANCH   6  11
HETATM   11  C   UNL     1       8.254  28.241  57.244  1.00  0.00     0.273 C 
BRANCH  11  12
HETATM   12  N   UNL     1       8.935  29.567  57.252  1.00  0.00    -0.072 N 
HETATM   13  H   UNL     1       9.176  29.814  58.219  1.00  0.00     0.277 HD
HETATM   14  H   UNL     1       8.236  30.245  56.935  1.00  0.00     0.277 HD
BRANCH  12  15
HETATM   15  C   UNL     1      10.109  29.678  56.348  1.00  0.00     0.228 C 
HETATM   16  C   UNL     1      11.359  29.795  57.198  1.00  0.00     0.034 C 
ENDBRANCH  12  15
ENDBRANCH  11  12
ENDBRANCH   6  11
ENDBRANCH   1   5
BRANCH   2  17
HETATM   17  C   UNL     1       7.226  24.184  54.581  1.00  0.00     0.067 A 
HETATM   18  C   UNL     1       7.607  22.808  54.675  1.00  0.00     0.015 A 
HETATM   19  C   UNL     1       7.930  22.419  53.377  1.00  0.00     0.086 A 
HETATM   20  C   UNL     1       7.668  21.836  55.693  1.00  0.00     0.015 A 
HETATM   21  C   UNL     1       8.322  21.133  53.017  1.00  0.00     0.038 A 
HETATM   22  O   UNL     1       7.784  23.463  52.520  1.00  0.00    -0.321 OA
HETATM   23  C   UNL     1       8.375  20.186  54.043  1.00  0.00     0.003 A 
HETATM   24  C   UNL     1       8.053  20.529  55.358  1.00  0.00     0.001 A 
HETATM   25  C   UNL     1       7.342  24.517  53.246  1.00  0.00     0.160 A 
ENDBRANCH   2  17
TORSDOF 5
ENDMDL
MODEL 6
REMARK VINA RESULT:      -7.8      1.993      2.724
REMARK  5 active torsions:
REMARK  status: ('A' for Active; 'I' for Inactive)
REMARK    1  A    between atoms: C_2  and  N_3 
REMARK    2  A    between atoms: N_3  and  C_6 
REMARK    3  A    between atoms: C_6  and  C_7 
REMARK    4  A    between atoms: C_8  and  N_9 
REMARK       I    between atoms: N_9  and  C_10 
REMARK    5  A    between atoms: C_10  and  C_11 
ROOT
HETATM    1  N   UNL     1       5.424  26.052  53.612  1.00  0.00    -0.322 N 
HETATM    2  C   UNL     1       6.758  25.770  53.806  1.00  0.00     0.259 C 
HETATM    3  O   UNL     1       7.684  26.403  53.320  1.00  0.00    -0.267 OA
HETATM    4  H   UNL     1       4.809  25.540  54.242  1.00  0.00     0.169 HD
ENDROOT
BRANCH   1   5
HETATM    5  C   UNL     1       4.805  27.132  52.923  1.00  0.00     0.043 A 
HETATM    6  C   UNL     1       4.664  27.327  51.530  1.00  0.00    -0.006 A 
HETATM    7  C   UNL     1       4.056  28.526  51.079  1.00  0.00     0.011 A 
HETATM    8  C   UNL     1       3.562  29.483  51.961  1.00  0.00     0.001 A 
HETATM    9  C   UNL     1       3.653  29.262  53.323  1.00  0.00     0.002 A 
HETATM   10  C   UNL     1       4.263  28.100  53.795  1.00  0.00     0.030 A 
BRANCH   6  11
HETATM   11  C   UNL     1       5.049  26.361  50.433  1.00  0.00     0.273 C 
BRANCH  11  12
HETATM   12  N   UNL     1       5.412  27.054  49.164  1.00  0.00    -0.072 N 
HETATM   13  H   UNL     1       6.428  27.004  49.032  1.00  0.00     0.277 HD
HETATM   14  H   UNL     1       5.176  28.042  49.304  1.00  0.00     0.277 HD
BRANCH  12  15
HETATM   15  C   UNL     1       4.679  26.585  47.959  1.00  0.00     0.228 C 
HETATM   16  C   UNL     1       3.494  25.753  48.412  1.00  0.00     0.034 C 
ENDBRANCH  12  15
ENDBRANCH  11  12
ENDBRANCH   6  11
ENDBRANCH   1   5
BRANCH   2  17
HETATM   17  C   UNL     1       7.011  24.587  54.597  1.00  0.00     0.067 A 
HETATM   18  C   UNL     1       7.386  23.269  54.189  1.00  0.00     0.015 A 
HETATM   19  C   UNL     1       7.590  22.555  55.367  1.00  0.00     0.086 A 
HETATM   20  C   UNL     1       7.624  22.611  52.966  1.00  0.00     0.015 A 
HETATM   21  C   UNL     1       8.004  21.227  55.419  1.00  0.00     0.038 A 
HETATM   22  O   UNL     1       7.351  23.344  56.447  1.00  0.00    -0.321 OA
HETATM   23  C   UNL     1       8.235  20.596  54.194  1.00  0.00     0.003 A 
HETATM   24  C   UNL     1       8.050  21.274  52.988  1.00  0.00     0.001 A 
HETATM   25  C   UNL     1       7.022  24.572  55.978  1.00  0.00     0.160 A 
ENDBRANCH   2  17
TORSDOF 5
ENDMDL
MODEL 7
REMARK VINA RESULT:      -7.8      9.612     12.498
REMARK  5 active torsions:
REMARK  status: ('A' for Active; 'I' for Inactive)
REMARK    1  A    between atoms: C_2  and  N_3 
REMARK    2  A    between atoms: N_3  and  C_6 
REMARK    3  A    between atoms: C_6  and  C_7 
REMARK    4  A    between atoms: C_8  and  N_9 
REMARK       I    between atoms: N_9  and  C_10 
REMARK    5  A    between atoms: C_10  and  C_11 
ROOT
HETATM    1  N   UNL     1       6.102  33.831  64.035  1.00  0.00    -0.322 N 
HETATM    2  C   UNL     1       5.591  32.761  63.335  1.00  0.00     0.259 C 
HETATM    3  O   UNL     1       4.799  31.946  63.785  1.00  0.00    -0.267 OA
HETATM    4  H   UNL     1       6.593  34.500  63.444  1.00  0.00     0.169 HD
ENDROOT
BRANCH   1   5
HETATM    5  C   UNL     1       5.800  34.301  65.343  1.00  0.00     0.043 A 
HETATM    6  C   UNL     1       4.684  35.055  65.775  1.00  0.00    -0.006 A 
HETATM    7  C   UNL     1       4.636  35.462  67.133  1.00  0.00     0.011 A 
HETATM    8  C   UNL     1       5.623  35.105  68.048  1.00  0.00     0.001 A 
HETATM    9  C   UNL     1       6.684  34.322  67.633  1.00  0.00     0.002 A 
HETATM   10  C   UNL     1       6.767  33.923  66.299  1.00  0.00     0.030 A 
BRANCH   6  11
HETATM   11  C   UNL     1       3.480  35.450  64.954  1.00  0.00     0.273 C 
BRANCH  11  12
HETATM   12  N   UNL     1       2.660  34.274  64.541  1.00  0.00    -0.072 N 
HETATM   13  H   UNL     1       1.845  34.200  65.160  1.00  0.00     0.277 HD
HETATM   14  H   UNL     1       3.243  33.449  64.713  1.00  0.00     0.277 HD
BRANCH  12  15
HETATM   15  C   UNL     1       2.265  34.254  63.108  1.00  0.00     0.228 C 
HETATM   16  C   UNL     1       2.999  35.372  62.393  1.00  0.00     0.034 C 
ENDBRANCH  12  15
ENDBRANCH  11  12
ENDBRANCH   6  11
ENDBRANCH   1   5
BRANCH   2  17
HETATM   17  C   UNL     1       6.122  32.611  61.999  1.00  0.00     0.067 A 
HETATM   18  C   UNL     1       7.457  32.338  61.564  1.00  0.00     0.015 A 
HETATM   19  C   UNL     1       7.380  32.203  60.180  1.00  0.00     0.086 A 
HETATM   20  C   UNL     1       8.708  32.139  62.181  1.00  0.00     0.015 A 
HETATM   21  C   UNL     1       8.461  31.896  59.359  1.00  0.00     0.038 A 
HETATM   22  O   UNL     1       6.103  32.390  59.756  1.00  0.00    -0.321 OA
HETATM   23  C   UNL     1       9.691  31.703  59.993  1.00  0.00     0.003 A 
HETATM   24  C   UNL     1       9.815  31.821  61.379  1.00  0.00     0.001 A 
HETATM   25  C   UNL     1       5.346  32.615  60.856  1.00  0.00     0.160 A 
ENDBRANCH   2  17
TORSDOF 5
ENDMDL
MODEL 8
REMARK VINA RESULT:      -7.7      1.787      6.294
REMARK  5 active torsions:
REMARK  status: ('A' for Active; 'I' for Inactive)
REMARK    1  A    between atoms: C_2  and  N_3 
REMARK    2  A    between atoms: N_3  and  C_6 
REMARK    3  A    between atoms: C_6  and  C_7 
REMARK    4  A    between atoms: C_8  and  N_9 
REMARK       I    between atoms: N_9  and  C_10 
REMARK    5  A    between atoms: C_10  and  C_11 
ROOT
HETATM    1  N   UNL     1       7.797  24.392  55.692  1.00  0.00    -0.322 N 
HETATM    2  C   UNL     1       6.741  25.270  55.801  1.00  0.00     0.259 C 
HETATM    3  O   UNL     1       5.657  25.130  55.254  1.00  0.00    -0.267 OA
HETATM    4  H   UNL     1       8.542  24.574  56.362  1.00  0.00     0.169 HD
ENDROOT
BRANCH   1   5
HETATM    5  C   UNL     1       7.879  23.131  55.039  1.00  0.00     0.043 A 
HETATM    6  C   UNL     1       7.831  22.848  53.654  1.00  0.00    -0.006 A 
HETATM    7  C   UNL     1       7.870  21.490  53.246  1.00  0.00     0.011 A 
HETATM    8  C   UNL     1       7.998  20.446  54.159  1.00  0.00     0.001 A 
HETATM    9  C   UNL     1       8.099  20.732  55.508  1.00  0.00     0.002 A 
HETATM   10  C   UNL     1       8.044  22.057  55.939  1.00  0.00     0.030 A 
BRANCH   6  11
HETATM   11  C   UNL     1       7.791  23.847  52.522  1.00  0.00     0.273 C 
BRANCH  11  12
HETATM   12  N   UNL     1       6.453  24.489  52.374  1.00  0.00    -0.072 N 
HETATM   13  H   UNL     1       5.954  24.435  53.269  1.00  0.00     0.277 HD
HETATM   14  H   UNL     1       5.935  23.910  51.706  1.00  0.00     0.277 HD
BRANCH  12  15
HETATM   15  C   UNL     1       6.476  25.876  51.841  1.00  0.00     0.228 C 
HETATM   16  C   UNL     1       5.286  26.054  50.917  1.00  0.00     0.034 C 
ENDBRANCH  12  15
ENDBRANCH  11  12
ENDBRANCH   6  11
ENDBRANCH   1   5
BRANCH   2  17
HETATM   17  C   UNL     1       7.025  26.453  56.580  1.00  0.00     0.067 A 
HETATM   18  C   UNL     1       6.550  27.794  56.426  1.00  0.00     0.015 A 
HETATM   19  C   UNL     1       7.066  28.502  57.508  1.00  0.00     0.086 A 
HETATM   20  C   UNL     1       5.705  28.478  55.528  1.00  0.00     0.015 A 
HETATM   21  C   UNL     1       6.813  29.848  57.759  1.00  0.00     0.038 A 
HETATM   22  O   UNL     1       7.825  27.689  58.288  1.00  0.00    -0.321 OA
HETATM   23  C   UNL     1       5.973  30.504  56.856  1.00  0.00     0.003 A 
HETATM   24  C   UNL     1       5.427  29.833  55.760  1.00  0.00     0.001 A 
HETATM   25  C   UNL     1       7.781  26.453  57.736  1.00  0.00     0.160 A 
ENDBRANCH   2  17
TORSDOF 5
ENDMDL
MODEL 9
REMARK VINA RESULT:      -7.6      5.979      9.843
REMARK  5 active torsions:
REMARK  status: ('A' for Active; 'I' for Inactive)
REMARK    1  A    between atoms: C_2  and  N_3 
REMARK    2  A    between atoms: N_3  and  C_6 
REMARK    3  A    between atoms: C_6  and  C_7 
REMARK    4  A    between atoms: C_8  and  N_9 
REMARK       I    between atoms: N_9  and  C_10 
REMARK    5  A    between atoms: C_10  and  C_11 
ROOT
HETATM    1  N   UNL     1       7.708  30.932  59.632  1.00  0.00    -0.322 N 
HETATM    2  C   UNL     1       6.743  31.909  59.520  1.00  0.00     0.259 C 
HETATM    3  O   UNL     1       6.504  32.540  58.501  1.00  0.00    -0.267 OA
HETATM    4  H   UNL     1       7.634  30.391  60.492  1.00  0.00     0.169 HD
ENDROOT
BRANCH   1   5
HETATM    5  C   UNL     1       8.560  30.367  58.644  1.00  0.00     0.043 A 
HETATM    6  C   UNL     1       8.347  29.220  57.844  1.00  0.00    -0.006 A 
HETATM    7  C   UNL     1       9.383  28.815  56.964  1.00  0.00     0.011 A 
HETATM    8  C   UNL     1      10.570  29.532  56.838  1.00  0.00     0.001 A 
HETATM    9  C   UNL     1      10.751  30.682  57.583  1.00  0.00     0.002 A 
HETATM   10  C   UNL     1       9.757  31.094  58.470  1.00  0.00     0.030 A 
BRANCH   6  11
HETATM   11  C   UNL     1       7.094  28.380  57.775  1.00  0.00     0.273 C 
BRANCH  11  12
HETATM   12  N   UNL     1       6.644  28.138  56.374  1.00  0.00    -0.072 N 
HETATM   13  H   UNL     1       6.655  27.129  56.188  1.00  0.00     0.277 HD
HETATM   14  H   UNL     1       7.357  28.562  55.772  1.00  0.00     0.277 HD
BRANCH  12  15
HETATM   15  C   UNL     1       5.336  28.748  56.018  1.00  0.00     0.228 C 
HETATM   16  C   UNL     1       4.818  29.508  57.224  1.00  0.00     0.034 C 
ENDBRANCH  12  15
ENDBRANCH  11  12
ENDBRANCH   6  11
ENDBRANCH   1   5
BRANCH   2  17
HETATM   17  C   UNL     1       6.046  32.205  60.751  1.00  0.00     0.067 A 
HETATM   18  C   UNL     1       6.560  32.496  62.054  1.00  0.00     0.015 A 
HETATM   19  C   UNL     1       5.449  32.798  62.837  1.00  0.00     0.086 A 
HETATM   20  C   UNL     1       7.835  32.588  62.648  1.00  0.00     0.015 A 
HETATM   21  C   UNL     1       5.510  33.175  64.175  1.00  0.00     0.038 A 
HETATM   22  O   UNL     1       4.310  32.695  62.103  1.00  0.00    -0.321 OA
HETATM   23  C   UNL     1       6.784  33.260  64.742  1.00  0.00     0.003 A 
HETATM   24  C   UNL     1       7.928  32.973  63.994  1.00  0.00     0.001 A 
HETATM   25  C   UNL     1       4.677  32.357  60.844  1.00  0.00     0.160 A 
ENDBRANCH   2  17
TORSDOF 5
ENDMDL
MODEL 10
REMARK VINA RESULT:      -7.6      2.116      3.129
REMARK  5 active torsions:
REMARK  status: ('A' for Active; 'I' for Inactive)
REMARK    1  A    between atoms: C_2  and  N_3 
REMARK    2  A    between atoms: N_3  and  C_6 
REMARK    3  A    between atoms: C_6  and  C_7 
REMARK    4  A    between atoms: C_8  and  N_9 
REMARK       I    between atoms: N_9  and  C_10 
REMARK    5  A    between atoms: C_10  and  C_11 
ROOT
HETATM    1  N   UNL     1       6.124  24.834  53.410  1.00  0.00    -0.322 N 
HETATM    2  C   UNL     1       7.396  24.424  53.077  1.00  0.00     0.259 C 
HETATM    3  O   UNL     1       8.191  25.079  52.420  1.00  0.00    -0.267 OA
HETATM    4  H   UNL     1       5.682  24.244  54.113  1.00  0.00     0.169 HD
ENDROOT
BRANCH   1   5
HETATM    5  C   UNL     1       5.470  26.075  53.179  1.00  0.00     0.043 A 
HETATM    6  C   UNL     1       5.067  26.648  51.950  1.00  0.00    -0.006 A 
HETATM    7  C   UNL     1       4.482  27.939  51.971  1.00  0.00     0.011 A 
HETATM    8  C   UNL     1       4.255  28.629  53.159  1.00  0.00     0.001 A 
HETATM    9  C   UNL     1       4.601  28.042  54.362  1.00  0.00     0.002 A 
HETATM   10  C   UNL     1       5.196  26.781  54.370  1.00  0.00     0.030 A 
BRANCH   6  11
HETATM   11  C   UNL     1       5.144  26.010  50.582  1.00  0.00     0.273 C 
BRANCH  11  12
HETATM   12  N   UNL     1       3.971  26.351  49.727  1.00  0.00    -0.072 N 
HETATM   13  H   UNL     1       3.537  27.212  50.080  1.00  0.00     0.277 HD
HETATM   14  H   UNL     1       3.292  25.595  49.864  1.00  0.00     0.277 HD
BRANCH  12  15
HETATM   15  C   UNL     1       4.256  26.437  48.271  1.00  0.00     0.228 C 
HETATM   16  C   UNL     1       3.208  25.630  47.529  1.00  0.00     0.034 C 
ENDBRANCH  12  15
ENDBRANCH  11  12
ENDBRANCH   6  11
ENDBRANCH   1   5
BRANCH   2  17
HETATM   17  C   UNL     1       7.726  23.086  53.511  1.00  0.00     0.067 A 
HETATM   18  C   UNL     1       7.987  22.581  54.824  1.00  0.00     0.015 A 
HETATM   19  C   UNL     1       8.154  21.207  54.672  1.00  0.00     0.086 A 
HETATM   20  C   UNL     1       8.051  23.116  56.126  1.00  0.00     0.015 A 
HETATM   21  C   UNL     1       8.392  20.323  55.721  1.00  0.00     0.038 A 
HETATM   22  O   UNL     1       8.027  20.856  53.366  1.00  0.00    -0.321 OA
HETATM   23  C   UNL     1       8.450  20.877  57.002  1.00  0.00     0.003 A 
HETATM   24  C   UNL     1       8.283  22.248  57.204  1.00  0.00     0.001 A 
HETATM   25  C   UNL     1       7.750  21.988  52.674  1.00  0.00     0.160 A 
ENDBRANCH   2  17
TORSDOF 5
ENDMDL
