MODEL 1
REMARK VINA RESULT:     -10.0      0.000      0.000
REMARK  7 active torsions:
REMARK  status: ('A' for Active; 'I' for Inactive)
REMARK       I    between atoms: N_2  and  C_3 
REMARK    1  A    between atoms: N_2  and  C_24 
REMARK    2  A    between atoms: C_3  and  C_4 
REMARK    3  A    between atoms: C_7  and  N_8 
REMARK    4  A    between atoms: C_11  and  N_12 
REMARK       I    between atoms: N_12  and  C_13 
REMARK    5  A    between atoms: C_13  and  C_14 
REMARK    6  A    between atoms: C_24  and  C_25 
REMARK    7  A    between atoms: C_27  and  O_28 
ROOT
HETATM    1  C   UNL     1       6.551  28.085  54.415  1.00  0.00     0.032 A 
HETATM    2  C   UNL     1       5.625  28.570  55.346  1.00  0.00     0.019 A 
HETATM    3  C   UNL     1       6.056  29.183  56.522  1.00  0.00     0.032 A 
HETATM    4  C   UNL     1       7.427  29.339  56.776  1.00  0.00     0.058 A 
HETATM    5  C   UNL     1       8.358  28.803  55.874  1.00  0.00     0.032 A 
HETATM    6  C   UNL     1       7.916  28.153  54.709  1.00  0.00     0.019 A 
ENDROOT
BRANCH   4   7
HETATM    7  N   UNL     1       7.828  30.076  57.927  1.00  0.00    -0.243 N 
HETATM    8  N   UNL     1       9.003  29.796  58.544  1.00  0.00    -0.178 NA
HETATM    9  C   UNL     1       8.995  30.543  59.648  1.00  0.00     0.170 A 
HETATM   10  C   UNL     1       7.827  31.319  59.763  1.00  0.00     0.071 A 
HETATM   11  C   UNL     1       7.123  31.050  58.610  1.00  0.00     0.149 A 
BRANCH  10  12
HETATM   12  N   UNL     1       7.386  32.154  60.776  1.00  0.00    -0.324 N 
HETATM   13  C   UNL     1       7.460  31.821  62.120  1.00  0.00     0.228 C 
HETATM   14  O   UNL     1       7.989  30.809  62.569  1.00  0.00    -0.273 OA
HETATM   15  H   UNL     1       6.905  32.997  60.497  1.00  0.00     0.169 HD
BRANCH  13  16
HETATM   16  C   UNL     1       6.729  32.806  63.012  1.00  0.00     0.104 C 
HETATM   17  C   UNL     1       5.361  32.306  63.445  1.00  0.00     0.181 C 
HETATM   18  O   UNL     1       5.059  32.954  64.691  1.00  0.00    -0.390 OA
HETATM   19  C   UNL     1       6.251  33.569  65.187  1.00  0.00     0.168 C 
HETATM   20  C   UNL     1       7.398  33.053  64.346  1.00  0.00     0.042 C 
ENDBRANCH  13  16
ENDBRANCH  10  12
ENDBRANCH   4   7
BRANCH   1  21
HETATM   21  C   UNL     1       5.984  27.483  53.181  1.00  0.00     0.253 C 
HETATM   22  N   UNL     1       5.646  26.129  53.128  1.00  0.00    -0.348 N 
HETATM   23  C   UNL     1       5.377  25.543  51.820  1.00  0.00     0.153 C 
HETATM   24  O   UNL     1       5.927  28.215  52.193  1.00  0.00    -0.267 OA
BRANCH  22  25
HETATM   25  C   UNL     1       5.457  25.241  54.277  1.00  0.00     0.164 C 
BRANCH  25  26
HETATM   26  C   UNL     1       6.699  24.461  54.674  1.00  0.00    -0.038 A 
HETATM   27  C   UNL     1       7.261  23.452  53.868  1.00  0.00     0.045 A 
HETATM   28  C   UNL     1       8.424  22.781  54.250  1.00  0.00     0.068 A 
HETATM   29  C   UNL     1       9.017  23.091  55.473  1.00  0.00     0.037 A 
HETATM   30  C   UNL     1       8.469  24.073  56.296  1.00  0.00     0.003 A 
HETATM   31  C   UNL     1       7.319  24.757  55.898  1.00  0.00     0.009 A 
BRANCH  28  32
HETATM   32  O   UNL     1       9.062  21.812  53.525  1.00  0.00    -0.356 OA
HETATM   33  C   UNL     1       8.275  20.699  53.113  1.00  0.00     0.210 C 
ENDBRANCH  28  32
ENDBRANCH  25  26
ENDBRANCH  22  25
ENDBRANCH   1  21
TORSDOF 7
ENDMDL
MODEL 2
REMARK VINA RESULT:      -9.8      1.159      1.608
REMARK  7 active torsions:
REMARK  status: ('A' for Active; 'I' for Inactive)
REMARK       I    between atoms: N_2  and  C_3 
REMARK    1  A    between atoms: N_2  and  C_24 
REMARK    2  A    between atoms: C_3  and  C_4 
REMARK    3  A    between atoms: C_7  and  N_8 
REMARK    4  A    between atoms: C_11  and  N_12 
REMARK       I    between atoms: N_12  and  C_13 
REMARK    5  A    between atoms: C_13  and  C_14 
REMARK    6  A    between atoms: C_24  and  C_25 
REMARK    7  A    between atoms: C_27  and  O_28 
ROOT
HETATM    1  C   UNL     1       6.290  27.670  54.724  1.00  0.00     0.032 A 
HETATM    2  C   UNL     1       5.622  27.716  55.954  1.00  0.00     0.019 A 
HETATM    3  C   UNL     1       6.167  28.415  57.031  1.00  0.00     0.032 A 
HETATM    4  C   UNL     1       7.384  29.097  56.888  1.00  0.00     0.058 A 
HETATM    5  C   UNL     1       8.085  29.005  55.677  1.00  0.00     0.032 A 
HETATM    6  C   UNL     1       7.548  28.269  54.607  1.00  0.00     0.019 A 
ENDROOT
BRANCH   4   7
HETATM    7  N   UNL     1       7.849  29.897  57.971  1.00  0.00    -0.243 N 
HETATM    8  N   UNL     1       9.067  29.665  58.520  1.00  0.00    -0.178 NA
HETATM    9  C   UNL     1       9.121  30.468  59.584  1.00  0.00     0.170 A 
HETATM   10  C   UNL     1       7.950  31.232  59.739  1.00  0.00     0.071 A 
HETATM   11  C   UNL     1       7.175  30.895  58.652  1.00  0.00     0.149 A 
BRANCH  10  12
HETATM   12  N   UNL     1       7.564  32.110  60.737  1.00  0.00    -0.324 N 
HETATM   13  C   UNL     1       7.609  31.795  62.086  1.00  0.00     0.228 C 
HETATM   14  O   UNL     1       8.065  30.755  62.553  1.00  0.00    -0.273 OA
HETATM   15  H   UNL     1       7.143  32.980  60.442  1.00  0.00     0.169 HD
BRANCH  13  16
HETATM   16  C   UNL     1       6.944  32.841  62.959  1.00  0.00     0.104 C 
HETATM   17  C   UNL     1       5.562  32.423  63.431  1.00  0.00     0.181 C 
HETATM   18  O   UNL     1       5.316  33.123  64.662  1.00  0.00    -0.390 OA
HETATM   19  C   UNL     1       6.546  33.693  65.117  1.00  0.00     0.168 C 
HETATM   20  C   UNL     1       7.649  33.095  64.273  1.00  0.00     0.042 C 
ENDBRANCH  13  16
ENDBRANCH  10  12
ENDBRANCH   4   7
BRANCH   1  21
HETATM   21  C   UNL     1       5.604  26.931  53.635  1.00  0.00     0.253 C 
HETATM   22  N   UNL     1       6.326  26.162  52.719  1.00  0.00    -0.348 N 
HETATM   23  C   UNL     1       5.638  25.708  51.516  1.00  0.00     0.153 C 
HETATM   24  O   UNL     1       4.392  27.116  53.528  1.00  0.00    -0.267 OA
BRANCH  22  25
HETATM   25  C   UNL     1       7.704  25.694  52.882  1.00  0.00     0.164 C 
BRANCH  25  26
HETATM   26  C   UNL     1       7.823  24.310  53.498  1.00  0.00    -0.038 A 
HETATM   27  C   UNL     1       7.962  24.098  54.884  1.00  0.00     0.045 A 
HETATM   28  C   UNL     1       8.033  22.809  55.418  1.00  0.00     0.068 A 
HETATM   29  C   UNL     1       8.006  21.714  54.556  1.00  0.00     0.037 A 
HETATM   30  C   UNL     1       7.888  21.900  53.179  1.00  0.00     0.003 A 
HETATM   31  C   UNL     1       7.793  23.189  52.654  1.00  0.00     0.009 A 
BRANCH  28  32
HETATM   32  O   UNL     1       8.136  22.500  56.746  1.00  0.00    -0.356 OA
HETATM   33  C   UNL     1       8.457  21.150  57.066  1.00  0.00     0.210 C 
ENDBRANCH  28  32
ENDBRANCH  25  26
ENDBRANCH  22  25
ENDBRANCH   1  21
TORSDOF 7
ENDMDL
MODEL 3
REMARK VINA RESULT:      -9.3      2.347     10.821
REMARK  7 active torsions:
REMARK  status: ('A' for Active; 'I' for Inactive)
REMARK       I    between atoms: N_2  and  C_3 
REMARK    1  A    between atoms: N_2  and  C_24 
REMARK    2  A    between atoms: C_3  and  C_4 
REMARK    3  A    between atoms: C_7  and  N_8 
REMARK    4  A    between atoms: C_11  and  N_12 
REMARK       I    between atoms: N_12  and  C_13 
REMARK    5  A    between atoms: C_13  and  C_14 
REMARK    6  A    between atoms: C_24  and  C_25 
REMARK    7  A    between atoms: C_27  and  O_28 
ROOT
HETATM    1  C   UNL     1       5.541  31.429  58.043  1.00  0.00     0.032 A 
HETATM    2  C   UNL     1       4.469  30.787  57.413  1.00  0.00     0.019 A 
HETATM    3  C   UNL     1       4.595  29.472  56.964  1.00  0.00     0.032 A 
HETATM    4  C   UNL     1       5.794  28.771  57.157  1.00  0.00     0.058 A 
HETATM    5  C   UNL     1       6.889  29.430  57.735  1.00  0.00     0.032 A 
HETATM    6  C   UNL     1       6.768  30.766  58.152  1.00  0.00     0.019 A 
ENDROOT
BRANCH   4   7
HETATM    7  N   UNL     1       5.845  27.394  56.795  1.00  0.00    -0.243 N 
HETATM    8  N   UNL     1       4.859  26.547  57.181  1.00  0.00    -0.178 NA
HETATM    9  C   UNL     1       5.286  25.338  56.819  1.00  0.00     0.170 A 
HETATM   10  C   UNL     1       6.545  25.379  56.192  1.00  0.00     0.071 A 
HETATM   11  C   UNL     1       6.852  26.720  56.129  1.00  0.00     0.149 A 
BRANCH  10  12
HETATM   12  N   UNL     1       7.372  24.361  55.745  1.00  0.00    -0.324 N 
HETATM   13  C   UNL     1       7.228  23.754  54.508  1.00  0.00     0.228 C 
HETATM   14  O   UNL     1       6.424  24.093  53.644  1.00  0.00    -0.273 OA
HETATM   15  H   UNL     1       8.043  23.995  56.406  1.00  0.00     0.169 HD
BRANCH  13  16
HETATM   16  C   UNL     1       8.119  22.539  54.340  1.00  0.00     0.104 C 
HETATM   17  C   UNL     1       7.792  21.429  55.324  1.00  0.00     0.181 C 
HETATM   18  O   UNL     1       8.210  20.197  54.713  1.00  0.00    -0.390 OA
HETATM   19  C   UNL     1       8.485  20.444  53.330  1.00  0.00     0.168 C 
HETATM   20  C   UNL     1       7.959  21.827  53.016  1.00  0.00     0.042 C 
ENDBRANCH  13  16
ENDBRANCH  10  12
ENDBRANCH   4   7
BRANCH   1  21
HETATM   21  C   UNL     1       5.288  32.814  58.515  1.00  0.00     0.253 C 
HETATM   22  N   UNL     1       4.791  33.061  59.796  1.00  0.00    -0.348 N 
HETATM   23  C   UNL     1       4.293  34.400  60.090  1.00  0.00     0.153 C 
HETATM   24  O   UNL     1       5.443  33.710  57.685  1.00  0.00    -0.267 OA
BRANCH  22  25
HETATM   25  C   UNL     1       4.791  32.119  60.918  1.00  0.00     0.164 C 
BRANCH  25  26
HETATM   26  C   UNL     1       5.858  32.395  61.964  1.00  0.00    -0.038 A 
HETATM   27  C   UNL     1       5.561  32.896  63.248  1.00  0.00     0.045 A 
HETATM   28  C   UNL     1       6.566  33.103  64.195  1.00  0.00     0.068 A 
HETATM   29  C   UNL     1       7.891  32.847  63.849  1.00  0.00     0.037 A 
HETATM   30  C   UNL     1       8.210  32.369  62.579  1.00  0.00     0.003 A 
HETATM   31  C   UNL     1       7.200  32.140  61.643  1.00  0.00     0.009 A 
BRANCH  28  32
HETATM   32  O   UNL     1       6.377  33.553  65.473  1.00  0.00    -0.356 OA
HETATM   33  C   UNL     1       5.183  34.289  65.722  1.00  0.00     0.210 C 
ENDBRANCH  28  32
ENDBRANCH  25  26
ENDBRANCH  22  25
ENDBRANCH   1  21
TORSDOF 7
ENDMDL
MODEL 4
REMARK VINA RESULT:      -9.0      2.297     10.810
REMARK  7 active torsions:
REMARK  status: ('A' for Active; 'I' for Inactive)
REMARK       I    between atoms: N_2  and  C_3 
REMARK    1  A    between atoms: N_2  and  C_24 
REMARK    2  A    between atoms: C_3  and  C_4 
REMARK    3  A    between atoms: C_7  and  N_8 
REMARK    4  A    between atoms: C_11  and  N_12 
REMARK       I    between atoms: N_12  and  C_13 
REMARK    5  A    between atoms: C_13  and  C_14 
REMARK    6  A    between atoms: C_24  and  C_25 
REMARK    7  A    between atoms: C_27  and  O_28 
ROOT
HETATM    1  C   UNL     1       4.955  32.440  59.335  1.00  0.00     0.032 A 
HETATM    2  C   UNL     1       4.230  31.520  58.567  1.00  0.00     0.019 A 
HETATM    3  C   UNL     1       4.889  30.535  57.833  1.00  0.00     0.032 A 
HETATM    4  C   UNL     1       6.288  30.443  57.869  1.00  0.00     0.058 A 
HETATM    5  C   UNL     1       7.021  31.397  58.589  1.00  0.00     0.032 A 
HETATM    6  C   UNL     1       6.353  32.410  59.299  1.00  0.00     0.019 A 
ENDROOT
BRANCH   4   7
HETATM    7  N   UNL     1       6.917  29.352  57.203  1.00  0.00    -0.243 N 
HETATM    8  N   UNL     1       7.985  29.567  56.395  1.00  0.00    -0.178 NA
HETATM    9  C   UNL     1       8.224  28.387  55.823  1.00  0.00     0.170 A 
HETATM   10  C   UNL     1       7.326  27.392  56.250  1.00  0.00     0.071 A 
HETATM   11  C   UNL     1       6.538  28.022  57.188  1.00  0.00     0.149 A 
BRANCH  10  12
HETATM   12  N   UNL     1       7.171  26.075  55.851  1.00  0.00    -0.324 N 
HETATM   13  C   UNL     1       7.775  25.008  56.499  1.00  0.00     0.228 C 
HETATM   14  O   UNL     1       8.435  25.092  57.530  1.00  0.00    -0.273 OA
HETATM   15  H   UNL     1       6.668  25.915  54.989  1.00  0.00     0.169 HD
BRANCH  13  16
HETATM   16  C   UNL     1       7.617  23.699  55.752  1.00  0.00     0.104 C 
HETATM   17  C   UNL     1       6.862  23.855  54.442  1.00  0.00     0.181 C 
HETATM   18  O   UNL     1       7.297  22.788  53.584  1.00  0.00    -0.390 OA
HETATM   19  C   UNL     1       8.460  22.184  54.158  1.00  0.00     0.168 C 
HETATM   20  C   UNL     1       8.919  23.090  55.281  1.00  0.00     0.042 C 
ENDBRANCH  13  16
ENDBRANCH  10  12
ENDBRANCH   4   7
BRANCH   1  21
HETATM   21  C   UNL     1       4.154  33.423  60.107  1.00  0.00     0.253 C 
HETATM   22  N   UNL     1       3.753  33.156  61.418  1.00  0.00    -0.348 N 
HETATM   23  C   UNL     1       2.736  34.017  62.010  1.00  0.00     0.153 C 
HETATM   24  O   UNL     1       3.784  34.425  59.497  1.00  0.00    -0.267 OA
BRANCH  22  25
HETATM   25  C   UNL     1       4.315  32.131  62.301  1.00  0.00     0.164 C 
BRANCH  25  26
HETATM   26  C   UNL     1       5.375  32.647  63.260  1.00  0.00    -0.038 A 
HETATM   27  C   UNL     1       5.063  33.279  64.480  1.00  0.00     0.045 A 
HETATM   28  C   UNL     1       6.066  33.708  65.352  1.00  0.00     0.068 A 
HETATM   29  C   UNL     1       7.401  33.542  64.987  1.00  0.00     0.037 A 
HETATM   30  C   UNL     1       7.734  32.936  63.776  1.00  0.00     0.003 A 
HETATM   31  C   UNL     1       6.728  32.487  62.920  1.00  0.00     0.009 A 
BRANCH  28  32
HETATM   32  O   UNL     1       5.866  34.300  66.568  1.00  0.00    -0.356 OA
HETATM   33  C   UNL     1       4.599  34.089  67.182  1.00  0.00     0.210 C 
ENDBRANCH  28  32
ENDBRANCH  25  26
ENDBRANCH  22  25
ENDBRANCH   1  21
TORSDOF 7
ENDMDL
MODEL 5
REMARK VINA RESULT:      -8.8      3.156      4.955
REMARK  7 active torsions:
REMARK  status: ('A' for Active; 'I' for Inactive)
REMARK       I    between atoms: N_2  and  C_3 
REMARK    1  A    between atoms: N_2  and  C_24 
REMARK    2  A    between atoms: C_3  and  C_4 
REMARK    3  A    between atoms: C_7  and  N_8 
REMARK    4  A    between atoms: C_11  and  N_12 
REMARK       I    between atoms: N_12  and  C_13 
REMARK    5  A    between atoms: C_13  and  C_14 
REMARK    6  A    between atoms: C_24  and  C_25 
REMARK    7  A    between atoms: C_27  and  O_28 
ROOT
HETATM    1  C   UNL     1       7.828  23.813  56.256  1.00  0.00     0.032 A 
HETATM    2  C   UNL     1       6.539  24.354  56.335  1.00  0.00     0.019 A 
HETATM    3  C   UNL     1       6.345  25.660  56.784  1.00  0.00     0.032 A 
HETATM    4  C   UNL     1       7.443  26.454  57.145  1.00  0.00     0.058 A 
HETATM    5  C   UNL     1       8.730  25.897  57.124  1.00  0.00     0.032 A 
HETATM    6  C   UNL     1       8.916  24.568  56.705  1.00  0.00     0.019 A 
ENDROOT
BRANCH   4   7
HETATM    7  N   UNL     1       7.216  27.819  57.484  1.00  0.00    -0.243 N 
HETATM    8  N   UNL     1       8.189  28.546  58.088  1.00  0.00    -0.178 NA
HETATM    9  C   UNL     1       7.608  29.704  58.399  1.00  0.00     0.170 A 
HETATM   10  C   UNL     1       6.259  29.751  58.001  1.00  0.00     0.071 A 
HETATM   11  C   UNL     1       6.050  28.552  57.356  1.00  0.00     0.149 A 
BRANCH  10  12
HETATM   12  N   UNL     1       5.285  30.715  58.202  1.00  0.00    -0.324 N 
HETATM   13  C   UNL     1       4.903  31.623  57.226  1.00  0.00     0.228 C 
HETATM   14  O   UNL     1       5.310  31.627  56.068  1.00  0.00    -0.273 OA
HETATM   15  H   UNL     1       4.917  30.805  59.139  1.00  0.00     0.169 HD
BRANCH  13  16
HETATM   16  C   UNL     1       3.973  32.698  57.753  1.00  0.00     0.104 C 
HETATM   17  C   UNL     1       3.662  32.535  59.231  1.00  0.00     0.181 C 
HETATM   18  O   UNL     1       3.338  33.842  59.732  1.00  0.00    -0.390 OA
HETATM   19  C   UNL     1       3.716  34.813  58.753  1.00  0.00     0.168 C 
HETATM   20  C   UNL     1       4.552  34.094  57.717  1.00  0.00     0.042 C 
ENDBRANCH  13  16
ENDBRANCH  10  12
ENDBRANCH   4   7
BRANCH   1  21
HETATM   21  C   UNL     1       7.925  22.428  55.730  1.00  0.00     0.253 C 
HETATM   22  N   UNL     1       8.023  22.182  54.359  1.00  0.00    -0.348 N 
HETATM   23  C   UNL     1       7.819  20.815  53.893  1.00  0.00     0.153 C 
HETATM   24  O   UNL     1       7.811  21.521  56.555  1.00  0.00    -0.267 OA
BRANCH  22  25
HETATM   25  C   UNL     1       8.391  23.158  53.331  1.00  0.00     0.164 C 
BRANCH  25  26
HETATM   26  C   UNL     1       7.346  24.235  53.090  1.00  0.00    -0.038 A 
HETATM   27  C   UNL     1       7.627  25.612  53.190  1.00  0.00     0.045 A 
HETATM   28  C   UNL     1       6.648  26.573  52.926  1.00  0.00     0.068 A 
HETATM   29  C   UNL     1       5.359  26.158  52.597  1.00  0.00     0.037 A 
HETATM   30  C   UNL     1       5.053  24.800  52.510  1.00  0.00     0.003 A 
HETATM   31  C   UNL     1       6.041  23.844  52.751  1.00  0.00     0.009 A 
BRANCH  28  32
HETATM   32  O   UNL     1       6.830  27.928  52.965  1.00  0.00    -0.356 OA
HETATM   33  C   UNL     1       5.654  28.731  52.971  1.00  0.00     0.210 C 
ENDBRANCH  28  32
ENDBRANCH  25  26
ENDBRANCH  22  25
ENDBRANCH   1  21
TORSDOF 7
ENDMDL
MODEL 6
REMARK VINA RESULT:      -8.7      5.332     10.567
REMARK  7 active torsions:
REMARK  status: ('A' for Active; 'I' for Inactive)
REMARK       I    between atoms: N_2  and  C_3 
REMARK    1  A    between atoms: N_2  and  C_24 
REMARK    2  A    between atoms: C_3  and  C_4 
REMARK    3  A    between atoms: C_7  and  N_8 
REMARK    4  A    between atoms: C_11  and  N_12 
REMARK       I    between atoms: N_12  and  C_13 
REMARK    5  A    between atoms: C_13  and  C_14 
REMARK    6  A    between atoms: C_24  and  C_25 
REMARK    7  A    between atoms: C_27  and  O_28 
ROOT
HETATM    1  C   UNL     1       5.424  26.938  54.023  1.00  0.00     0.032 A 
HETATM    2  C   UNL     1       5.733  28.185  53.468  1.00  0.00     0.019 A 
HETATM    3  C   UNL     1       5.539  28.423  52.108  1.00  0.00     0.032 A 
HETATM    4  C   UNL     1       5.013  27.419  51.282  1.00  0.00     0.058 A 
HETATM    5  C   UNL     1       4.757  26.150  51.822  1.00  0.00     0.032 A 
HETATM    6  C   UNL     1       4.989  25.905  53.186  1.00  0.00     0.019 A 
ENDROOT
BRANCH   4   7
HETATM    7  N   UNL     1       4.717  27.737  49.925  1.00  0.00    -0.243 N 
HETATM    8  N   UNL     1       5.623  28.401  49.165  1.00  0.00    -0.178 NA
HETATM    9  C   UNL     1       4.982  28.668  48.026  1.00  0.00     0.170 A 
HETATM   10  C   UNL     1       3.662  28.182  48.027  1.00  0.00     0.071 A 
HETATM   11  C   UNL     1       3.538  27.529  49.233  1.00  0.00     0.149 A 
BRANCH  10  12
HETATM   12  N   UNL     1       2.644  28.314  47.097  1.00  0.00    -0.324 N 
HETATM   13  C   UNL     1       1.650  29.275  47.191  1.00  0.00     0.228 C 
HETATM   14  O   UNL     1       1.600  30.158  48.041  1.00  0.00    -0.273 OA
HETATM   15  H   UNL     1       2.588  27.606  46.378  1.00  0.00     0.169 HD
BRANCH  13  16
HETATM   16  C   UNL     1       0.545  29.082  46.170  1.00  0.00     0.104 C 
HETATM   17  C   UNL     1      -0.025  27.674  46.178  1.00  0.00     0.181 C 
HETATM   18  O   UNL     1      -1.371  27.770  45.686  1.00  0.00    -0.390 OA
HETATM   19  C   UNL     1      -1.753  29.148  45.665  1.00  0.00     0.168 C 
HETATM   20  C   UNL     1      -0.692  29.912  46.427  1.00  0.00     0.042 C 
ENDBRANCH  13  16
ENDBRANCH  10  12
ENDBRANCH   4   7
BRANCH   1  21
HETATM   21  C   UNL     1       5.633  26.803  55.487  1.00  0.00     0.253 C 
HETATM   22  N   UNL     1       6.719  26.088  55.998  1.00  0.00    -0.348 N 
HETATM   23  C   UNL     1       6.706  25.747  57.416  1.00  0.00     0.153 C 
HETATM   24  O   UNL     1       4.750  27.265  56.210  1.00  0.00    -0.267 OA
BRANCH  22  25
HETATM   25  C   UNL     1       7.925  25.705  55.261  1.00  0.00     0.164 C 
BRANCH  25  26
HETATM   26  C   UNL     1       7.890  24.294  54.697  1.00  0.00    -0.038 A 
HETATM   27  C   UNL     1       7.810  23.146  55.510  1.00  0.00     0.045 A 
HETATM   28  C   UNL     1       7.745  21.867  54.954  1.00  0.00     0.068 A 
HETATM   29  C   UNL     1       7.799  21.724  53.568  1.00  0.00     0.037 A 
HETATM   30  C   UNL     1       7.897  22.845  52.745  1.00  0.00     0.003 A 
HETATM   31  C   UNL     1       7.938  24.122  53.305  1.00  0.00     0.009 A 
BRANCH  28  32
HETATM   32  O   UNL     1       7.634  20.697  55.654  1.00  0.00    -0.356 OA
HETATM   33  C   UNL     1       8.849  20.087  56.077  1.00  0.00     0.210 C 
ENDBRANCH  28  32
ENDBRANCH  25  26
ENDBRANCH  22  25
ENDBRANCH   1  21
TORSDOF 7
ENDMDL
MODEL 7
REMARK VINA RESULT:      -8.6      1.930      3.976
REMARK  7 active torsions:
REMARK  status: ('A' for Active; 'I' for Inactive)
REMARK       I    between atoms: N_2  and  C_3 
REMARK    1  A    between atoms: N_2  and  C_24 
REMARK    2  A    between atoms: C_3  and  C_4 
REMARK    3  A    between atoms: C_7  and  N_8 
REMARK    4  A    between atoms: C_11  and  N_12 
REMARK       I    between atoms: N_12  and  C_13 
REMARK    5  A    between atoms: C_13  and  C_14 
REMARK    6  A    between atoms: C_24  and  C_25 
REMARK    7  A    between atoms: C_27  and  O_28 
ROOT
HETATM    1  C   UNL     1       7.009  27.136  56.416  1.00  0.00     0.032 A 
HETATM    2  C   UNL     1       8.316  27.498  56.762  1.00  0.00     0.019 A 
HETATM    3  C   UNL     1       8.562  28.673  57.472  1.00  0.00     0.032 A 
HETATM    4  C   UNL     1       7.497  29.497  57.865  1.00  0.00     0.058 A 
HETATM    5  C   UNL     1       6.192  29.168  57.471  1.00  0.00     0.032 A 
HETATM    6  C   UNL     1       5.955  28.002  56.723  1.00  0.00     0.019 A 
ENDROOT
BRANCH   4   7
HETATM    7  N   UNL     1       7.776  30.624  58.691  1.00  0.00    -0.243 N 
HETATM    8  N   UNL     1       9.031  31.135  58.750  1.00  0.00    -0.178 NA
HETATM    9  C   UNL     1       8.978  32.059  59.711  1.00  0.00     0.170 A 
HETATM   10  C   UNL     1       7.698  32.165  60.284  1.00  0.00     0.071 A 
HETATM   11  C   UNL     1       6.927  31.278  59.565  1.00  0.00     0.149 A 
BRANCH  10  12
HETATM   12  N   UNL     1       7.237  32.924  61.346  1.00  0.00    -0.324 N 
HETATM   13  C   UNL     1       7.437  32.574  62.673  1.00  0.00     0.228 C 
HETATM   14  O   UNL     1       8.102  31.617  63.057  1.00  0.00    -0.273 OA
HETATM   15  H   UNL     1       6.649  33.715  61.122  1.00  0.00     0.169 HD
BRANCH  13  16
HETATM   16  C   UNL     1       6.665  33.452  63.637  1.00  0.00     0.104 C 
HETATM   17  C   UNL     1       5.285  32.903  63.958  1.00  0.00     0.181 C 
HETATM   18  O   UNL     1       4.930  33.410  65.255  1.00  0.00    -0.390 OA
HETATM   19  C   UNL     1       6.097  33.972  65.862  1.00  0.00     0.168 C 
HETATM   20  C   UNL     1       7.279  33.554  65.015  1.00  0.00     0.042 C 
ENDBRANCH  13  16
ENDBRANCH  10  12
ENDBRANCH   4   7
BRANCH   1  21
HETATM   21  C   UNL     1       6.856  25.848  55.693  1.00  0.00     0.253 C 
HETATM   22  N   UNL     1       6.694  25.814  54.306  1.00  0.00    -0.348 N 
HETATM   23  C   UNL     1       6.260  24.561  53.699  1.00  0.00     0.153 C 
HETATM   24  O   UNL     1       6.779  24.836  56.390  1.00  0.00    -0.267 OA
BRANCH  22  25
HETATM   25  C   UNL     1       6.994  26.904  53.375  1.00  0.00     0.164 C 
BRANCH  25  26
HETATM   26  C   UNL     1       5.769  27.526  52.727  1.00  0.00    -0.038 A 
HETATM   27  C   UNL     1       5.459  27.365  51.362  1.00  0.00     0.045 A 
HETATM   28  C   UNL     1       4.304  27.923  50.809  1.00  0.00     0.068 A 
HETATM   29  C   UNL     1       3.464  28.687  51.618  1.00  0.00     0.037 A 
HETATM   30  C   UNL     1       3.760  28.875  52.967  1.00  0.00     0.003 A 
HETATM   31  C   UNL     1       4.903  28.295  53.520  1.00  0.00     0.009 A 
BRANCH  28  32
HETATM   32  O   UNL     1       3.900  27.798  49.508  1.00  0.00    -0.356 OA
HETATM   33  C   UNL     1       4.490  26.743  48.755  1.00  0.00     0.210 C 
ENDBRANCH  28  32
ENDBRANCH  25  26
ENDBRANCH  22  25
ENDBRANCH   1  21
TORSDOF 7
ENDMDL
MODEL 8
REMARK VINA RESULT:      -8.6      2.304     10.154
REMARK  7 active torsions:
REMARK  status: ('A' for Active; 'I' for Inactive)
REMARK       I    between atoms: N_2  and  C_3 
REMARK    1  A    between atoms: N_2  and  C_24 
REMARK    2  A    between atoms: C_3  and  C_4 
REMARK    3  A    between atoms: C_7  and  N_8 
REMARK    4  A    between atoms: C_11  and  N_12 
REMARK       I    between atoms: N_12  and  C_13 
REMARK    5  A    between atoms: C_13  and  C_14 
REMARK    6  A    between atoms: C_24  and  C_25 
REMARK    7  A    between atoms: C_27  and  O_28 
ROOT
HETATM    1  C   UNL     1       4.697  32.438  59.052  1.00  0.00     0.032 A 
HETATM    2  C   UNL     1       6.092  32.343  58.971  1.00  0.00     0.019 A 
HETATM    3  C   UNL     1       6.692  31.276  58.303  1.00  0.00     0.032 A 
HETATM    4  C   UNL     1       5.902  30.294  57.687  1.00  0.00     0.058 A 
HETATM    5  C   UNL     1       4.507  30.354  57.816  1.00  0.00     0.032 A 
HETATM    6  C   UNL     1       3.909  31.412  58.521  1.00  0.00     0.019 A 
ENDROOT
BRANCH   4   7
HETATM    7  N   UNL     1       6.548  29.287  56.914  1.00  0.00    -0.243 N 
HETATM    8  N   UNL     1       7.765  29.521  56.364  1.00  0.00    -0.178 NA
HETATM    9  C   UNL     1       8.003  28.458  55.596  1.00  0.00     0.170 A 
HETATM   10  C   UNL     1       6.955  27.521  55.636  1.00  0.00     0.071 A 
HETATM   11  C   UNL     1       6.061  28.046  56.543  1.00  0.00     0.149 A 
BRANCH  10  12
HETATM   12  N   UNL     1       6.762  26.341  54.937  1.00  0.00    -0.324 N 
HETATM   13  C   UNL     1       6.961  25.087  55.494  1.00  0.00     0.228 C 
HETATM   14  O   UNL     1       7.242  24.874  56.670  1.00  0.00    -0.273 OA
HETATM   15  H   UNL     1       6.560  26.422  53.950  1.00  0.00     0.169 HD
BRANCH  13  16
HETATM   16  C   UNL     1       6.883  23.969  54.473  1.00  0.00     0.104 C 
HETATM   17  C   UNL     1       7.609  24.301  53.180  1.00  0.00     0.181 C 
HETATM   18  O   UNL     1       7.998  23.050  52.591  1.00  0.00    -0.390 OA
HETATM   19  C   UNL     1       7.829  22.015  53.563  1.00  0.00     0.168 C 
HETATM   20  C   UNL     1       7.578  22.694  54.892  1.00  0.00     0.042 C 
ENDBRANCH  13  16
ENDBRANCH  10  12
ENDBRANCH   4   7
BRANCH   1  21
HETATM   21  C   UNL     1       4.163  33.633  59.753  1.00  0.00     0.253 C 
HETATM   22  N   UNL     1       3.703  33.551  61.070  1.00  0.00    -0.348 N 
HETATM   23  C   UNL     1       2.929  34.671  61.594  1.00  0.00     0.153 C 
HETATM   24  O   UNL     1       4.056  34.659  59.081  1.00  0.00    -0.267 OA
BRANCH  22  25
HETATM   25  C   UNL     1       3.988  32.473  62.018  1.00  0.00     0.164 C 
BRANCH  25  26
HETATM   26  C   UNL     1       5.387  32.516  62.609  1.00  0.00    -0.038 A 
HETATM   27  C   UNL     1       6.379  31.563  62.302  1.00  0.00     0.045 A 
HETATM   28  C   UNL     1       7.665  31.656  62.838  1.00  0.00     0.068 A 
HETATM   29  C   UNL     1       7.959  32.690  63.725  1.00  0.00     0.037 A 
HETATM   30  C   UNL     1       6.988  33.634  64.058  1.00  0.00     0.003 A 
HETATM   31  C   UNL     1       5.712  33.550  63.501  1.00  0.00     0.009 A 
BRANCH  28  32
HETATM   32  O   UNL     1       8.702  30.803  62.576  1.00  0.00    -0.356 OA
HETATM   33  C   UNL     1       9.117  30.699  61.218  1.00  0.00     0.210 C 
ENDBRANCH  28  32
ENDBRANCH  25  26
ENDBRANCH  22  25
ENDBRANCH   1  21
TORSDOF 7
ENDMDL
MODEL 9
REMARK VINA RESULT:      -8.4      1.450      1.945
REMARK  7 active torsions:
REMARK  status: ('A' for Active; 'I' for Inactive)
REMARK       I    between atoms: N_2  and  C_3 
REMARK    1  A    between atoms: N_2  and  C_24 
REMARK    2  A    between atoms: C_3  and  C_4 
REMARK    3  A    between atoms: C_7  and  N_8 
REMARK    4  A    between atoms: C_11  and  N_12 
REMARK       I    between atoms: N_12  and  C_13 
REMARK    5  A    between atoms: C_13  and  C_14 
REMARK    6  A    between atoms: C_24  and  C_25 
REMARK    7  A    between atoms: C_27  and  O_28 
ROOT
HETATM    1  C   UNL     1       5.897  29.110  55.776  1.00  0.00     0.032 A 
HETATM    2  C   UNL     1       6.733  28.346  56.598  1.00  0.00     0.019 A 
HETATM    3  C   UNL     1       7.331  28.913  57.723  1.00  0.00     0.032 A 
HETATM    4  C   UNL     1       7.086  30.253  58.054  1.00  0.00     0.058 A 
HETATM    5  C   UNL     1       6.296  31.038  57.201  1.00  0.00     0.032 A 
HETATM    6  C   UNL     1       5.726  30.471  56.049  1.00  0.00     0.019 A 
ENDROOT
BRANCH   4   7
HETATM    7  N   UNL     1       7.617  30.763  59.274  1.00  0.00    -0.243 N 
HETATM    8  N   UNL     1       8.634  30.119  59.900  1.00  0.00    -0.178 NA
HETATM    9  C   UNL     1       8.779  30.757  61.061  1.00  0.00     0.170 A 
HETATM   10  C   UNL     1       7.870  31.821  61.206  1.00  0.00     0.071 A 
HETATM   11  C   UNL     1       7.179  31.845  60.015  1.00  0.00     0.149 A 
BRANCH  10  12
HETATM   12  N   UNL     1       7.628  32.671  62.272  1.00  0.00    -0.324 N 
HETATM   13  C   UNL     1       6.533  32.543  63.113  1.00  0.00     0.228 C 
HETATM   14  O   UNL     1       5.712  31.632  63.068  1.00  0.00    -0.273 OA
HETATM   15  H   UNL     1       8.237  33.473  62.364  1.00  0.00     0.169 HD
BRANCH  13  16
HETATM   16  C   UNL     1       6.384  33.710  64.068  1.00  0.00     0.104 C 
HETATM   17  C   UNL     1       5.984  34.998  63.368  1.00  0.00     0.181 C 
HETATM   18  O   UNL     1       5.296  35.802  64.340  1.00  0.00    -0.390 OA
HETATM   19  C   UNL     1       4.991  34.985  65.474  1.00  0.00     0.168 C 
HETATM   20  C   UNL     1       5.265  33.553  65.074  1.00  0.00     0.042 C 
ENDBRANCH  13  16
ENDBRANCH  10  12
ENDBRANCH   4   7
BRANCH   1  21
HETATM   21  C   UNL     1       5.282  28.399  54.626  1.00  0.00     0.253 C 
HETATM   22  N   UNL     1       6.056  27.620  53.762  1.00  0.00    -0.348 N 
HETATM   23  C   UNL     1       5.455  27.195  52.503  1.00  0.00     0.153 C 
HETATM   24  O   UNL     1       4.088  28.617  54.424  1.00  0.00    -0.267 OA
BRANCH  22  25
HETATM   25  C   UNL     1       7.403  27.114  54.030  1.00  0.00     0.164 C 
BRANCH  25  26
HETATM   26  C   UNL     1       7.465  25.620  54.304  1.00  0.00    -0.038 A 
HETATM   27  C   UNL     1       7.734  24.668  53.302  1.00  0.00     0.045 A 
HETATM   28  C   UNL     1       7.818  23.305  53.599  1.00  0.00     0.068 A 
HETATM   29  C   UNL     1       7.592  22.879  54.906  1.00  0.00     0.037 A 
HETATM   30  C   UNL     1       7.305  23.802  55.911  1.00  0.00     0.003 A 
HETATM   31  C   UNL     1       7.247  25.165  55.614  1.00  0.00     0.009 A 
BRANCH  28  32
HETATM   32  O   UNL     1       8.104  22.310  52.705  1.00  0.00    -0.356 OA
HETATM   33  C   UNL     1       7.859  20.975  53.135  1.00  0.00     0.210 C 
ENDBRANCH  28  32
ENDBRANCH  25  26
ENDBRANCH  22  25
ENDBRANCH   1  21
TORSDOF 7
ENDMDL
MODEL 10
REMARK VINA RESULT:      -8.3      2.702     10.012
REMARK  7 active torsions:
REMARK  status: ('A' for Active; 'I' for Inactive)
REMARK       I    between atoms: N_2  and  C_3 
REMARK    1  A    between atoms: N_2  and  C_24 
REMARK    2  A    between atoms: C_3  and  C_4 
REMARK    3  A    between atoms: C_7  and  N_8 
REMARK    4  A    between atoms: C_11  and  N_12 
REMARK       I    between atoms: N_12  and  C_13 
REMARK    5  A    between atoms: C_13  and  C_14 
REMARK    6  A    between atoms: C_24  and  C_25 
REMARK    7  A    between atoms: C_27  and  O_28 
ROOT
HETATM    1  C   UNL     1       5.084  31.109  56.322  1.00  0.00     0.032 A 
HETATM    2  C   UNL     1       4.043  30.309  55.836  1.00  0.00     0.019 A 
HETATM    3  C   UNL     1       4.217  28.933  55.688  1.00  0.00     0.032 A 
HETATM    4  C   UNL     1       5.434  28.333  56.042  1.00  0.00     0.058 A 
HETATM    5  C   UNL     1       6.498  29.138  56.473  1.00  0.00     0.032 A 
HETATM    6  C   UNL     1       6.328  30.529  56.586  1.00  0.00     0.019 A 
ENDROOT
BRANCH   4   7
HETATM    7  N   UNL     1       5.534  26.912  55.990  1.00  0.00    -0.243 N 
HETATM    8  N   UNL     1       5.024  26.153  56.992  1.00  0.00    -0.178 NA
HETATM    9  C   UNL     1       5.418  24.910  56.712  1.00  0.00     0.170 A 
HETATM   10  C   UNL     1       6.180  24.841  55.532  1.00  0.00     0.071 A 
HETATM   11  C   UNL     1       6.184  26.132  55.051  1.00  0.00     0.149 A 
BRANCH  10  12
HETATM   12  N   UNL     1       6.841  23.780  54.937  1.00  0.00    -0.324 N 
HETATM   13  C   UNL     1       8.120  23.385  55.296  1.00  0.00     0.228 C 
HETATM   14  O   UNL     1       8.773  23.861  56.220  1.00  0.00    -0.273 OA
HETATM   15  H   UNL     1       6.390  23.348  54.142  1.00  0.00     0.169 HD
BRANCH  13  16
HETATM   16  C   UNL     1       8.698  22.337  54.365  1.00  0.00     0.104 C 
HETATM   17  C   UNL     1       8.929  21.002  55.051  1.00  0.00     0.181 C 
HETATM   18  O   UNL     1       8.864  19.994  54.029  1.00  0.00    -0.390 OA
HETATM   19  C   UNL     1       8.321  20.581  52.842  1.00  0.00     0.168 C 
HETATM   20  C   UNL     1       7.781  21.940  53.230  1.00  0.00     0.042 C 
ENDBRANCH  13  16
ENDBRANCH  10  12
ENDBRANCH   4   7
BRANCH   1  21
HETATM   21  C   UNL     1       4.779  32.555  56.476  1.00  0.00     0.253 C 
HETATM   22  N   UNL     1       4.126  33.038  57.612  1.00  0.00    -0.348 N 
HETATM   23  C   UNL     1       3.601  34.398  57.572  1.00  0.00     0.153 C 
HETATM   24  O   UNL     1       5.042  33.274  55.511  1.00  0.00    -0.267 OA
BRANCH  22  25
HETATM   25  C   UNL     1       3.980  32.335  58.888  1.00  0.00     0.164 C 
BRANCH  25  26
HETATM   26  C   UNL     1       5.139  32.539  59.849  1.00  0.00    -0.038 A 
HETATM   27  C   UNL     1       6.340  31.807  59.769  1.00  0.00     0.045 A 
HETATM   28  C   UNL     1       7.397  32.048  60.650  1.00  0.00     0.068 A 
HETATM   29  C   UNL     1       7.244  33.006  61.650  1.00  0.00     0.037 A 
HETATM   30  C   UNL     1       6.058  33.730  61.760  1.00  0.00     0.003 A 
HETATM   31  C   UNL     1       5.013  33.502  60.863  1.00  0.00     0.009 A 
BRANCH  28  32
HETATM   32  O   UNL     1       8.610  31.415  60.633  1.00  0.00    -0.356 OA
HETATM   33  C   UNL     1       9.670  32.045  61.345  1.00  0.00     0.210 C 
ENDBRANCH  28  32
ENDBRANCH  25  26
ENDBRANCH  22  25
ENDBRANCH   1  21
TORSDOF 7
ENDMDL
