MODEL 1
REMARK VINA RESULT:      -9.9      0.000      0.000
REMARK  7 active torsions:
REMARK  status: ('A' for Active; 'I' for Inactive)
REMARK       I    between atoms: C_2  and  N_3 
REMARK    1  A    between atoms: N_3  and  C_4 
REMARK    2  A    between atoms: C_6  and  N_7 
REMARK       I    between atoms: N_7  and  C_8 
REMARK       I    between atoms: C_8  and  N_9 
REMARK    3  A    between atoms: N_9  and  C_10 
REMARK    4  A    between atoms: C_10  and  C_11 
REMARK    5  A    between atoms: C_11  and  C_12 
REMARK    6  A    between atoms: N_14  and  C_16 
REMARK    7  A    between atoms: C_16  and  C_17 
ROOT
HETATM    1  N   UNL     1       9.888  31.652  58.799  1.00  0.00    -0.309 N 
HETATM    2  C   UNL     1      10.040  30.574  57.986  1.00  0.00     0.320 C 
HETATM    3  N   UNL     1       8.939  29.816  57.738  1.00  0.00    -0.343 N 
HETATM    4  O   UNL     1      11.128  30.351  57.459  1.00  0.00    -0.247 OA
HETATM    5  H   UNL     1      10.667  32.298  58.724  1.00  0.00     0.170 HD
HETATM    6  H   UNL     1       8.044  30.265  57.888  1.00  0.00     0.164 HD
ENDROOT
BRANCH   3   7
HETATM    7  C   UNL     1       8.979  28.534  57.072  1.00  0.00     0.125 C 
BRANCH   7   8
HETATM    8  C   UNL     1       7.826  27.581  57.407  1.00  0.00     0.026 C 
BRANCH   8   9
HETATM    9  C   UNL     1       6.842  27.246  56.265  1.00  0.00     0.014 C 
HETATM   10  C   UNL     1       7.290  26.113  55.342  1.00  0.00     0.240 C 
HETATM   11  N   UNL     1       6.662  24.849  55.905  1.00  0.00    -0.067 N 
HETATM   12  H   UNL     1       6.089  24.463  55.144  1.00  0.00     0.280 HD
HETATM   13  C   UNL     1       5.738  25.250  57.023  1.00  0.00     0.235 C 
HETATM   14  C   UNL     1       5.504  26.732  56.793  1.00  0.00     0.034 C 
BRANCH  11  15
HETATM   15  C   UNL     1       7.641  23.765  56.275  1.00  0.00     0.273 C 
BRANCH  15  16
HETATM   16  C   UNL     1       7.727  22.671  55.245  1.00  0.00    -0.033 A 
HETATM   17  C   UNL     1       7.878  21.332  55.640  1.00  0.00     0.009 A 
HETATM   18  C   UNL     1       8.013  20.321  54.688  1.00  0.00     0.001 A 
HETATM   19  C   UNL     1       7.991  20.634  53.332  1.00  0.00     0.000 A 
HETATM   20  C   UNL     1       7.829  21.957  52.925  1.00  0.00     0.001 A 
HETATM   21  C   UNL     1       7.699  22.973  53.874  1.00  0.00     0.009 A 
ENDBRANCH  15  16
ENDBRANCH  11  15
ENDBRANCH   8   9
ENDBRANCH   7   8
ENDBRANCH   3   7
BRANCH   1  22
HETATM   22  C   UNL     1       9.014  31.887  59.880  1.00  0.00     0.038 A 
HETATM   23  C   UNL     1       7.619  31.972  59.757  1.00  0.00     0.059 A 
HETATM   24  C   UNL     1       6.805  32.126  60.885  1.00  0.00     0.036 A 
HETATM   25  C   UNL     1       7.402  32.146  62.150  1.00  0.00     0.029 A 
HETATM   26  C   UNL     1       8.786  32.053  62.286  1.00  0.00     0.004 A 
HETATM   27  C   UNL     1       9.587  31.924  61.155  1.00  0.00     0.029 A 
BRANCH  24  28
HETATM   28  N   UNL     1       5.400  32.192  60.855  1.00  0.00    -0.327 N 
HETATM   29  C   UNL     1       4.509  33.211  61.009  1.00  0.00     0.218 C 
HETATM   30  C   UNL     1       4.943  34.559  61.508  1.00  0.00     0.117 C 
HETATM   31  O   UNL     1       3.318  32.992  60.772  1.00  0.00    -0.274 OA
HETATM   32  H   UNL     1       4.914  31.317  60.686  1.00  0.00     0.169 HD
ENDBRANCH  24  28
ENDBRANCH   1  22
TORSDOF 7
ENDMDL
MODEL 2
REMARK VINA RESULT:      -9.5      2.098      3.238
REMARK  7 active torsions:
REMARK  status: ('A' for Active; 'I' for Inactive)
REMARK       I    between atoms: C_2  and  N_3 
REMARK    1  A    between atoms: N_3  and  C_4 
REMARK    2  A    between atoms: C_6  and  N_7 
REMARK       I    between atoms: N_7  and  C_8 
REMARK       I    between atoms: C_8  and  N_9 
REMARK    3  A    between atoms: N_9  and  C_10 
REMARK    4  A    between atoms: C_10  and  C_11 
REMARK    5  A    between atoms: C_11  and  C_12 
REMARK    6  A    between atoms: N_14  and  C_16 
REMARK    7  A    between atoms: C_16  and  C_17 
ROOT
HETATM    1  N   UNL     1       9.096  28.199  57.311  1.00  0.00    -0.309 N 
HETATM    2  C   UNL     1       8.158  27.425  56.705  1.00  0.00     0.320 C 
HETATM    3  N   UNL     1       7.118  28.058  56.100  1.00  0.00    -0.343 N 
HETATM    4  O   UNL     1       8.301  26.205  56.666  1.00  0.00    -0.247 OA
HETATM    5  H   UNL     1       9.949  27.684  57.501  1.00  0.00     0.170 HD
HETATM    6  H   UNL     1       7.268  29.029  55.853  1.00  0.00     0.164 HD
ENDROOT
BRANCH   3   7
HETATM    7  C   UNL     1       5.944  27.379  55.600  1.00  0.00     0.125 C 
BRANCH   7   8
HETATM    8  C   UNL     1       5.452  27.840  54.223  1.00  0.00     0.026 C 
BRANCH   8   9
HETATM    9  C   UNL     1       6.137  27.212  52.990  1.00  0.00     0.014 C 
HETATM   10  C   UNL     1       7.230  26.192  53.312  1.00  0.00     0.240 C 
HETATM   11  N   UNL     1       6.547  24.835  53.302  1.00  0.00    -0.067 N 
HETATM   12  H   UNL     1       7.045  24.281  52.595  1.00  0.00     0.280 HD
HETATM   13  C   UNL     1       5.134  25.034  52.823  1.00  0.00     0.235 C 
HETATM   14  C   UNL     1       5.160  26.392  52.148  1.00  0.00     0.034 C 
BRANCH  11  15
HETATM   15  C   UNL     1       6.658  24.060  54.588  1.00  0.00     0.273 C 
BRANCH  15  16
HETATM   16  C   UNL     1       7.353  22.736  54.421  1.00  0.00    -0.033 A 
HETATM   17  C   UNL     1       7.701  22.272  53.142  1.00  0.00     0.009 A 
HETATM   18  C   UNL     1       8.296  21.021  52.978  1.00  0.00     0.001 A 
HETATM   19  C   UNL     1       8.557  20.222  54.089  1.00  0.00     0.000 A 
HETATM   20  C   UNL     1       8.227  20.675  55.364  1.00  0.00     0.001 A 
HETATM   21  C   UNL     1       7.627  21.925  55.533  1.00  0.00     0.009 A 
ENDBRANCH  15  16
ENDBRANCH  11  15
ENDBRANCH   8   9
ENDBRANCH   7   8
ENDBRANCH   3   7
BRANCH   1  22
HETATM   22  C   UNL     1       8.999  29.457  57.940  1.00  0.00     0.038 A 
HETATM   23  C   UNL     1       7.984  29.807  58.844  1.00  0.00     0.059 A 
HETATM   24  C   UNL     1       7.995  31.046  59.494  1.00  0.00     0.036 A 
HETATM   25  C   UNL     1       9.064  31.919  59.264  1.00  0.00     0.029 A 
HETATM   26  C   UNL     1      10.082  31.579  58.376  1.00  0.00     0.004 A 
HETATM   27  C   UNL     1      10.049  30.354  57.717  1.00  0.00     0.029 A 
BRANCH  24  28
HETATM   28  N   UNL     1       7.036  31.466  60.434  1.00  0.00    -0.327 N 
HETATM   29  C   UNL     1       7.062  31.632  61.786  1.00  0.00     0.218 C 
HETATM   30  C   UNL     1       8.209  31.125  62.613  1.00  0.00     0.117 C 
HETATM   31  O   UNL     1       6.097  32.172  62.332  1.00  0.00    -0.274 OA
HETATM   32  H   UNL     1       6.121  31.703  60.064  1.00  0.00     0.169 HD
ENDBRANCH  24  28
ENDBRANCH   1  22
TORSDOF 7
ENDMDL
MODEL 3
REMARK VINA RESULT:      -9.4      1.545      2.117
REMARK  7 active torsions:
REMARK  status: ('A' for Active; 'I' for Inactive)
REMARK       I    between atoms: C_2  and  N_3 
REMARK    1  A    between atoms: N_3  and  C_4 
REMARK    2  A    between atoms: C_6  and  N_7 
REMARK       I    between atoms: N_7  and  C_8 
REMARK       I    between atoms: C_8  and  N_9 
REMARK    3  A    between atoms: N_9  and  C_10 
REMARK    4  A    between atoms: C_10  and  C_11 
REMARK    5  A    between atoms: C_11  and  C_12 
REMARK    6  A    between atoms: N_14  and  C_16 
REMARK    7  A    between atoms: C_16  and  C_17 
ROOT
HETATM    1  N   UNL     1       8.156  31.909  59.454  1.00  0.00    -0.309 N 
HETATM    2  C   UNL     1       8.725  30.857  58.811  1.00  0.00     0.320 C 
HETATM    3  N   UNL     1       7.903  30.033  58.107  1.00  0.00    -0.343 N 
HETATM    4  O   UNL     1       9.946  30.713  58.829  1.00  0.00    -0.247 OA
HETATM    5  H   UNL     1       8.843  32.606  59.725  1.00  0.00     0.170 HD
HETATM    6  H   UNL     1       7.008  30.421  57.834  1.00  0.00     0.164 HD
ENDROOT
BRANCH   3   7
HETATM    7  C   UNL     1       8.321  28.767  57.549  1.00  0.00     0.125 C 
BRANCH   7   8
HETATM    8  C   UNL     1       7.303  27.625  57.669  1.00  0.00     0.026 C 
BRANCH   8   9
HETATM    9  C   UNL     1       6.458  27.308  56.418  1.00  0.00     0.014 C 
HETATM   10  C   UNL     1       7.075  26.278  55.470  1.00  0.00     0.240 C 
HETATM   11  N   UNL     1       6.497  24.936  55.884  1.00  0.00    -0.067 N 
HETATM   12  H   UNL     1       6.028  24.568  55.047  1.00  0.00     0.280 HD
HETATM   13  C   UNL     1       5.445  25.189  56.930  1.00  0.00     0.235 C 
HETATM   14  C   UNL     1       5.120  26.663  56.777  1.00  0.00     0.034 C 
BRANCH  11  15
HETATM   15  C   UNL     1       7.517  23.900  56.275  1.00  0.00     0.273 C 
BRANCH  15  16
HETATM   16  C   UNL     1       7.643  22.787  55.270  1.00  0.00    -0.033 A 
HETATM   17  C   UNL     1       7.783  21.455  55.697  1.00  0.00     0.009 A 
HETATM   18  C   UNL     1       7.954  20.427  54.770  1.00  0.00     0.001 A 
HETATM   19  C   UNL     1       7.980  20.714  53.407  1.00  0.00     0.000 A 
HETATM   20  C   UNL     1       7.830  22.029  52.970  1.00  0.00     0.001 A 
HETATM   21  C   UNL     1       7.663  23.062  53.894  1.00  0.00     0.009 A 
ENDBRANCH  15  16
ENDBRANCH  11  15
ENDBRANCH   8   9
ENDBRANCH   7   8
ENDBRANCH   3   7
BRANCH   1  22
HETATM   22  C   UNL     1       6.877  32.070  60.025  1.00  0.00     0.038 A 
HETATM   23  C   UNL     1       6.629  32.074  61.406  1.00  0.00     0.059 A 
HETATM   24  C   UNL     1       5.345  32.319  61.906  1.00  0.00     0.036 A 
HETATM   25  C   UNL     1       4.315  32.609  61.005  1.00  0.00     0.029 A 
HETATM   26  C   UNL     1       4.550  32.617  59.632  1.00  0.00     0.004 A 
HETATM   27  C   UNL     1       5.827  32.348  59.145  1.00  0.00     0.029 A 
BRANCH  24  28
HETATM   28  N   UNL     1       5.014  32.370  63.272  1.00  0.00    -0.327 N 
HETATM   29  C   UNL     1       5.174  33.318  64.238  1.00  0.00     0.218 C 
HETATM   30  C   UNL     1       6.030  34.530  64.008  1.00  0.00     0.117 C 
HETATM   31  O   UNL     1       4.635  33.139  65.333  1.00  0.00    -0.274 OA
HETATM   32  H   UNL     1       4.560  31.546  63.654  1.00  0.00     0.169 HD
ENDBRANCH  24  28
ENDBRANCH   1  22
TORSDOF 7
ENDMDL
MODEL 4
REMARK VINA RESULT:      -9.0      4.511      8.154
REMARK  7 active torsions:
REMARK  status: ('A' for Active; 'I' for Inactive)
REMARK       I    between atoms: C_2  and  N_3 
REMARK    1  A    between atoms: N_3  and  C_4 
REMARK    2  A    between atoms: C_6  and  N_7 
REMARK       I    between atoms: N_7  and  C_8 
REMARK       I    between atoms: C_8  and  N_9 
REMARK    3  A    between atoms: N_9  and  C_10 
REMARK    4  A    between atoms: C_10  and  C_11 
REMARK    5  A    between atoms: C_11  and  C_12 
REMARK    6  A    between atoms: N_14  and  C_16 
REMARK    7  A    between atoms: C_16  and  C_17 
ROOT
HETATM    1  N   UNL     1       3.660  28.737  53.521  1.00  0.00    -0.309 N 
HETATM    2  C   UNL     1       4.056  29.155  54.751  1.00  0.00     0.320 C 
HETATM    3  N   UNL     1       5.386  29.115  55.029  1.00  0.00    -0.343 N 
HETATM    4  O   UNL     1       3.229  29.606  55.542  1.00  0.00    -0.247 OA
HETATM    5  H   UNL     1       2.716  29.039  53.302  1.00  0.00     0.170 HD
HETATM    6  H   UNL     1       6.010  29.099  54.231  1.00  0.00     0.164 HD
ENDROOT
BRANCH   3   7
HETATM    7  C   UNL     1       5.938  29.324  56.349  1.00  0.00     0.125 C 
BRANCH   7   8
HETATM    8  C   UNL     1       5.980  28.084  57.250  1.00  0.00     0.026 C 
BRANCH   8   9
HETATM    9  C   UNL     1       7.366  27.459  57.516  1.00  0.00     0.014 C 
HETATM   10  C   UNL     1       7.367  25.939  57.674  1.00  0.00     0.240 C 
HETATM   11  N   UNL     1       7.666  25.379  56.293  1.00  0.00    -0.067 N 
HETATM   12  H   UNL     1       8.515  24.811  56.404  1.00  0.00     0.280 HD
HETATM   13  C   UNL     1       7.998  26.536  55.389  1.00  0.00     0.235 C 
HETATM   14  C   UNL     1       8.323  27.669  56.344  1.00  0.00     0.034 C 
BRANCH  11  15
HETATM   15  C   UNL     1       6.615  24.451  55.745  1.00  0.00     0.273 C 
BRANCH  15  16
HETATM   16  C   UNL     1       7.194  23.282  54.994  1.00  0.00    -0.033 A 
HETATM   17  C   UNL     1       7.549  22.105  55.675  1.00  0.00     0.009 A 
HETATM   18  C   UNL     1       8.136  21.040  54.992  1.00  0.00     0.001 A 
HETATM   19  C   UNL     1       8.369  21.133  53.622  1.00  0.00     0.000 A 
HETATM   20  C   UNL     1       8.011  22.290  52.933  1.00  0.00     0.001 A 
HETATM   21  C   UNL     1       7.427  23.361  53.612  1.00  0.00     0.009 A 
ENDBRANCH  15  16
ENDBRANCH  11  15
ENDBRANCH   8   9
ENDBRANCH   7   8
ENDBRANCH   3   7
BRANCH   1  22
HETATM   22  C   UNL     1       4.202  27.773  52.647  1.00  0.00     0.038 A 
HETATM   23  C   UNL     1       4.536  28.026  51.308  1.00  0.00     0.059 A 
HETATM   24  C   UNL     1       5.146  27.043  50.520  1.00  0.00     0.036 A 
HETATM   25  C   UNL     1       5.464  25.812  51.104  1.00  0.00     0.029 A 
HETATM   26  C   UNL     1       5.145  25.551  52.435  1.00  0.00     0.004 A 
HETATM   27  C   UNL     1       4.517  26.528  53.202  1.00  0.00     0.029 A 
BRANCH  24  28
HETATM   28  N   UNL     1       5.539  27.220  49.181  1.00  0.00    -0.327 N 
HETATM   29  C   UNL     1       4.876  27.137  47.994  1.00  0.00     0.218 C 
HETATM   30  C   UNL     1       3.491  26.562  47.911  1.00  0.00     0.117 C 
HETATM   31  O   UNL     1       5.455  27.504  46.969  1.00  0.00    -0.274 OA
HETATM   32  H   UNL     1       6.513  27.462  49.028  1.00  0.00     0.169 HD
ENDBRANCH  24  28
ENDBRANCH   1  22
TORSDOF 7
ENDMDL
MODEL 5
REMARK VINA RESULT:      -9.0      2.714      3.568
REMARK  7 active torsions:
REMARK  status: ('A' for Active; 'I' for Inactive)
REMARK       I    between atoms: C_2  and  N_3 
REMARK    1  A    between atoms: N_3  and  C_4 
REMARK    2  A    between atoms: C_6  and  N_7 
REMARK       I    between atoms: N_7  and  C_8 
REMARK       I    between atoms: C_8  and  N_9 
REMARK    3  A    between atoms: N_9  and  C_10 
REMARK    4  A    between atoms: C_10  and  C_11 
REMARK    5  A    between atoms: C_11  and  C_12 
REMARK    6  A    between atoms: N_14  and  C_16 
REMARK    7  A    between atoms: C_16  and  C_17 
ROOT
HETATM    1  N   UNL     1       3.613  31.762  59.017  1.00  0.00    -0.309 N 
HETATM    2  C   UNL     1       3.713  30.974  57.915  1.00  0.00     0.320 C 
HETATM    3  N   UNL     1       4.586  29.933  57.966  1.00  0.00    -0.343 N 
HETATM    4  O   UNL     1       2.987  31.180  56.945  1.00  0.00    -0.247 OA
HETATM    5  H   UNL     1       2.776  32.336  59.000  1.00  0.00     0.170 HD
HETATM    6  H   UNL     1       4.848  29.614  58.891  1.00  0.00     0.164 HD
ENDROOT
BRANCH   3   7
HETATM    7  C   UNL     1       4.957  29.138  56.817  1.00  0.00     0.125 C 
BRANCH   7   8
HETATM    8  C   UNL     1       5.425  27.710  57.126  1.00  0.00     0.026 C 
BRANCH   8   9
HETATM    9  C   UNL     1       6.935  27.424  56.987  1.00  0.00     0.014 C 
HETATM   10  C   UNL     1       7.300  25.945  56.857  1.00  0.00     0.240 C 
HETATM   11  N   UNL     1       7.373  25.666  55.365  1.00  0.00    -0.067 N 
HETATM   12  H   UNL     1       8.325  25.320  55.195  1.00  0.00     0.280 HD
HETATM   13  C   UNL     1       7.222  26.978  54.643  1.00  0.00     0.235 C 
HETATM   14  C   UNL     1       7.516  28.020  55.705  1.00  0.00     0.034 C 
BRANCH  11  15
HETATM   15  C   UNL     1       6.445  24.585  54.876  1.00  0.00     0.273 C 
BRANCH  15  16
HETATM   16  C   UNL     1       7.160  23.305  54.536  1.00  0.00    -0.033 A 
HETATM   17  C   UNL     1       7.505  23.015  53.206  1.00  0.00     0.009 A 
HETATM   18  C   UNL     1       8.119  21.805  52.879  1.00  0.00     0.001 A 
HETATM   19  C   UNL     1       8.401  20.875  53.877  1.00  0.00     0.000 A 
HETATM   20  C   UNL     1       8.075  21.155  55.202  1.00  0.00     0.001 A 
HETATM   21  C   UNL     1       7.457  22.363  55.533  1.00  0.00     0.009 A 
ENDBRANCH  15  16
ENDBRANCH  11  15
ENDBRANCH   8   9
ENDBRANCH   7   8
ENDBRANCH   3   7
BRANCH   1  22
HETATM   22  C   UNL     1       4.559  32.106  60.004  1.00  0.00     0.038 A 
HETATM   23  C   UNL     1       4.271  32.184  61.375  1.00  0.00     0.059 A 
HETATM   24  C   UNL     1       5.279  32.454  62.308  1.00  0.00     0.036 A 
HETATM   25  C   UNL     1       6.595  32.598  61.856  1.00  0.00     0.029 A 
HETATM   26  C   UNL     1       6.896  32.513  60.498  1.00  0.00     0.004 A 
HETATM   27  C   UNL     1       5.881  32.269  59.577  1.00  0.00     0.029 A 
BRANCH  24  28
HETATM   28  N   UNL     1       5.085  32.522  63.699  1.00  0.00    -0.327 N 
HETATM   29  C   UNL     1       4.842  33.550  64.560  1.00  0.00     0.218 C 
HETATM   30  C   UNL     1       4.971  34.981  64.123  1.00  0.00     0.117 C 
HETATM   31  O   UNL     1       4.555  33.283  65.729  1.00  0.00    -0.274 OA
HETATM   32  H   UNL     1       5.126  31.640  64.201  1.00  0.00     0.169 HD
ENDBRANCH  24  28
ENDBRANCH   1  22
TORSDOF 7
ENDMDL
MODEL 6
REMARK VINA RESULT:      -8.8      5.403      8.640
REMARK  7 active torsions:
REMARK  status: ('A' for Active; 'I' for Inactive)
REMARK       I    between atoms: C_2  and  N_3 
REMARK    1  A    between atoms: N_3  and  C_4 
REMARK    2  A    between atoms: C_6  and  N_7 
REMARK       I    between atoms: N_7  and  C_8 
REMARK       I    between atoms: C_8  and  N_9 
REMARK    3  A    between atoms: N_9  and  C_10 
REMARK    4  A    between atoms: C_10  and  C_11 
REMARK    5  A    between atoms: C_11  and  C_12 
REMARK    6  A    between atoms: N_14  and  C_16 
REMARK    7  A    between atoms: C_16  and  C_17 
ROOT
HETATM    1  N   UNL     1       4.246  30.273  52.047  1.00  0.00    -0.309 N 
HETATM    2  C   UNL     1       4.184  30.042  53.384  1.00  0.00     0.320 C 
HETATM    3  N   UNL     1       5.061  29.145  53.907  1.00  0.00    -0.343 N 
HETATM    4  O   UNL     1       3.396  30.679  54.081  1.00  0.00    -0.247 OA
HETATM    5  H   UNL     1       3.757  31.122  51.784  1.00  0.00     0.170 HD
HETATM    6  H   UNL     1       5.893  28.961  53.359  1.00  0.00     0.164 HD
ENDROOT
BRANCH   3   7
HETATM    7  C   UNL     1       4.984  28.639  55.259  1.00  0.00     0.125 C 
BRANCH   7   8
HETATM    8  C   UNL     1       6.227  27.890  55.755  1.00  0.00     0.026 C 
BRANCH   8   9
HETATM    9  C   UNL     1       5.996  26.741  56.759  1.00  0.00     0.014 C 
HETATM   10  C   UNL     1       5.577  25.412  56.130  1.00  0.00     0.240 C 
HETATM   11  N   UNL     1       6.863  24.628  55.925  1.00  0.00    -0.067 N 
HETATM   12  H   UNL     1       6.740  23.754  56.450  1.00  0.00     0.280 HD
HETATM   13  C   UNL     1       7.982  25.401  56.567  1.00  0.00     0.235 C 
HETATM   14  C   UNL     1       7.276  26.364  57.503  1.00  0.00     0.034 C 
BRANCH  11  15
HETATM   15  C   UNL     1       7.135  24.219  54.501  1.00  0.00     0.273 C 
BRANCH  15  16
HETATM   16  C   UNL     1       7.546  22.777  54.369  1.00  0.00    -0.033 A 
HETATM   17  C   UNL     1       7.560  21.936  55.495  1.00  0.00     0.009 A 
HETATM   18  C   UNL     1       7.992  20.614  55.387  1.00  0.00     0.001 A 
HETATM   19  C   UNL     1       8.408  20.115  54.156  1.00  0.00     0.000 A 
HETATM   20  C   UNL     1       8.388  20.934  53.029  1.00  0.00     0.001 A 
HETATM   21  C   UNL     1       7.960  22.260  53.132  1.00  0.00     0.009 A 
ENDBRANCH  15  16
ENDBRANCH  11  15
ENDBRANCH   8   9
ENDBRANCH   7   8
ENDBRANCH   3   7
BRANCH   1  22
HETATM   22  C   UNL     1       4.618  29.437  50.975  1.00  0.00     0.038 A 
HETATM   23  C   UNL     1       4.054  28.176  50.729  1.00  0.00     0.059 A 
HETATM   24  C   UNL     1       4.414  27.433  49.599  1.00  0.00     0.036 A 
HETATM   25  C   UNL     1       5.316  27.991  48.685  1.00  0.00     0.029 A 
HETATM   26  C   UNL     1       5.876  29.246  48.913  1.00  0.00     0.004 A 
HETATM   27  C   UNL     1       5.529  29.965  50.053  1.00  0.00     0.029 A 
BRANCH  24  28
HETATM   28  N   UNL     1       3.879  26.177  49.262  1.00  0.00    -0.327 N 
HETATM   29  C   UNL     1       3.094  25.740  48.237  1.00  0.00     0.218 C 
HETATM   30  C   UNL     1       2.421  26.703  47.303  1.00  0.00     0.117 C 
HETATM   31  O   UNL     1       2.908  24.527  48.115  1.00  0.00    -0.274 OA
HETATM   32  H   UNL     1       4.102  25.412  49.890  1.00  0.00     0.169 HD
ENDBRANCH  24  28
ENDBRANCH   1  22
TORSDOF 7
ENDMDL
MODEL 7
REMARK VINA RESULT:      -8.7      1.886      2.653
REMARK  7 active torsions:
REMARK  status: ('A' for Active; 'I' for Inactive)
REMARK       I    between atoms: C_2  and  N_3 
REMARK    1  A    between atoms: N_3  and  C_4 
REMARK    2  A    between atoms: C_6  and  N_7 
REMARK       I    between atoms: N_7  and  C_8 
REMARK       I    between atoms: C_8  and  N_9 
REMARK    3  A    between atoms: N_9  and  C_10 
REMARK    4  A    between atoms: C_10  and  C_11 
REMARK    5  A    between atoms: C_11  and  C_12 
REMARK    6  A    between atoms: N_14  and  C_16 
REMARK    7  A    between atoms: C_16  and  C_17 
ROOT
HETATM    1  N   UNL     1       8.464  30.393  57.779  1.00  0.00    -0.309 N 
HETATM    2  C   UNL     1       8.582  29.062  57.534  1.00  0.00     0.320 C 
HETATM    3  N   UNL     1       7.488  28.285  57.750  1.00  0.00    -0.343 N 
HETATM    4  O   UNL     1       9.632  28.613  57.077  1.00  0.00    -0.247 OA
HETATM    5  H   UNL     1       9.216  30.926  57.353  1.00  0.00     0.170 HD
HETATM    6  H   UNL     1       6.594  28.763  57.754  1.00  0.00     0.164 HD
ENDROOT
BRANCH   3   7
HETATM    7  C   UNL     1       7.512  26.841  57.738  1.00  0.00     0.125 C 
BRANCH   7   8
HETATM    8  C   UNL     1       7.731  26.196  56.364  1.00  0.00     0.026 C 
BRANCH   8   9
HETATM    9  C   UNL     1       6.759  26.604  55.238  1.00  0.00     0.014 C 
HETATM   10  C   UNL     1       7.350  26.557  53.829  1.00  0.00     0.240 C 
HETATM   11  N   UNL     1       7.002  25.184  53.279  1.00  0.00    -0.067 N 
HETATM   12  H   UNL     1       6.464  25.359  52.422  1.00  0.00     0.280 HD
HETATM   13  C   UNL     1       6.090  24.509  54.268  1.00  0.00     0.235 C 
HETATM   14  C   UNL     1       5.573  25.647  55.129  1.00  0.00     0.034 C 
BRANCH  11  15
HETATM   15  C   UNL     1       8.184  24.349  52.863  1.00  0.00     0.273 C 
BRANCH  15  16
HETATM   16  C   UNL     1       8.265  23.036  53.594  1.00  0.00    -0.033 A 
HETATM   17  C   UNL     1       7.818  21.853  52.983  1.00  0.00     0.009 A 
HETATM   18  C   UNL     1       7.841  20.642  53.677  1.00  0.00     0.001 A 
HETATM   19  C   UNL     1       8.317  20.598  54.984  1.00  0.00     0.000 A 
HETATM   20  C   UNL     1       8.775  21.762  55.599  1.00  0.00     0.001 A 
HETATM   21  C   UNL     1       8.749  22.976  54.910  1.00  0.00     0.009 A 
ENDBRANCH  15  16
ENDBRANCH  11  15
ENDBRANCH   8   9
ENDBRANCH   7   8
ENDBRANCH   3   7
BRANCH   1  22
HETATM   22  C   UNL     1       7.671  31.103  58.703  1.00  0.00     0.038 A 
HETATM   23  C   UNL     1       8.097  31.458  59.992  1.00  0.00     0.059 A 
HETATM   24  C   UNL     1       7.286  32.234  60.830  1.00  0.00     0.036 A 
HETATM   25  C   UNL     1       6.058  32.693  60.342  1.00  0.00     0.029 A 
HETATM   26  C   UNL     1       5.628  32.355  59.061  1.00  0.00     0.004 A 
HETATM   27  C   UNL     1       6.432  31.562  58.246  1.00  0.00     0.029 A 
BRANCH  24  28
HETATM   28  N   UNL     1       7.645  32.658  62.122  1.00  0.00    -0.327 N 
HETATM   29  C   UNL     1       7.020  32.598  63.332  1.00  0.00     0.218 C 
HETATM   30  C   UNL     1       5.575  32.207  63.446  1.00  0.00     0.117 C 
HETATM   31  O   UNL     1       7.657  32.918  64.339  1.00  0.00    -0.274 OA
HETATM   32  H   UNL     1       8.551  33.106  62.211  1.00  0.00     0.169 HD
ENDBRANCH  24  28
ENDBRANCH   1  22
TORSDOF 7
ENDMDL
MODEL 8
REMARK VINA RESULT:      -8.7      2.925      4.594
REMARK  7 active torsions:
REMARK  status: ('A' for Active; 'I' for Inactive)
REMARK       I    between atoms: C_2  and  N_3 
REMARK    1  A    between atoms: N_3  and  C_4 
REMARK    2  A    between atoms: C_6  and  N_7 
REMARK       I    between atoms: N_7  and  C_8 
REMARK       I    between atoms: C_8  and  N_9 
REMARK    3  A    between atoms: N_9  and  C_10 
REMARK    4  A    between atoms: C_10  and  C_11 
REMARK    5  A    between atoms: C_11  and  C_12 
REMARK    6  A    between atoms: N_14  and  C_16 
REMARK    7  A    between atoms: C_16  and  C_17 
ROOT
HETATM    1  N   UNL     1       5.996  28.192  56.859  1.00  0.00    -0.309 N 
HETATM    2  C   UNL     1       5.151  28.307  55.801  1.00  0.00     0.320 C 
HETATM    3  N   UNL     1       5.692  28.637  54.599  1.00  0.00    -0.343 N 
HETATM    4  O   UNL     1       3.955  28.055  55.941  1.00  0.00    -0.247 OA
HETATM    5  H   UNL     1       5.568  27.698  57.635  1.00  0.00     0.170 HD
HETATM    6  H   UNL     1       6.682  28.455  54.489  1.00  0.00     0.164 HD
ENDROOT
BRANCH   3   7
HETATM    7  C   UNL     1       4.911  28.999  53.437  1.00  0.00     0.125 C 
BRANCH   7   8
HETATM    8  C   UNL     1       4.453  27.828  52.559  1.00  0.00     0.026 C 
BRANCH   8   9
HETATM    9  C   UNL     1       5.516  27.183  51.645  1.00  0.00     0.014 C 
HETATM   10  C   UNL     1       6.669  26.501  52.380  1.00  0.00     0.240 C 
HETATM   11  N   UNL     1       6.270  25.040  52.511  1.00  0.00    -0.067 N 
HETATM   12  H   UNL     1       7.016  24.508  52.047  1.00  0.00     0.280 HD
HETATM   13  C   UNL     1       5.001  24.837  51.728  1.00  0.00     0.235 C 
HETATM   14  C   UNL     1       4.937  26.043  50.809  1.00  0.00     0.034 C 
BRANCH  11  15
HETATM   15  C   UNL     1       6.211  24.523  53.924  1.00  0.00     0.273 C 
BRANCH  15  16
HETATM   16  C   UNL     1       7.096  23.328  54.153  1.00  0.00    -0.033 A 
HETATM   17  C   UNL     1       7.408  22.913  55.458  1.00  0.00     0.009 A 
HETATM   18  C   UNL     1       8.271  21.838  55.674  1.00  0.00     0.001 A 
HETATM   19  C   UNL     1       8.827  21.162  54.591  1.00  0.00     0.000 A 
HETATM   20  C   UNL     1       8.516  21.555  53.291  1.00  0.00     0.001 A 
HETATM   21  C   UNL     1       7.656  22.633  53.069  1.00  0.00     0.009 A 
ENDBRANCH  15  16
ENDBRANCH  11  15
ENDBRANCH   8   9
ENDBRANCH   7   8
ENDBRANCH   3   7
BRANCH   1  22
HETATM   22  C   UNL     1       7.209  28.845  57.155  1.00  0.00     0.038 A 
HETATM   23  C   UNL     1       7.308  29.993  57.955  1.00  0.00     0.059 A 
HETATM   24  C   UNL     1       8.554  30.543  58.275  1.00  0.00     0.036 A 
HETATM   25  C   UNL     1       9.711  29.900  57.822  1.00  0.00     0.029 A 
HETATM   26  C   UNL     1       9.627  28.753  57.034  1.00  0.00     0.004 A 
HETATM   27  C   UNL     1       8.381  28.229  56.702  1.00  0.00     0.029 A 
BRANCH  24  28
HETATM   28  N   UNL     1       8.746  31.673  59.091  1.00  0.00    -0.327 N 
HETATM   29  C   UNL     1       9.118  31.833  60.391  1.00  0.00     0.218 C 
HETATM   30  C   UNL     1       9.187  30.667  61.334  1.00  0.00     0.117 C 
HETATM   31  O   UNL     1       9.357  32.973  60.799  1.00  0.00    -0.274 OA
HETATM   32  H   UNL     1       8.581  32.574  58.654  1.00  0.00     0.169 HD
ENDBRANCH  24  28
ENDBRANCH   1  22
TORSDOF 7
ENDMDL
MODEL 9
REMARK VINA RESULT:      -8.6      5.530      8.372
REMARK  7 active torsions:
REMARK  status: ('A' for Active; 'I' for Inactive)
REMARK       I    between atoms: C_2  and  N_3 
REMARK    1  A    between atoms: N_3  and  C_4 
REMARK    2  A    between atoms: C_6  and  N_7 
REMARK       I    between atoms: N_7  and  C_8 
REMARK       I    between atoms: C_8  and  N_9 
REMARK    3  A    between atoms: N_9  and  C_10 
REMARK    4  A    between atoms: C_10  and  C_11 
REMARK    5  A    between atoms: C_11  and  C_12 
REMARK    6  A    between atoms: N_14  and  C_16 
REMARK    7  A    between atoms: C_16  and  C_17 
ROOT
HETATM    1  N   UNL     1       3.098  30.481  53.376  1.00  0.00    -0.309 N 
HETATM    2  C   UNL     1       3.849  30.063  54.428  1.00  0.00     0.320 C 
HETATM    3  N   UNL     1       5.166  29.812  54.199  1.00  0.00    -0.343 N 
HETATM    4  O   UNL     1       3.347  29.983  55.548  1.00  0.00    -0.247 OA
HETATM    5  H   UNL     1       2.219  30.891  53.675  1.00  0.00     0.170 HD
HETATM    6  H   UNL     1       5.569  30.252  53.381  1.00  0.00     0.164 HD
ENDROOT
BRANCH   3   7
HETATM    7  C   UNL     1       6.039  29.167  55.153  1.00  0.00     0.125 C 
BRANCH   7   8
HETATM    8  C   UNL     1       6.098  27.637  55.065  1.00  0.00     0.026 C 
BRANCH   8   9
HETATM    9  C   UNL     1       6.413  27.029  53.682  1.00  0.00     0.014 C 
HETATM   10  C   UNL     1       7.438  25.894  53.696  1.00  0.00     0.240 C 
HETATM   11  N   UNL     1       6.631  24.610  53.790  1.00  0.00    -0.067 N 
HETATM   12  H   UNL     1       6.894  24.059  52.964  1.00  0.00     0.280 HD
HETATM   13  C   UNL     1       5.175  24.969  53.665  1.00  0.00     0.235 C 
HETATM   14  C   UNL     1       5.189  26.359  53.058  1.00  0.00     0.034 C 
BRANCH  11  15
HETATM   15  C   UNL     1       6.952  23.747  54.982  1.00  0.00     0.273 C 
BRANCH  15  16
HETATM   16  C   UNL     1       7.593  22.438  54.607  1.00  0.00    -0.033 A 
HETATM   17  C   UNL     1       7.893  22.151  53.265  1.00  0.00     0.009 A 
HETATM   18  C   UNL     1       8.437  20.918  52.907  1.00  0.00     0.001 A 
HETATM   19  C   UNL     1       8.694  19.959  53.884  1.00  0.00     0.000 A 
HETATM   20  C   UNL     1       8.413  20.235  55.221  1.00  0.00     0.001 A 
HETATM   21  C   UNL     1       7.864  21.467  55.584  1.00  0.00     0.009 A 
ENDBRANCH  15  16
ENDBRANCH  11  15
ENDBRANCH   8   9
ENDBRANCH   7   8
ENDBRANCH   3   7
BRANCH   1  22
HETATM   22  C   UNL     1       3.199  30.212  51.997  1.00  0.00     0.038 A 
HETATM   23  C   UNL     1       2.921  28.964  51.418  1.00  0.00     0.059 A 
HETATM   24  C   UNL     1       2.963  28.789  50.030  1.00  0.00     0.036 A 
HETATM   25  C   UNL     1       3.242  29.895  49.219  1.00  0.00     0.029 A 
HETATM   26  C   UNL     1       3.510  31.141  49.781  1.00  0.00     0.004 A 
HETATM   27  C   UNL     1       3.489  31.298  51.164  1.00  0.00     0.029 A 
BRANCH  24  28
HETATM   28  N   UNL     1       2.672  27.584  49.366  1.00  0.00    -0.327 N 
HETATM   29  C   UNL     1       3.429  26.705  48.651  1.00  0.00     0.218 C 
HETATM   30  C   UNL     1       4.831  27.042  48.231  1.00  0.00     0.117 C 
HETATM   31  O   UNL     1       2.922  25.632  48.311  1.00  0.00    -0.274 OA
HETATM   32  H   UNL     1       1.707  27.271  49.406  1.00  0.00     0.169 HD
ENDBRANCH  24  28
ENDBRANCH   1  22
TORSDOF 7
ENDMDL
MODEL 10
REMARK VINA RESULT:      -8.6      3.069     10.710
REMARK  7 active torsions:
REMARK  status: ('A' for Active; 'I' for Inactive)
REMARK       I    between atoms: C_2  and  N_3 
REMARK    1  A    between atoms: N_3  and  C_4 
REMARK    2  A    between atoms: C_6  and  N_7 
REMARK       I    between atoms: N_7  and  C_8 
REMARK       I    between atoms: C_8  and  N_9 
REMARK    3  A    between atoms: N_9  and  C_10 
REMARK    4  A    between atoms: C_10  and  C_11 
REMARK    5  A    between atoms: C_11  and  C_12 
REMARK    6  A    between atoms: N_14  and  C_16 
REMARK    7  A    between atoms: C_16  and  C_17 
ROOT
HETATM    1  N   UNL     1       8.943  27.590  56.858  1.00  0.00    -0.309 N 
HETATM    2  C   UNL     1       9.104  28.883  57.243  1.00  0.00     0.320 C 
HETATM    3  N   UNL     1       8.060  29.484  57.873  1.00  0.00    -0.343 N 
HETATM    4  O   UNL     1      10.184  29.445  57.071  1.00  0.00    -0.247 OA
HETATM    5  H   UNL     1       9.829  27.144  56.643  1.00  0.00     0.170 HD
HETATM    6  H   UNL     1       7.381  28.867  58.302  1.00  0.00     0.164 HD
ENDROOT
BRANCH   3   7
HETATM    7  C   UNL     1       7.997  30.901  58.153  1.00  0.00     0.125 C 
BRANCH   7   8
HETATM    8  C   UNL     1       7.532  31.274  59.566  1.00  0.00     0.026 C 
BRANCH   8   9
HETATM    9  C   UNL     1       8.521  32.075  60.438  1.00  0.00     0.014 C 
HETATM   10  C   UNL     1       7.876  33.121  61.347  1.00  0.00     0.240 C 
HETATM   11  N   UNL     1       7.658  32.432  62.683  1.00  0.00    -0.067 N 
HETATM   12  H   UNL     1       8.173  32.994  63.371  1.00  0.00     0.280 HD
HETATM   13  C   UNL     1       8.308  31.076  62.614  1.00  0.00     0.235 C 
HETATM   14  C   UNL     1       9.258  31.182  61.436  1.00  0.00     0.034 C 
BRANCH  11  15
HETATM   15  C   UNL     1       6.228  32.405  63.156  1.00  0.00     0.273 C 
BRANCH  15  16
HETATM   16  C   UNL     1       6.018  33.161  64.440  1.00  0.00    -0.033 A 
HETATM   17  C   UNL     1       7.112  33.498  65.254  1.00  0.00     0.009 A 
HETATM   18  C   UNL     1       6.916  34.151  66.472  1.00  0.00     0.001 A 
HETATM   19  C   UNL     1       5.629  34.482  66.886  1.00  0.00     0.000 A 
HETATM   20  C   UNL     1       4.536  34.165  66.082  1.00  0.00     0.001 A 
HETATM   21  C   UNL     1       4.726  33.507  64.865  1.00  0.00     0.009 A 
ENDBRANCH  15  16
ENDBRANCH  11  15
ENDBRANCH   8   9
ENDBRANCH   7   8
ENDBRANCH   3   7
BRANCH   1  22
HETATM   22  C   UNL     1       7.796  26.873  56.461  1.00  0.00     0.038 A 
HETATM   23  C   UNL     1       7.268  26.893  55.162  1.00  0.00     0.059 A 
HETATM   24  C   UNL     1       6.173  26.092  54.817  1.00  0.00     0.036 A 
HETATM   25  C   UNL     1       5.638  25.231  55.780  1.00  0.00     0.029 A 
HETATM   26  C   UNL     1       6.159  25.195  57.072  1.00  0.00     0.004 A 
HETATM   27  C   UNL     1       7.233  26.013  57.410  1.00  0.00     0.029 A 
BRANCH  24  28
HETATM   28  N   UNL     1       5.600  26.030  53.534  1.00  0.00    -0.327 N 
HETATM   29  C   UNL     1       6.003  25.476  52.356  1.00  0.00     0.218 C 
HETATM   30  C   UNL     1       7.402  24.961  52.174  1.00  0.00     0.117 C 
HETATM   31  O   UNL     1       5.204  25.445  51.417  1.00  0.00    -0.274 OA
HETATM   32  H   UNL     1       4.697  26.480  53.424  1.00  0.00     0.169 HD
ENDBRANCH  24  28
ENDBRANCH   1  22
TORSDOF 7
ENDMDL
