MODEL 1
REMARK VINA RESULT:      -9.1      0.000      0.000
REMARK  5 active torsions:
REMARK  status: ('A' for Active; 'I' for Inactive)
REMARK    1  A    between atoms: O_2  and  C_3 
REMARK    2  A    between atoms: C_7  and  C_8 
REMARK    3  A    between atoms: C_8  and  C_9 
REMARK       I    between atoms: C_9  and  N_10 
REMARK    4  A    between atoms: N_10  and  C_11 
REMARK    5  A    between atoms: C_11  and  C_12 
ROOT
HETATM    1  C   UNL     1       7.804  27.893  57.497  1.00  0.00     0.222 C 
HETATM    2  N   UNL     1       7.005  28.968  57.801  1.00  0.00    -0.354 N 
HETATM    3  O   UNL     1       8.902  28.024  56.958  1.00  0.00    -0.273 OA
HETATM    4  H   UNL     1       6.215  28.852  58.431  1.00  0.00     0.162 HD
ENDROOT
BRANCH   1   5
HETATM    5  C   UNL     1       7.218  26.526  57.804  1.00  0.00     0.144 C 
BRANCH   5   6
HETATM    6  C   UNL     1       6.887  25.719  56.593  1.00  0.00    -0.014 A 
HETATM    7  C   UNL     1       7.621  24.630  56.020  1.00  0.00     0.006 A 
HETATM    8  C   UNL     1       6.892  24.217  54.912  1.00  0.00     0.088 A 
HETATM    9  C   UNL     1       8.811  23.944  56.323  1.00  0.00     0.017 A 
HETATM   10  C   UNL     1       7.249  23.158  54.077  1.00  0.00     0.074 A 
HETATM   11  O   UNL     1       5.784  24.992  54.760  1.00  0.00    -0.321 OA
HETATM   12  C   UNL     1       8.424  22.473  54.404  1.00  0.00     0.070 A 
HETATM   13  C   UNL     1       9.192  22.870  55.506  1.00  0.00     0.038 A 
HETATM   14  C   UNL     1       5.789  25.894  55.772  1.00  0.00     0.151 A 
BRANCH  12  15
HETATM   15  O   UNL     1       8.933  21.400  53.719  1.00  0.00    -0.356 OA
HETATM   16  C   UNL     1       7.997  20.579  53.030  1.00  0.00     0.210 C 
ENDBRANCH  12  15
ENDBRANCH   5   6
ENDBRANCH   1   5
BRANCH   2  17
HETATM   17  C   UNL     1       7.512  30.311  57.668  1.00  0.00     0.201 C 
BRANCH  17  18
HETATM   18  C   UNL     1       7.541  30.950  59.011  1.00  0.00     0.123 A 
HETATM   19  N   UNL     1       6.977  32.091  59.363  1.00  0.00    -0.232 NA
HETATM   20  C   UNL     1       7.246  32.237  60.702  1.00  0.00     0.085 A 
HETATM   21  C   UNL     1       8.000  31.169  61.176  1.00  0.00     0.062 A 
HETATM   22  C   UNL     1       6.875  33.260  61.587  1.00  0.00     0.034 A 
HETATM   23  N   UNL     1       8.177  30.366  60.080  1.00  0.00    -0.341 N 
HETATM   24  C   UNL     1       8.418  31.055  62.504  1.00  0.00     0.032 A 
HETATM   25  H   UNL     1       8.681  29.492  60.064  1.00  0.00     0.167 HD
HETATM   26  C   UNL     1       8.038  32.084  63.372  1.00  0.00     0.002 A 
HETATM   27  C   UNL     1       7.279  33.169  62.926  1.00  0.00     0.002 A 
ENDBRANCH  17  18
ENDBRANCH   2  17
TORSDOF 5
ENDMDL
MODEL 2
REMARK VINA RESULT:      -9.0      2.682      9.595
REMARK  5 active torsions:
REMARK  status: ('A' for Active; 'I' for Inactive)
REMARK    1  A    between atoms: O_2  and  C_3 
REMARK    2  A    between atoms: C_7  and  C_8 
REMARK    3  A    between atoms: C_8  and  C_9 
REMARK       I    between atoms: C_9  and  N_10 
REMARK    4  A    between atoms: N_10  and  C_11 
REMARK    5  A    between atoms: C_11  and  C_12 
ROOT
HETATM    1  C   UNL     1       7.883  27.205  56.611  1.00  0.00     0.222 C 
HETATM    2  N   UNL     1       6.772  26.592  56.082  1.00  0.00    -0.354 N 
HETATM    3  O   UNL     1       8.398  26.832  57.663  1.00  0.00    -0.273 OA
HETATM    4  H   UNL     1       6.500  26.776  55.119  1.00  0.00     0.162 HD
ENDROOT
BRANCH   1   5
HETATM    5  C   UNL     1       8.395  28.415  55.850  1.00  0.00     0.144 C 
BRANCH   5   6
HETATM    6  C   UNL     1       9.166  29.380  56.689  1.00  0.00    -0.014 A 
HETATM    7  C   UNL     1       8.700  30.181  57.782  1.00  0.00     0.006 A 
HETATM    8  C   UNL     1       9.802  30.899  58.228  1.00  0.00     0.088 A 
HETATM    9  C   UNL     1       7.474  30.369  58.445  1.00  0.00     0.017 A 
HETATM   10  C   UNL     1       9.787  31.789  59.302  1.00  0.00     0.074 A 
HETATM   11  O   UNL     1      10.894  30.607  57.471  1.00  0.00    -0.321 OA
HETATM   12  C   UNL     1       8.566  31.949  59.964  1.00  0.00     0.070 A 
HETATM   13  C   UNL     1       7.430  31.253  59.533  1.00  0.00     0.038 A 
HETATM   14  C   UNL     1      10.504  29.696  56.547  1.00  0.00     0.151 A 
BRANCH  12  15
HETATM   15  O   UNL     1       8.352  32.764  61.046  1.00  0.00    -0.356 OA
HETATM   16  C   UNL     1       8.341  32.139  62.324  1.00  0.00     0.210 C 
ENDBRANCH  12  15
ENDBRANCH   5   6
ENDBRANCH   1   5
BRANCH   2  17
HETATM   17  C   UNL     1       6.280  25.364  56.652  1.00  0.00     0.201 C 
BRANCH  17  18
HETATM   18  C   UNL     1       6.778  24.222  55.838  1.00  0.00     0.123 A 
HETATM   19  N   UNL     1       6.845  24.152  54.521  1.00  0.00    -0.232 NA
HETATM   20  C   UNL     1       7.405  22.928  54.245  1.00  0.00     0.085 A 
HETATM   21  C   UNL     1       7.676  22.231  55.417  1.00  0.00     0.062 A 
HETATM   22  C   UNL     1       7.718  22.341  53.011  1.00  0.00     0.034 A 
HETATM   23  N   UNL     1       7.264  23.074  56.416  1.00  0.00    -0.341 N 
HETATM   24  C   UNL     1       8.249  20.958  55.438  1.00  0.00     0.032 A 
HETATM   25  H   UNL     1       7.318  22.887  57.406  1.00  0.00     0.167 HD
HETATM   26  C   UNL     1       8.555  20.388  54.197  1.00  0.00     0.002 A 
HETATM   27  C   UNL     1       8.297  21.065  53.002  1.00  0.00     0.002 A 
ENDBRANCH  17  18
ENDBRANCH   2  17
TORSDOF 5
ENDMDL
MODEL 3
REMARK VINA RESULT:      -9.0      4.022     10.740
REMARK  5 active torsions:
REMARK  status: ('A' for Active; 'I' for Inactive)
REMARK    1  A    between atoms: O_2  and  C_3 
REMARK    2  A    between atoms: C_7  and  C_8 
REMARK    3  A    between atoms: C_8  and  C_9 
REMARK       I    between atoms: C_9  and  N_10 
REMARK    4  A    between atoms: N_10  and  C_11 
REMARK    5  A    between atoms: C_11  and  C_12 
ROOT
HETATM    1  C   UNL     1       8.231  31.833  60.646  1.00  0.00     0.222 C 
HETATM    2  N   UNL     1       7.746  30.724  59.996  1.00  0.00    -0.354 N 
HETATM    3  O   UNL     1       8.697  32.796  60.040  1.00  0.00    -0.273 OA
HETATM    4  H   UNL     1       7.177  30.048  60.500  1.00  0.00     0.162 HD
ENDROOT
BRANCH   1   5
HETATM    5  C   UNL     1       8.219  31.767  62.163  1.00  0.00     0.144 C 
BRANCH   5   6
HETATM    6  C   UNL     1       6.921  32.170  62.780  1.00  0.00    -0.014 A 
HETATM    7  C   UNL     1       6.698  32.870  64.010  1.00  0.00     0.006 A 
HETATM    8  C   UNL     1       5.321  33.006  64.130  1.00  0.00     0.088 A 
HETATM    9  C   UNL     1       7.508  33.410  65.025  1.00  0.00     0.017 A 
HETATM   10  C   UNL     1       4.676  33.654  65.184  1.00  0.00     0.074 A 
HETATM   11  O   UNL     1       4.694  32.420  63.074  1.00  0.00    -0.321 OA
HETATM   12  C   UNL     1       5.496  34.203  66.174  1.00  0.00     0.070 A 
HETATM   13  C   UNL     1       6.888  34.074  66.094  1.00  0.00     0.038 A 
HETATM   14  C   UNL     1       5.662  31.917  62.268  1.00  0.00     0.151 A 
BRANCH  12  15
HETATM   15  O   UNL     1       5.056  34.888  67.278  1.00  0.00    -0.356 OA
HETATM   16  C   UNL     1       5.728  34.624  68.504  1.00  0.00     0.210 C 
ENDBRANCH  12  15
ENDBRANCH   5   6
ENDBRANCH   1   5
BRANCH   2  17
HETATM   17  C   UNL     1       7.595  30.730  58.563  1.00  0.00     0.201 C 
BRANCH  17  18
HETATM   18  C   UNL     1       7.295  29.347  58.105  1.00  0.00     0.123 A 
HETATM   19  N   UNL     1       8.105  28.304  58.134  1.00  0.00    -0.232 NA
HETATM   20  C   UNL     1       7.369  27.252  57.646  1.00  0.00     0.085 A 
HETATM   21  C   UNL     1       6.087  27.661  57.301  1.00  0.00     0.062 A 
HETATM   22  C   UNL     1       7.730  25.908  57.470  1.00  0.00     0.034 A 
HETATM   23  N   UNL     1       6.066  28.999  57.598  1.00  0.00    -0.341 N 
HETATM   24  C   UNL     1       5.120  26.799  56.778  1.00  0.00     0.032 A 
HETATM   25  H   UNL     1       5.279  29.618  57.475  1.00  0.00     0.167 HD
HETATM   26  C   UNL     1       5.498  25.462  56.611  1.00  0.00     0.002 A 
HETATM   27  C   UNL     1       6.779  25.020  56.950  1.00  0.00     0.002 A 
ENDBRANCH  17  18
ENDBRANCH   2  17
TORSDOF 5
ENDMDL
MODEL 4
REMARK VINA RESULT:      -8.6      4.638      8.175
REMARK  5 active torsions:
REMARK  status: ('A' for Active; 'I' for Inactive)
REMARK    1  A    between atoms: O_2  and  C_3 
REMARK    2  A    between atoms: C_7  and  C_8 
REMARK    3  A    between atoms: C_8  and  C_9 
REMARK       I    between atoms: C_9  and  N_10 
REMARK    4  A    between atoms: N_10  and  C_11 
REMARK    5  A    between atoms: C_11  and  C_12 
ROOT
HETATM    1  C   UNL     1       6.728  26.953  56.955  1.00  0.00     0.222 C 
HETATM    2  N   UNL     1       6.810  25.653  57.393  1.00  0.00    -0.354 N 
HETATM    3  O   UNL     1       7.722  27.667  56.834  1.00  0.00    -0.273 OA
HETATM    4  H   UNL     1       6.016  25.027  57.278  1.00  0.00     0.162 HD
ENDROOT
BRANCH   1   5
HETATM    5  C   UNL     1       5.327  27.476  56.695  1.00  0.00     0.144 C 
BRANCH   5   6
HETATM    6  C   UNL     1       5.101  27.945  55.296  1.00  0.00    -0.014 A 
HETATM    7  C   UNL     1       5.121  27.180  54.086  1.00  0.00     0.006 A 
HETATM    8  C   UNL     1       4.846  28.076  53.060  1.00  0.00     0.088 A 
HETATM    9  C   UNL     1       5.331  25.831  53.747  1.00  0.00     0.017 A 
HETATM   10  C   UNL     1       4.749  27.733  51.711  1.00  0.00     0.074 A 
HETATM   11  O   UNL     1       4.684  29.331  53.561  1.00  0.00    -0.321 OA
HETATM   12  C   UNL     1       4.940  26.385  51.394  1.00  0.00     0.070 A 
HETATM   13  C   UNL     1       5.233  25.455  52.399  1.00  0.00     0.038 A 
HETATM   14  C   UNL     1       4.842  29.245  54.904  1.00  0.00     0.151 A 
BRANCH  12  15
HETATM   15  O   UNL     1       4.871  25.850  50.134  1.00  0.00    -0.356 OA
HETATM   16  C   UNL     1       4.232  26.639  49.138  1.00  0.00     0.210 C 
ENDBRANCH  12  15
ENDBRANCH   5   6
ENDBRANCH   1   5
BRANCH   2  17
HETATM   17  C   UNL     1       8.095  25.018  57.549  1.00  0.00     0.201 C 
BRANCH  17  18
HETATM   18  C   UNL     1       8.192  23.886  56.588  1.00  0.00     0.123 A 
HETATM   19  N   UNL     1       8.375  22.610  56.876  1.00  0.00    -0.232 NA
HETATM   20  C   UNL     1       8.356  21.954  55.669  1.00  0.00     0.085 A 
HETATM   21  C   UNL     1       8.168  22.848  54.621  1.00  0.00     0.062 A 
HETATM   22  C   UNL     1       8.488  20.587  55.388  1.00  0.00     0.034 A 
HETATM   23  N   UNL     1       8.071  24.071  55.232  1.00  0.00    -0.341 N 
HETATM   24  C   UNL     1       8.105  22.458  53.282  1.00  0.00     0.032 A 
HETATM   25  H   UNL     1       7.925  24.954  54.765  1.00  0.00     0.167 HD
HETATM   26  C   UNL     1       8.240  21.090  53.020  1.00  0.00     0.002 A 
HETATM   27  C   UNL     1       8.427  20.167  54.053  1.00  0.00     0.002 A 
ENDBRANCH  17  18
ENDBRANCH   2  17
TORSDOF 5
ENDMDL
MODEL 5
REMARK VINA RESULT:      -8.5      5.839      8.909
REMARK  5 active torsions:
REMARK  status: ('A' for Active; 'I' for Inactive)
REMARK    1  A    between atoms: O_2  and  C_3 
REMARK    2  A    between atoms: C_7  and  C_8 
REMARK    3  A    between atoms: C_8  and  C_9 
REMARK       I    between atoms: C_9  and  N_10 
REMARK    4  A    between atoms: N_10  and  C_11 
REMARK    5  A    between atoms: C_11  and  C_12 
ROOT
HETATM    1  C   UNL     1       6.059  27.905  53.580  1.00  0.00     0.222 C 
HETATM    2  N   UNL     1       5.930  28.735  52.493  1.00  0.00    -0.354 N 
HETATM    3  O   UNL     1       5.129  27.696  54.358  1.00  0.00    -0.273 OA
HETATM    4  H   UNL     1       6.632  28.722  51.757  1.00  0.00     0.162 HD
ENDROOT
BRANCH   1   5
HETATM    5  C   UNL     1       7.440  27.315  53.801  1.00  0.00     0.144 C 
BRANCH   5   6
HETATM    6  C   UNL     1       7.567  25.888  53.381  1.00  0.00    -0.014 A 
HETATM    7  C   UNL     1       7.630  24.719  54.207  1.00  0.00     0.006 A 
HETATM    8  C   UNL     1       7.738  23.641  53.337  1.00  0.00     0.088 A 
HETATM    9  C   UNL     1       7.598  24.455  55.588  1.00  0.00     0.017 A 
HETATM   10  C   UNL     1       7.804  22.305  53.734  1.00  0.00     0.074 A 
HETATM   11  O   UNL     1       7.767  24.075  52.048  1.00  0.00    -0.321 OA
HETATM   12  C   UNL     1       7.750  22.058  55.109  1.00  0.00     0.070 A 
HETATM   13  C   UNL     1       7.656  23.120  56.016  1.00  0.00     0.038 A 
HETATM   14  C   UNL     1       7.667  25.426  52.082  1.00  0.00     0.151 A 
BRANCH  12  15
HETATM   15  O   UNL     1       7.786  20.818  55.694  1.00  0.00    -0.356 OA
HETATM   16  C   UNL     1       9.020  20.426  56.284  1.00  0.00     0.210 C 
ENDBRANCH  12  15
ENDBRANCH   5   6
ENDBRANCH   1   5
BRANCH   2  17
HETATM   17  C   UNL     1       4.636  29.248  52.119  1.00  0.00     0.201 C 
BRANCH  17  18
HETATM   18  C   UNL     1       4.174  28.541  50.894  1.00  0.00     0.123 A 
HETATM   19  N   UNL     1       4.889  27.753  50.111  1.00  0.00    -0.232 NA
HETATM   20  C   UNL     1       4.021  27.311  49.143  1.00  0.00     0.085 A 
HETATM   21  C   UNL     1       2.752  27.847  49.331  1.00  0.00     0.062 A 
HETATM   22  C   UNL     1       4.244  26.441  48.066  1.00  0.00     0.034 A 
HETATM   23  N   UNL     1       2.877  28.630  50.450  1.00  0.00    -0.341 N 
HETATM   24  C   UNL     1       1.669  27.567  48.495  1.00  0.00     0.032 A 
HETATM   25  H   UNL     1       2.140  29.169  50.877  1.00  0.00     0.167 HD
HETATM   26  C   UNL     1       1.910  26.697  47.426  1.00  0.00     0.002 A 
HETATM   27  C   UNL     1       3.174  26.141  47.212  1.00  0.00     0.002 A 
ENDBRANCH  17  18
ENDBRANCH   2  17
TORSDOF 5
ENDMDL
MODEL 6
REMARK VINA RESULT:      -8.3      5.360      8.914
REMARK  5 active torsions:
REMARK  status: ('A' for Active; 'I' for Inactive)
REMARK    1  A    between atoms: O_2  and  C_3 
REMARK    2  A    between atoms: C_7  and  C_8 
REMARK    3  A    between atoms: C_8  and  C_9 
REMARK       I    between atoms: C_9  and  N_10 
REMARK    4  A    between atoms: N_10  and  C_11 
REMARK    5  A    between atoms: C_11  and  C_12 
ROOT
HETATM    1  C   UNL     1       5.854  27.553  54.075  1.00  0.00     0.222 C 
HETATM    2  N   UNL     1       5.079  27.505  52.941  1.00  0.00    -0.354 N 
HETATM    3  O   UNL     1       6.922  28.162  54.112  1.00  0.00    -0.273 OA
HETATM    4  H   UNL     1       4.115  27.185  52.997  1.00  0.00     0.162 HD
ENDROOT
BRANCH   1   5
HETATM    5  C   UNL     1       5.345  26.750  55.258  1.00  0.00     0.144 C 
BRANCH   5   6
HETATM    6  C   UNL     1       6.235  25.620  55.656  1.00  0.00    -0.014 A 
HETATM    7  C   UNL     1       6.860  24.640  54.819  1.00  0.00     0.006 A 
HETATM    8  C   UNL     1       7.588  23.817  55.669  1.00  0.00     0.088 A 
HETATM    9  C   UNL     1       6.897  24.367  53.440  1.00  0.00     0.017 A 
HETATM   10  C   UNL     1       8.369  22.739  55.253  1.00  0.00     0.074 A 
HETATM   11  O   UNL     1       7.430  24.214  56.961  1.00  0.00    -0.321 OA
HETATM   12  C   UNL     1       8.413  22.493  53.877  1.00  0.00     0.070 A 
HETATM   13  C   UNL     1       7.680  23.293  52.991  1.00  0.00     0.038 A 
HETATM   14  C   UNL     1       6.614  25.296  56.946  1.00  0.00     0.151 A 
BRANCH  12  15
HETATM   15  O   UNL     1       9.131  21.494  53.273  1.00  0.00    -0.356 OA
HETATM   16  C   UNL     1       8.456  20.261  53.057  1.00  0.00     0.210 C 
ENDBRANCH  12  15
ENDBRANCH   5   6
ENDBRANCH   1   5
BRANCH   2  17
HETATM   17  C   UNL     1       5.404  28.328  51.804  1.00  0.00     0.201 C 
BRANCH  17  18
HETATM   18  C   UNL     1       4.642  27.840  50.623  1.00  0.00     0.123 A 
HETATM   19  N   UNL     1       3.953  28.567  49.762  1.00  0.00    -0.232 NA
HETATM   20  C   UNL     1       3.466  27.678  48.835  1.00  0.00     0.085 A 
HETATM   21  C   UNL     1       3.856  26.379  49.140  1.00  0.00     0.062 A 
HETATM   22  C   UNL     1       2.682  27.907  47.696  1.00  0.00     0.034 A 
HETATM   23  N   UNL     1       4.600  26.508  50.285  1.00  0.00    -0.341 N 
HETATM   24  C   UNL     1       3.505  25.270  48.367  1.00  0.00     0.032 A 
HETATM   25  H   UNL     1       5.047  25.755  50.786  1.00  0.00     0.167 HD
HETATM   26  C   UNL     1       2.723  25.519  47.234  1.00  0.00     0.002 A 
HETATM   27  C   UNL     1       2.317  26.813  46.900  1.00  0.00     0.002 A 
ENDBRANCH  17  18
ENDBRANCH   2  17
TORSDOF 5
ENDMDL
MODEL 7
REMARK VINA RESULT:      -8.3      3.141      9.617
REMARK  5 active torsions:
REMARK  status: ('A' for Active; 'I' for Inactive)
REMARK    1  A    between atoms: O_2  and  C_3 
REMARK    2  A    between atoms: C_7  and  C_8 
REMARK    3  A    between atoms: C_8  and  C_9 
REMARK       I    between atoms: C_9  and  N_10 
REMARK    4  A    between atoms: N_10  and  C_11 
REMARK    5  A    between atoms: C_11  and  C_12 
ROOT
HETATM    1  C   UNL     1       6.531  27.162  55.360  1.00  0.00     0.222 C 
HETATM    2  N   UNL     1       6.767  26.549  54.153  1.00  0.00    -0.354 N 
HETATM    3  O   UNL     1       5.528  26.923  56.031  1.00  0.00    -0.273 OA
HETATM    4  H   UNL     1       7.690  26.598  53.729  1.00  0.00     0.162 HD
ENDROOT
BRANCH   1   5
HETATM    5  C   UNL     1       7.551  28.204  55.782  1.00  0.00     0.144 C 
BRANCH   5   6
HETATM    6  C   UNL     1       6.960  29.392  56.466  1.00  0.00    -0.014 A 
HETATM    7  C   UNL     1       7.317  29.959  57.732  1.00  0.00     0.006 A 
HETATM    8  C   UNL     1       6.479  31.053  57.912  1.00  0.00     0.088 A 
HETATM    9  C   UNL     1       8.259  29.675  58.737  1.00  0.00     0.017 A 
HETATM   10  C   UNL     1       6.511  31.904  59.017  1.00  0.00     0.074 A 
HETATM   11  O   UNL     1       5.627  31.174  56.858  1.00  0.00    -0.321 OA
HETATM   12  C   UNL     1       7.467  31.620  59.997  1.00  0.00     0.070 A 
HETATM   13  C   UNL     1       8.320  30.518  59.856  1.00  0.00     0.038 A 
HETATM   14  C   UNL     1       5.921  30.171  55.994  1.00  0.00     0.151 A 
BRANCH  12  15
HETATM   15  O   UNL     1       7.666  32.344  61.144  1.00  0.00    -0.356 OA
HETATM   16  C   UNL     1       8.700  31.895  62.012  1.00  0.00     0.210 C 
ENDBRANCH  12  15
ENDBRANCH   5   6
ENDBRANCH   1   5
BRANCH   2  17
HETATM   17  C   UNL     1       5.932  25.457  53.717  1.00  0.00     0.201 C 
BRANCH  17  18
HETATM   18  C   UNL     1       6.624  24.174  54.015  1.00  0.00     0.123 A 
HETATM   19  N   UNL     1       6.855  23.651  55.205  1.00  0.00    -0.232 NA
HETATM   20  C   UNL     1       7.480  22.451  54.965  1.00  0.00     0.085 A 
HETATM   21  C   UNL     1       7.644  22.241  53.601  1.00  0.00     0.062 A 
HETATM   22  C   UNL     1       7.936  21.480  55.868  1.00  0.00     0.034 A 
HETATM   23  N   UNL     1       7.094  23.354  53.018  1.00  0.00    -0.341 N 
HETATM   24  C   UNL     1       8.248  21.101  53.067  1.00  0.00     0.032 A 
HETATM   25  H   UNL     1       7.037  23.533  52.027  1.00  0.00     0.167 HD
HETATM   26  C   UNL     1       8.697  20.143  53.983  1.00  0.00     0.002 A 
HETATM   27  C   UNL     1       8.545  20.325  55.360  1.00  0.00     0.002 A 
ENDBRANCH  17  18
ENDBRANCH   2  17
TORSDOF 5
ENDMDL
MODEL 8
REMARK VINA RESULT:      -8.2      1.906      2.853
REMARK  5 active torsions:
REMARK  status: ('A' for Active; 'I' for Inactive)
REMARK    1  A    between atoms: O_2  and  C_3 
REMARK    2  A    between atoms: C_7  and  C_8 
REMARK    3  A    between atoms: C_8  and  C_9 
REMARK       I    between atoms: C_9  and  N_10 
REMARK    4  A    between atoms: N_10  and  C_11 
REMARK    5  A    between atoms: C_11  and  C_12 
ROOT
HETATM    1  C   UNL     1       7.443  27.273  57.527  1.00  0.00     0.222 C 
HETATM    2  N   UNL     1       8.299  28.347  57.524  1.00  0.00    -0.354 N 
HETATM    3  O   UNL     1       6.223  27.408  57.600  1.00  0.00    -0.273 OA
HETATM    4  H   UNL     1       9.270  28.223  57.248  1.00  0.00     0.162 HD
ENDROOT
BRANCH   1   5
HETATM    5  C   UNL     1       8.099  25.904  57.504  1.00  0.00     0.144 C 
BRANCH   5   6
HETATM    6  C   UNL     1       7.678  25.046  56.357  1.00  0.00    -0.014 A 
HETATM    7  C   UNL     1       7.315  25.447  55.031  1.00  0.00     0.006 A 
HETATM    8  C   UNL     1       7.014  24.277  54.345  1.00  0.00     0.088 A 
HETATM    9  C   UNL     1       7.218  26.665  54.335  1.00  0.00     0.017 A 
HETATM   10  C   UNL     1       6.632  24.218  53.005  1.00  0.00     0.074 A 
HETATM   11  O   UNL     1       7.147  23.200  55.167  1.00  0.00    -0.321 OA
HETATM   12  C   UNL     1       6.560  25.435  52.321  1.00  0.00     0.070 A 
HETATM   13  C   UNL     1       6.843  26.637  52.983  1.00  0.00     0.038 A 
HETATM   14  C   UNL     1       7.544  23.670  56.375  1.00  0.00     0.151 A 
BRANCH  12  15
HETATM   15  O   UNL     1       6.219  25.585  51.002  1.00  0.00    -0.356 OA
HETATM   16  C   UNL     1       5.074  26.383  50.724  1.00  0.00     0.210 C 
ENDBRANCH  12  15
ENDBRANCH   5   6
ENDBRANCH   1   5
BRANCH   2  17
HETATM   17  C   UNL     1       7.782  29.688  57.419  1.00  0.00     0.201 C 
BRANCH  17  18
HETATM   18  C   UNL     1       7.821  30.326  58.762  1.00  0.00     0.123 A 
HETATM   19  N   UNL     1       8.733  30.151  59.702  1.00  0.00    -0.232 NA
HETATM   20  C   UNL     1       8.361  30.976  60.735  1.00  0.00     0.085 A 
HETATM   21  C   UNL     1       7.192  31.662  60.426  1.00  0.00     0.062 A 
HETATM   22  C   UNL     1       8.978  31.198  61.974  1.00  0.00     0.034 A 
HETATM   23  N   UNL     1       6.866  31.227  59.167  1.00  0.00    -0.341 N 
HETATM   24  C   UNL     1       6.583  32.571  61.294  1.00  0.00     0.032 A 
HETATM   25  H   UNL     1       6.067  31.526  58.629  1.00  0.00     0.167 HD
HETATM   26  C   UNL     1       7.213  32.780  62.526  1.00  0.00     0.002 A 
HETATM   27  C   UNL     1       8.390  32.108  62.863  1.00  0.00     0.002 A 
ENDBRANCH  17  18
ENDBRANCH   2  17
TORSDOF 5
ENDMDL
MODEL 9
REMARK VINA RESULT:      -8.2      5.101      8.794
REMARK  5 active torsions:
REMARK  status: ('A' for Active; 'I' for Inactive)
REMARK    1  A    between atoms: O_2  and  C_3 
REMARK    2  A    between atoms: C_7  and  C_8 
REMARK    3  A    between atoms: C_8  and  C_9 
REMARK       I    between atoms: C_9  and  N_10 
REMARK    4  A    between atoms: N_10  and  C_11 
REMARK    5  A    between atoms: C_11  and  C_12 
ROOT
HETATM    1  C   UNL     1       6.751  27.276  55.081  1.00  0.00     0.222 C 
HETATM    2  N   UNL     1       6.616  26.194  55.916  1.00  0.00    -0.354 N 
HETATM    3  O   UNL     1       7.812  27.888  54.967  1.00  0.00    -0.273 OA
HETATM    4  H   UNL     1       5.808  25.583  55.830  1.00  0.00     0.162 HD
ENDROOT
BRANCH   1   5
HETATM    5  C   UNL     1       5.490  27.713  54.357  1.00  0.00     0.144 C 
BRANCH   5   6
HETATM    6  C   UNL     1       5.253  27.007  53.064  1.00  0.00    -0.014 A 
HETATM    7  C   UNL     1       5.180  27.562  51.746  1.00  0.00     0.006 A 
HETATM    8  C   UNL     1       4.952  26.492  50.890  1.00  0.00     0.088 A 
HETATM    9  C   UNL     1       5.290  28.846  51.183  1.00  0.00     0.017 A 
HETATM   10  C   UNL     1       4.836  26.594  49.504  1.00  0.00     0.074 A 
HETATM   11  O   UNL     1       4.860  25.333  51.598  1.00  0.00    -0.321 OA
HETATM   12  C   UNL     1       4.969  27.874  48.959  1.00  0.00     0.070 A 
HETATM   13  C   UNL     1       5.186  28.980  49.791  1.00  0.00     0.038 A 
HETATM   14  C   UNL     1       5.039  25.651  52.903  1.00  0.00     0.151 A 
BRANCH  12  15
HETATM   15  O   UNL     1       4.902  28.179  47.623  1.00  0.00    -0.356 OA
HETATM   16  C   UNL     1       4.696  29.546  47.289  1.00  0.00     0.210 C 
ENDBRANCH  12  15
ENDBRANCH   5   6
ENDBRANCH   1   5
BRANCH   2  17
HETATM   17  C   UNL     1       7.775  25.619  56.553  1.00  0.00     0.201 C 
BRANCH  17  18
HETATM   18  C   UNL     1       8.014  24.265  55.986  1.00  0.00     0.123 A 
HETATM   19  N   UNL     1       8.323  23.166  56.649  1.00  0.00    -0.232 NA
HETATM   20  C   UNL     1       8.402  22.174  55.702  1.00  0.00     0.085 A 
HETATM   21  C   UNL     1       8.147  22.678  54.433  1.00  0.00     0.062 A 
HETATM   22  C   UNL     1       8.685  20.809  55.853  1.00  0.00     0.034 A 
HETATM   23  N   UNL     1       7.906  24.012  54.639  1.00  0.00    -0.341 N 
HETATM   24  C   UNL     1       8.158  21.892  53.278  1.00  0.00     0.032 A 
HETATM   25  H   UNL     1       7.680  24.688  53.925  1.00  0.00     0.167 HD
HETATM   26  C   UNL     1       8.442  20.533  53.448  1.00  0.00     0.002 A 
HETATM   27  C   UNL     1       8.701  19.996  54.712  1.00  0.00     0.002 A 
ENDBRANCH  17  18
ENDBRANCH   2  17
TORSDOF 5
ENDMDL
MODEL 10
REMARK VINA RESULT:      -8.0      4.397      7.415
REMARK  5 active torsions:
REMARK  status: ('A' for Active; 'I' for Inactive)
REMARK    1  A    between atoms: O_2  and  C_3 
REMARK    2  A    between atoms: C_7  and  C_8 
REMARK    3  A    between atoms: C_8  and  C_9 
REMARK       I    between atoms: C_9  and  N_10 
REMARK    4  A    between atoms: N_10  and  C_11 
REMARK    5  A    between atoms: C_11  and  C_12 
ROOT
HETATM    1  C   UNL     1       7.101  27.569  56.183  1.00  0.00     0.222 C 
HETATM    2  N   UNL     1       6.080  27.749  55.281  1.00  0.00    -0.354 N 
HETATM    3  O   UNL     1       8.135  28.234  56.143  1.00  0.00    -0.273 OA
HETATM    4  H   UNL     1       5.164  27.347  55.463  1.00  0.00     0.162 HD
ENDROOT
BRANCH   1   5
HETATM    5  C   UNL     1       6.904  26.450  57.190  1.00  0.00     0.144 C 
BRANCH   5   6
HETATM    6  C   UNL     1       7.630  25.190  56.851  1.00  0.00    -0.014 A 
HETATM    7  C   UNL     1       7.484  24.362  55.692  1.00  0.00     0.006 A 
HETATM    8  C   UNL     1       8.388  23.319  55.849  1.00  0.00     0.088 A 
HETATM    9  C   UNL     1       6.697  24.386  54.526  1.00  0.00     0.017 A 
HETATM   10  C   UNL     1       8.584  22.292  54.925  1.00  0.00     0.074 A 
HETATM   11  O   UNL     1       9.053  23.444  57.029  1.00  0.00    -0.321 OA
HETATM   12  C   UNL     1       7.809  22.342  53.762  1.00  0.00     0.070 A 
HETATM   13  C   UNL     1       6.877  23.370  53.575  1.00  0.00     0.038 A 
HETATM   14  C   UNL     1       8.591  24.570  57.627  1.00  0.00     0.151 A 
BRANCH  12  15
HETATM   15  O   UNL     1       7.864  21.437  52.733  1.00  0.00    -0.356 OA
HETATM   16  C   UNL     1       8.751  20.337  52.896  1.00  0.00     0.210 C 
ENDBRANCH  12  15
ENDBRANCH   5   6
ENDBRANCH   1   5
BRANCH   2  17
HETATM   17  C   UNL     1       6.108  28.861  54.364  1.00  0.00     0.201 C 
BRANCH  17  18
HETATM   18  C   UNL     1       5.794  28.365  52.997  1.00  0.00     0.123 A 
HETATM   19  N   UNL     1       5.467  27.133  52.651  1.00  0.00    -0.232 NA
HETATM   20  C   UNL     1       5.235  27.179  51.298  1.00  0.00     0.085 A 
HETATM   21  C   UNL     1       5.434  28.463  50.804  1.00  0.00     0.062 A 
HETATM   22  C   UNL     1       4.844  26.160  50.419  1.00  0.00     0.034 A 
HETATM   23  N   UNL     1       5.793  29.198  51.904  1.00  0.00    -0.341 N 
HETATM   24  C   UNL     1       5.267  28.802  49.460  1.00  0.00     0.032 A 
HETATM   25  H   UNL     1       6.010  30.183  51.910  1.00  0.00     0.167 HD
HETATM   26  C   UNL     1       4.876  27.772  48.597  1.00  0.00     0.002 A 
HETATM   27  C   UNL     1       4.667  26.472  49.065  1.00  0.00     0.002 A 
ENDBRANCH  17  18
ENDBRANCH   2  17
TORSDOF 5
ENDMDL
