MODEL 1
REMARK VINA RESULT:      -8.3      0.000      0.000
REMARK  6 active torsions:
REMARK  status: ('A' for Active; 'I' for Inactive)
REMARK    1  A    between atoms: C_2  and  N_3 
REMARK    2  A    between atoms: C_2  and  C_16 
REMARK    3  A    between atoms: N_3  and  C_6 
REMARK    4  A    between atoms: C_16  and  C_17 
REMARK       I    between atoms: C_17  and  N_18 
REMARK    5  A    between atoms: N_18  and  C_19 
REMARK    6  A    between atoms: C_22  and  O_23 
ROOT
HETATM    1  C   UNL     1       6.764  25.339  51.692  1.00  0.00     0.040 C 
HETATM    2  C   UNL     1       7.536  26.160  52.720  1.00  0.00     0.191 C 
ENDROOT
BRANCH   2   3
HETATM    3  N   UNL     1       7.875  25.292  53.912  1.00  0.00    -0.063 N 
HETATM    4  H   UNL     1       8.782  24.838  53.661  1.00  0.00     0.278 HD
HETATM    5  H   UNL     1       8.082  25.879  54.727  1.00  0.00     0.278 HD
BRANCH   3   6
HETATM    6  C   UNL     1       6.937  24.177  54.297  1.00  0.00     0.221 C 
HETATM    7  C   UNL     1       7.606  22.830  54.326  1.00  0.00    -0.011 A 
HETATM    8  C   UNL     1       8.293  22.378  55.462  1.00  0.00     0.009 A 
HETATM    9  C   UNL     1       7.551  22.005  53.184  1.00  0.00     0.011 A 
HETATM   10  C   UNL     1       8.924  21.127  55.430  1.00  0.00     0.019 A 
HETATM   11  S   UNL     1       8.425  23.291  56.987  1.00  0.00    -0.129 SA
HETATM   12  C   UNL     1       8.871  20.323  54.291  1.00  0.00     0.001 A 
HETATM   13  C   UNL     1       8.182  20.762  53.168  1.00  0.00     0.001 A 
HETATM   14  C   UNL     1       7.257  24.664  56.786  1.00  0.00     0.082 C 
HETATM   15  C   UNL     1       6.276  24.505  55.639  1.00  0.00     0.048 C 
ENDBRANCH   3   6
ENDBRANCH   2   3
BRANCH   2  16
HETATM   16  C   UNL     1       6.689  27.367  53.166  1.00  0.00     0.135 C 
BRANCH  16  17
HETATM   17  C   UNL     1       7.377  28.148  54.267  1.00  0.00     0.224 C 
HETATM   18  N   UNL     1       6.587  28.324  55.380  1.00  0.00    -0.327 N 
HETATM   19  H   UNL     1       5.668  27.896  55.384  1.00  0.00     0.169 HD
HETATM   20  O   UNL     1       8.550  28.479  54.114  1.00  0.00    -0.273 OA
BRANCH  18  21
HETATM   21  C   UNL     1       6.905  29.045  56.551  1.00  0.00     0.034 A 
HETATM   22  C   UNL     1       7.868  28.649  57.480  1.00  0.00     0.032 A 
HETATM   23  C   UNL     1       8.148  29.447  58.598  1.00  0.00     0.039 A 
HETATM   24  C   UNL     1       7.469  30.648  58.792  1.00  0.00     0.068 A 
HETATM   25  C   UNL     1       6.483  31.031  57.888  1.00  0.00     0.039 A 
HETATM   26  C   UNL     1       6.209  30.241  56.767  1.00  0.00     0.032 A 
BRANCH  24  27
HETATM   27  O   UNL     1       7.661  31.493  59.848  1.00  0.00    -0.356 OA
HETATM   28  C   UNL     1       8.920  32.159  59.859  1.00  0.00     0.210 C 
ENDBRANCH  24  27
ENDBRANCH  18  21
ENDBRANCH  16  17
ENDBRANCH   2  16
TORSDOF 6
ENDMDL
MODEL 2
REMARK VINA RESULT:      -8.0      3.843      6.892
REMARK  6 active torsions:
REMARK  status: ('A' for Active; 'I' for Inactive)
REMARK    1  A    between atoms: C_2  and  N_3 
REMARK    2  A    between atoms: C_2  and  C_16 
REMARK    3  A    between atoms: N_3  and  C_6 
REMARK    4  A    between atoms: C_16  and  C_17 
REMARK       I    between atoms: C_17  and  N_18 
REMARK    5  A    between atoms: N_18  and  C_19 
REMARK    6  A    between atoms: C_22  and  O_23 
ROOT
HETATM    1  C   UNL     1       7.017  28.766  55.455  1.00  0.00     0.040 C 
HETATM    2  C   UNL     1       6.426  27.703  54.535  1.00  0.00     0.191 C 
ENDROOT
BRANCH   2   3
HETATM    3  N   UNL     1       7.262  26.446  54.607  1.00  0.00    -0.063 N 
HETATM    4  H   UNL     1       7.657  26.333  53.646  1.00  0.00     0.278 HD
HETATM    5  H   UNL     1       8.074  26.597  55.217  1.00  0.00     0.278 HD
BRANCH   3   6
HETATM    6  C   UNL     1       6.593  25.138  54.944  1.00  0.00     0.221 C 
HETATM    7  C   UNL     1       7.429  23.940  54.586  1.00  0.00    -0.011 A 
HETATM    8  C   UNL     1       8.404  23.439  55.461  1.00  0.00     0.009 A 
HETATM    9  C   UNL     1       7.238  23.311  53.339  1.00  0.00     0.011 A 
HETATM   10  C   UNL     1       9.177  22.337  55.070  1.00  0.00     0.019 A 
HETATM   11  S   UNL     1       8.741  24.107  57.079  1.00  0.00    -0.129 SA
HETATM   12  C   UNL     1       8.985  21.728  53.830  1.00  0.00     0.001 A 
HETATM   13  C   UNL     1       8.013  22.213  52.965  1.00  0.00     0.001 A 
HETATM   14  C   UNL     1       7.382  25.272  57.372  1.00  0.00     0.082 C 
HETATM   15  C   UNL     1       6.204  25.130  56.425  1.00  0.00     0.048 C 
ENDBRANCH   3   6
ENDBRANCH   2   3
BRANCH   2  16
HETATM   16  C   UNL     1       6.383  28.231  53.089  1.00  0.00     0.135 C 
BRANCH  16  17
HETATM   17  C   UNL     1       5.280  27.567  52.290  1.00  0.00     0.224 C 
HETATM   18  N   UNL     1       5.321  27.876  50.951  1.00  0.00    -0.327 N 
HETATM   19  H   UNL     1       6.080  28.462  50.620  1.00  0.00     0.169 HD
HETATM   20  O   UNL     1       4.522  26.786  52.862  1.00  0.00    -0.273 OA
BRANCH  18  21
HETATM   21  C   UNL     1       4.414  27.467  49.948  1.00  0.00     0.034 A 
HETATM   22  C   UNL     1       4.478  26.242  49.283  1.00  0.00     0.032 A 
HETATM   23  C   UNL     1       3.512  25.901  48.327  1.00  0.00     0.039 A 
HETATM   24  C   UNL     1       2.472  26.780  48.033  1.00  0.00     0.068 A 
HETATM   25  C   UNL     1       2.423  28.018  48.668  1.00  0.00     0.039 A 
HETATM   26  C   UNL     1       3.381  28.356  49.629  1.00  0.00     0.032 A 
BRANCH  24  27
HETATM   27  O   UNL     1       1.487  26.548  47.116  1.00  0.00    -0.356 OA
HETATM   28  C   UNL     1       0.504  27.576  47.023  1.00  0.00     0.210 C 
ENDBRANCH  24  27
ENDBRANCH  18  21
ENDBRANCH  16  17
ENDBRANCH   2  16
TORSDOF 6
ENDMDL
MODEL 3
REMARK VINA RESULT:      -7.9      2.252      3.902
REMARK  6 active torsions:
REMARK  status: ('A' for Active; 'I' for Inactive)
REMARK    1  A    between atoms: C_2  and  N_3 
REMARK    2  A    between atoms: C_2  and  C_16 
REMARK    3  A    between atoms: N_3  and  C_6 
REMARK    4  A    between atoms: C_16  and  C_17 
REMARK       I    between atoms: C_17  and  N_18 
REMARK    5  A    between atoms: N_18  and  C_19 
REMARK    6  A    between atoms: C_22  and  O_23 
ROOT
HETATM    1  C   UNL     1       6.821  29.684  55.920  1.00  0.00     0.040 C 
HETATM    2  C   UNL     1       8.156  28.977  55.713  1.00  0.00     0.191 C 
ENDROOT
BRANCH   2   3
HETATM    3  N   UNL     1       7.993  27.496  55.973  1.00  0.00    -0.063 N 
HETATM    4  H   UNL     1       8.850  27.058  55.566  1.00  0.00     0.278 HD
HETATM    5  H   UNL     1       8.044  27.307  56.980  1.00  0.00     0.278 HD
BRANCH   3   6
HETATM    6  C   UNL     1       6.819  26.770  55.366  1.00  0.00     0.221 C 
HETATM    7  C   UNL     1       7.229  25.700  54.392  1.00  0.00    -0.011 A 
HETATM    8  C   UNL     1       7.554  24.405  54.821  1.00  0.00     0.009 A 
HETATM    9  C   UNL     1       7.298  26.006  53.017  1.00  0.00     0.011 A 
HETATM   10  C   UNL     1       7.958  23.450  53.877  1.00  0.00     0.019 A 
HETATM   11  S   UNL     1       7.486  23.861  56.517  1.00  0.00    -0.129 SA
HETATM   12  C   UNL     1       8.031  23.766  52.521  1.00  0.00     0.001 A 
HETATM   13  C   UNL     1       7.699  25.044  52.090  1.00  0.00     0.001 A 
HETATM   14  C   UNL     1       6.641  25.211  57.384  1.00  0.00     0.082 C 
HETATM   15  C   UNL     1       5.934  26.206  56.482  1.00  0.00     0.048 C 
ENDBRANCH   3   6
ENDBRANCH   2   3
BRANCH   2  16
HETATM   16  C   UNL     1       9.213  29.569  56.663  1.00  0.00     0.135 C 
BRANCH  16  17
HETATM   17  C   UNL     1       8.665  29.734  58.066  1.00  0.00     0.224 C 
HETATM   18  N   UNL     1       8.774  31.021  58.541  1.00  0.00    -0.327 N 
HETATM   19  H   UNL     1       9.155  31.727  57.921  1.00  0.00     0.169 HD
HETATM   20  O   UNL     1       8.127  28.772  58.609  1.00  0.00    -0.273 OA
BRANCH  18  21
HETATM   21  C   UNL     1       8.409  31.496  59.820  1.00  0.00     0.034 A 
HETATM   22  C   UNL     1       9.270  31.533  60.918  1.00  0.00     0.032 A 
HETATM   23  C   UNL     1       8.836  32.058  62.144  1.00  0.00     0.039 A 
HETATM   24  C   UNL     1       7.540  32.553  62.277  1.00  0.00     0.068 A 
HETATM   25  C   UNL     1       6.668  32.486  61.195  1.00  0.00     0.039 A 
HETATM   26  C   UNL     1       7.101  31.971  59.969  1.00  0.00     0.032 A 
BRANCH  24  27
HETATM   27  O   UNL     1       7.017  33.078  63.425  1.00  0.00    -0.356 OA
HETATM   28  C   UNL     1       5.678  32.681  63.706  1.00  0.00     0.210 C 
ENDBRANCH  24  27
ENDBRANCH  18  21
ENDBRANCH  16  17
ENDBRANCH   2  16
TORSDOF 6
ENDMDL
MODEL 4
REMARK VINA RESULT:      -7.7      2.721      4.896
REMARK  6 active torsions:
REMARK  status: ('A' for Active; 'I' for Inactive)
REMARK    1  A    between atoms: C_2  and  N_3 
REMARK    2  A    between atoms: C_2  and  C_16 
REMARK    3  A    between atoms: N_3  and  C_6 
REMARK    4  A    between atoms: C_16  and  C_17 
REMARK       I    between atoms: C_17  and  N_18 
REMARK    5  A    between atoms: N_18  and  C_19 
REMARK    6  A    between atoms: C_22  and  O_23 
ROOT
HETATM    1  C   UNL     1       6.429  29.466  57.364  1.00  0.00     0.040 C 
HETATM    2  C   UNL     1       7.866  29.187  56.937  1.00  0.00     0.191 C 
ENDROOT
BRANCH   2   3
HETATM    3  N   UNL     1       7.954  27.809  56.320  1.00  0.00    -0.063 N 
HETATM    4  H   UNL     1       7.978  27.980  55.289  1.00  0.00     0.278 HD
HETATM    5  H   UNL     1       8.859  27.380  56.544  1.00  0.00     0.278 HD
BRANCH   3   6
HETATM    6  C   UNL     1       6.838  26.825  56.560  1.00  0.00     0.221 C 
HETATM    7  C   UNL     1       6.468  26.044  55.329  1.00  0.00    -0.011 A 
HETATM    8  C   UNL     1       7.155  24.874  54.971  1.00  0.00     0.009 A 
HETATM    9  C   UNL     1       5.416  26.499  54.509  1.00  0.00     0.011 A 
HETATM   10  C   UNL     1       6.793  24.196  53.799  1.00  0.00     0.019 A 
HETATM   11  S   UNL     1       8.485  24.159  55.919  1.00  0.00    -0.129 SA
HETATM   12  C   UNL     1       5.755  24.661  52.991  1.00  0.00     0.001 A 
HETATM   13  C   UNL     1       5.065  25.812  53.347  1.00  0.00     0.001 A 
HETATM   14  C   UNL     1       8.465  25.083  57.480  1.00  0.00     0.082 C 
HETATM   15  C   UNL     1       7.211  25.901  57.722  1.00  0.00     0.048 C 
ENDBRANCH   3   6
ENDBRANCH   2   3
BRANCH   2  16
HETATM   16  C   UNL     1       8.801  29.283  58.158  1.00  0.00     0.135 C 
BRANCH  16  17
HETATM   17  C   UNL     1       8.599  30.584  58.908  1.00  0.00     0.224 C 
HETATM   18  N   UNL     1       8.025  30.411  60.146  1.00  0.00    -0.327 N 
HETATM   19  H   UNL     1       7.836  29.464  60.455  1.00  0.00     0.169 HD
HETATM   20  O   UNL     1       9.011  31.627  58.405  1.00  0.00    -0.273 OA
BRANCH  18  21
HETATM   21  C   UNL     1       7.658  31.416  61.068  1.00  0.00     0.034 A 
HETATM   22  C   UNL     1       6.649  32.354  60.847  1.00  0.00     0.032 A 
HETATM   23  C   UNL     1       6.323  33.294  61.836  1.00  0.00     0.039 A 
HETATM   24  C   UNL     1       7.002  33.298  63.052  1.00  0.00     0.068 A 
HETATM   25  C   UNL     1       8.033  32.388  63.264  1.00  0.00     0.039 A 
HETATM   26  C   UNL     1       8.353  31.444  62.284  1.00  0.00     0.032 A 
BRANCH  24  27
HETATM   27  O   UNL     1       6.768  34.172  64.075  1.00  0.00    -0.356 OA
HETATM   28  C   UNL     1       7.066  33.666  65.373  1.00  0.00     0.210 C 
ENDBRANCH  24  27
ENDBRANCH  18  21
ENDBRANCH  16  17
ENDBRANCH   2  16
TORSDOF 6
ENDMDL
MODEL 5
REMARK VINA RESULT:      -7.7      3.154      5.506
REMARK  6 active torsions:
REMARK  status: ('A' for Active; 'I' for Inactive)
REMARK    1  A    between atoms: C_2  and  N_3 
REMARK    2  A    between atoms: C_2  and  C_16 
REMARK    3  A    between atoms: N_3  and  C_6 
REMARK    4  A    between atoms: C_16  and  C_17 
REMARK       I    between atoms: C_17  and  N_18 
REMARK    5  A    between atoms: N_18  and  C_19 
REMARK    6  A    between atoms: C_22  and  O_23 
ROOT
HETATM    1  C   UNL     1       5.877  30.424  57.874  1.00  0.00     0.040 C 
HETATM    2  C   UNL     1       7.190  29.780  57.444  1.00  0.00     0.191 C 
ENDROOT
BRANCH   2   3
HETATM    3  N   UNL     1       6.938  28.355  57.004  1.00  0.00    -0.063 N 
HETATM    4  H   UNL     1       6.895  27.805  57.892  1.00  0.00     0.278 HD
HETATM    5  H   UNL     1       6.002  28.274  56.591  1.00  0.00     0.278 HD
BRANCH   3   6
HETATM    6  C   UNL     1       7.954  27.666  56.130  1.00  0.00     0.221 C 
HETATM    7  C   UNL     1       7.818  26.168  56.138  1.00  0.00    -0.011 A 
HETATM    8  C   UNL     1       6.927  25.510  55.279  1.00  0.00     0.009 A 
HETATM    9  C   UNL     1       8.596  25.407  57.035  1.00  0.00     0.011 A 
HETATM   10  C   UNL     1       6.815  24.114  55.344  1.00  0.00     0.019 A 
HETATM   11  S   UNL     1       5.901  26.330  54.074  1.00  0.00    -0.129 SA
HETATM   12  C   UNL     1       7.583  23.372  56.242  1.00  0.00     0.001 A 
HETATM   13  C   UNL     1       8.476  24.019  57.086  1.00  0.00     0.001 A 
HETATM   14  C   UNL     1       6.524  28.033  54.044  1.00  0.00     0.082 C 
HETATM   15  C   UNL     1       7.874  28.231  54.709  1.00  0.00     0.048 C 
ENDBRANCH   3   6
ENDBRANCH   2   3
BRANCH   2  16
HETATM   16  C   UNL     1       8.191  29.805  58.615  1.00  0.00     0.135 C 
BRANCH  16  17
HETATM   17  C   UNL     1       8.059  31.077  59.427  1.00  0.00     0.224 C 
HETATM   18  N   UNL     1       7.528  30.867  60.679  1.00  0.00    -0.327 N 
HETATM   19  H   UNL     1       7.320  29.913  60.954  1.00  0.00     0.169 HD
HETATM   20  O   UNL     1       8.486  32.128  58.955  1.00  0.00    -0.273 OA
BRANCH  18  21
HETATM   21  C   UNL     1       7.229  31.840  61.657  1.00  0.00     0.034 A 
HETATM   22  C   UNL     1       6.168  32.743  61.568  1.00  0.00     0.032 A 
HETATM   23  C   UNL     1       5.920  33.652  62.606  1.00  0.00     0.039 A 
HETATM   24  C   UNL     1       6.727  33.661  63.741  1.00  0.00     0.068 A 
HETATM   25  C   UNL     1       7.807  32.786  63.820  1.00  0.00     0.039 A 
HETATM   26  C   UNL     1       8.051  31.873  62.790  1.00  0.00     0.032 A 
BRANCH  24  27
HETATM   27  O   UNL     1       6.576  34.507  64.802  1.00  0.00    -0.356 OA
HETATM   28  C   UNL     1       6.797  33.911  66.078  1.00  0.00     0.210 C 
ENDBRANCH  24  27
ENDBRANCH  18  21
ENDBRANCH  16  17
ENDBRANCH   2  16
TORSDOF 6
ENDMDL
MODEL 6
REMARK VINA RESULT:      -7.6      4.499      8.153
REMARK  6 active torsions:
REMARK  status: ('A' for Active; 'I' for Inactive)
REMARK    1  A    between atoms: C_2  and  N_3 
REMARK    2  A    between atoms: C_2  and  C_16 
REMARK    3  A    between atoms: N_3  and  C_6 
REMARK    4  A    between atoms: C_16  and  C_17 
REMARK       I    between atoms: C_17  and  N_18 
REMARK    5  A    between atoms: N_18  and  C_19 
REMARK    6  A    between atoms: C_22  and  O_23 
ROOT
HETATM    1  C   UNL     1       3.543  30.118  53.028  1.00  0.00     0.040 C 
HETATM    2  C   UNL     1       4.327  28.869  52.638  1.00  0.00     0.191 C 
ENDROOT
BRANCH   2   3
HETATM    3  N   UNL     1       3.734  28.267  51.384  1.00  0.00    -0.063 N 
HETATM    4  H   UNL     1       3.325  27.357  51.693  1.00  0.00     0.278 HD
HETATM    5  H   UNL     1       2.937  28.829  51.067  1.00  0.00     0.278 HD
BRANCH   3   6
HETATM    6  C   UNL     1       4.642  27.949  50.223  1.00  0.00     0.221 C 
HETATM    7  C   UNL     1       3.931  27.254  49.094  1.00  0.00    -0.011 A 
HETATM    8  C   UNL     1       3.247  27.975  48.105  1.00  0.00     0.009 A 
HETATM    9  C   UNL     1       3.943  25.845  49.032  1.00  0.00     0.011 A 
HETATM   10  C   UNL     1       2.576  27.281  47.089  1.00  0.00     0.019 A 
HETATM   11  S   UNL     1       3.167  29.755  48.032  1.00  0.00    -0.129 SA
HETATM   12  C   UNL     1       2.587  25.887  47.043  1.00  0.00     0.001 A 
HETATM   13  C   UNL     1       3.273  25.169  48.014  1.00  0.00     0.001 A 
HETATM   14  C   UNL     1       4.375  30.305  49.268  1.00  0.00     0.082 C 
HETATM   15  C   UNL     1       5.333  29.231  49.748  1.00  0.00     0.048 C 
ENDBRANCH   3   6
ENDBRANCH   2   3
BRANCH   2  16
HETATM   16  C   UNL     1       4.286  27.846  53.789  1.00  0.00     0.135 C 
BRANCH  16  17
HETATM   17  C   UNL     1       5.570  27.046  53.864  1.00  0.00     0.224 C 
HETATM   18  N   UNL     1       5.361  25.687  53.870  1.00  0.00    -0.327 N 
HETATM   19  H   UNL     1       4.408  25.351  53.783  1.00  0.00     0.169 HD
HETATM   20  O   UNL     1       6.643  27.644  53.839  1.00  0.00    -0.273 OA
BRANCH  18  21
HETATM   21  C   UNL     1       6.334  24.669  53.984  1.00  0.00     0.034 A 
HETATM   22  C   UNL     1       6.794  24.155  55.197  1.00  0.00     0.032 A 
HETATM   23  C   UNL     1       7.735  23.116  55.217  1.00  0.00     0.039 A 
HETATM   24  C   UNL     1       8.220  22.584  54.025  1.00  0.00     0.068 A 
HETATM   25  C   UNL     1       7.791  23.117  52.813  1.00  0.00     0.039 A 
HETATM   26  C   UNL     1       6.845  24.146  52.790  1.00  0.00     0.032 A 
BRANCH  24  27
HETATM   27  O   UNL     1       9.141  21.579  53.934  1.00  0.00    -0.356 OA
HETATM   28  C   UNL     1       8.680  20.404  53.273  1.00  0.00     0.210 C 
ENDBRANCH  24  27
ENDBRANCH  18  21
ENDBRANCH  16  17
ENDBRANCH   2  16
TORSDOF 6
ENDMDL
MODEL 7
REMARK VINA RESULT:      -7.6      3.207      6.926
REMARK  6 active torsions:
REMARK  status: ('A' for Active; 'I' for Inactive)
REMARK    1  A    between atoms: C_2  and  N_3 
REMARK    2  A    between atoms: C_2  and  C_16 
REMARK    3  A    between atoms: N_3  and  C_6 
REMARK    4  A    between atoms: C_16  and  C_17 
REMARK       I    between atoms: C_17  and  N_18 
REMARK    5  A    between atoms: N_18  and  C_19 
REMARK    6  A    between atoms: C_22  and  O_23 
ROOT
HETATM    1  C   UNL     1       3.756  28.712  51.897  1.00  0.00     0.040 C 
HETATM    2  C   UNL     1       4.475  27.807  52.892  1.00  0.00     0.191 C 
ENDROOT
BRANCH   2   3
HETATM    3  N   UNL     1       5.032  28.639  54.025  1.00  0.00    -0.063 N 
HETATM    4  H   UNL     1       6.053  28.419  54.042  1.00  0.00     0.278 HD
HETATM    5  H   UNL     1       4.974  29.637  53.792  1.00  0.00     0.278 HD
BRANCH   3   6
HETATM    6  C   UNL     1       4.527  28.402  55.426  1.00  0.00     0.221 C 
HETATM    7  C   UNL     1       5.485  27.606  56.269  1.00  0.00    -0.011 A 
HETATM    8  C   UNL     1       6.534  28.223  56.965  1.00  0.00     0.009 A 
HETATM    9  C   UNL     1       5.332  26.207  56.356  1.00  0.00     0.011 A 
HETATM   10  C   UNL     1       7.418  27.435  57.716  1.00  0.00     0.019 A 
HETATM   11  S   UNL     1       6.838  29.980  56.977  1.00  0.00    -0.129 SA
HETATM   12  C   UNL     1       7.263  26.050  57.787  1.00  0.00     0.001 A 
HETATM   13  C   UNL     1       6.218  25.436  57.109  1.00  0.00     0.001 A 
HETATM   14  C   UNL     1       5.361  30.691  56.198  1.00  0.00     0.082 C 
HETATM   15  C   UNL     1       4.183  29.743  56.080  1.00  0.00     0.048 C 
ENDBRANCH   3   6
ENDBRANCH   2   3
BRANCH   2  16
HETATM   16  C   UNL     1       5.613  27.051  52.181  1.00  0.00     0.135 C 
BRANCH  16  17
HETATM   17  C   UNL     1       5.828  25.678  52.786  1.00  0.00     0.224 C 
HETATM   18  N   UNL     1       7.150  25.403  53.046  1.00  0.00    -0.327 N 
HETATM   19  H   UNL     1       7.834  26.128  52.859  1.00  0.00     0.169 HD
HETATM   20  O   UNL     1       4.846  24.988  53.051  1.00  0.00    -0.273 OA
BRANCH  18  21
HETATM   21  C   UNL     1       7.691  24.203  53.557  1.00  0.00     0.034 A 
HETATM   22  C   UNL     1       8.265  24.077  54.823  1.00  0.00     0.032 A 
HETATM   23  C   UNL     1       8.744  22.836  55.266  1.00  0.00     0.039 A 
HETATM   24  C   UNL     1       8.648  21.713  54.447  1.00  0.00     0.068 A 
HETATM   25  C   UNL     1       8.109  21.841  53.171  1.00  0.00     0.039 A 
HETATM   26  C   UNL     1       7.622  23.075  52.730  1.00  0.00     0.032 A 
BRANCH  24  27
HETATM   27  O   UNL     1       9.089  20.463  54.779  1.00  0.00    -0.356 OA
HETATM   28  C   UNL     1       8.550  19.942  55.990  1.00  0.00     0.210 C 
ENDBRANCH  24  27
ENDBRANCH  18  21
ENDBRANCH  16  17
ENDBRANCH   2  16
TORSDOF 6
ENDMDL
MODEL 8
REMARK VINA RESULT:      -7.5      4.844      8.193
REMARK  6 active torsions:
REMARK  status: ('A' for Active; 'I' for Inactive)
REMARK    1  A    between atoms: C_2  and  N_3 
REMARK    2  A    between atoms: C_2  and  C_16 
REMARK    3  A    between atoms: N_3  and  C_6 
REMARK    4  A    between atoms: C_16  and  C_17 
REMARK       I    between atoms: C_17  and  N_18 
REMARK    5  A    between atoms: N_18  and  C_19 
REMARK    6  A    between atoms: C_22  and  O_23 
ROOT
HETATM    1  C   UNL     1       4.498  28.004  53.866  1.00  0.00     0.040 C 
HETATM    2  C   UNL     1       4.875  27.194  52.630  1.00  0.00     0.191 C 
ENDROOT
BRANCH   2   3
HETATM    3  N   UNL     1       5.664  25.972  53.044  1.00  0.00    -0.063 N 
HETATM    4  H   UNL     1       5.206  25.644  53.925  1.00  0.00     0.278 HD
HETATM    5  H   UNL     1       5.522  25.214  52.367  1.00  0.00     0.278 HD
BRANCH   3   6
HETATM    6  C   UNL     1       7.130  26.118  53.361  1.00  0.00     0.221 C 
HETATM    7  C   UNL     1       7.439  25.920  54.820  1.00  0.00    -0.011 A 
HETATM    8  C   UNL     1       7.654  24.641  55.355  1.00  0.00     0.009 A 
HETATM    9  C   UNL     1       7.505  27.041  55.673  1.00  0.00     0.011 A 
HETATM   10  C   UNL     1       7.912  24.505  56.727  1.00  0.00     0.019 A 
HETATM   11  S   UNL     1       7.633  23.135  54.402  1.00  0.00    -0.129 SA
HETATM   12  C   UNL     1       7.965  25.621  57.562  1.00  0.00     0.001 A 
HETATM   13  C   UNL     1       7.764  26.889  57.035  1.00  0.00     0.001 A 
HETATM   14  C   UNL     1       7.599  23.700  52.678  1.00  0.00     0.082 C 
HETATM   15  C   UNL     1       7.942  25.165  52.480  1.00  0.00     0.048 C 
ENDBRANCH   3   6
ENDBRANCH   2   3
BRANCH   2  16
HETATM   16  C   UNL     1       5.709  28.064  51.671  1.00  0.00     0.135 C 
BRANCH  16  17
HETATM   17  C   UNL     1       5.107  28.087  50.281  1.00  0.00     0.224 C 
HETATM   18  N   UNL     1       3.910  27.414  50.199  1.00  0.00    -0.327 N 
HETATM   19  H   UNL     1       3.528  27.015  51.050  1.00  0.00     0.169 HD
HETATM   20  O   UNL     1       5.670  28.735  49.402  1.00  0.00    -0.273 OA
BRANCH  18  21
HETATM   21  C   UNL     1       3.121  27.204  49.046  1.00  0.00     0.034 A 
HETATM   22  C   UNL     1       3.420  26.275  48.049  1.00  0.00     0.032 A 
HETATM   23  C   UNL     1       2.560  26.105  46.955  1.00  0.00     0.039 A 
HETATM   24  C   UNL     1       1.393  26.859  46.855  1.00  0.00     0.068 A 
HETATM   25  C   UNL     1       1.108  27.812  47.828  1.00  0.00     0.039 A 
HETATM   26  C   UNL     1       1.960  27.977  48.925  1.00  0.00     0.032 A 
BRANCH  24  27
HETATM   27  O   UNL     1       0.493  26.776  45.830  1.00  0.00    -0.356 OA
HETATM   28  C   UNL     1      -0.446  27.845  45.773  1.00  0.00     0.210 C 
ENDBRANCH  24  27
ENDBRANCH  18  21
ENDBRANCH  16  17
ENDBRANCH   2  16
TORSDOF 6
ENDMDL
MODEL 9
REMARK VINA RESULT:      -7.5      3.215      9.264
REMARK  6 active torsions:
REMARK  status: ('A' for Active; 'I' for Inactive)
REMARK    1  A    between atoms: C_2  and  N_3 
REMARK    2  A    between atoms: C_2  and  C_16 
REMARK    3  A    between atoms: N_3  and  C_6 
REMARK    4  A    between atoms: C_16  and  C_17 
REMARK       I    between atoms: C_17  and  N_18 
REMARK    5  A    between atoms: N_18  and  C_19 
REMARK    6  A    between atoms: C_22  and  O_23 
ROOT
HETATM    1  C   UNL     1       5.294  32.609  57.727  1.00  0.00     0.040 C 
HETATM    2  C   UNL     1       5.588  31.156  58.085  1.00  0.00     0.191 C 
ENDROOT
BRANCH   2   3
HETATM    3  N   UNL     1       6.368  31.099  59.379  1.00  0.00    -0.063 N 
HETATM    4  H   UNL     1       5.640  31.076  60.128  1.00  0.00     0.278 HD
HETATM    5  H   UNL     1       6.863  30.204  59.453  1.00  0.00     0.278 HD
BRANCH   3   6
HETATM    6  C   UNL     1       7.295  32.236  59.727  1.00  0.00     0.221 C 
HETATM    7  C   UNL     1       7.274  32.585  61.190  1.00  0.00    -0.011 A 
HETATM    8  C   UNL     1       8.080  31.907  62.115  1.00  0.00     0.009 A 
HETATM    9  C   UNL     1       6.418  33.610  61.645  1.00  0.00     0.011 A 
HETATM   10  C   UNL     1       8.004  32.250  63.473  1.00  0.00     0.019 A 
HETATM   11  S   UNL     1       9.230  30.613  61.690  1.00  0.00    -0.129 SA
HETATM   12  C   UNL     1       7.147  33.259  63.913  1.00  0.00     0.001 A 
HETATM   13  C   UNL     1       6.356  33.941  62.998  1.00  0.00     0.001 A 
HETATM   14  C   UNL     1       9.300  30.659  59.878  1.00  0.00     0.082 C 
HETATM   15  C   UNL     1       8.711  31.907  59.247  1.00  0.00     0.048 C 
ENDBRANCH   3   6
ENDBRANCH   2   3
BRANCH   2  16
HETATM   16  C   UNL     1       6.391  30.492  56.951  1.00  0.00     0.135 C 
BRANCH  16  17
HETATM   17  C   UNL     1       6.298  28.981  57.019  1.00  0.00     0.224 C 
HETATM   18  N   UNL     1       7.401  28.347  56.495  1.00  0.00    -0.327 N 
HETATM   19  H   UNL     1       8.168  28.922  56.163  1.00  0.00     0.169 HD
HETATM   20  O   UNL     1       5.328  28.472  57.576  1.00  0.00    -0.273 OA
BRANCH  18  21
HETATM   21  C   UNL     1       7.607  26.957  56.360  1.00  0.00     0.034 A 
HETATM   22  C   UNL     1       8.095  26.133  57.375  1.00  0.00     0.032 A 
HETATM   23  C   UNL     1       8.232  24.753  57.166  1.00  0.00     0.039 A 
HETATM   24  C   UNL     1       7.878  24.189  55.943  1.00  0.00     0.068 A 
HETATM   25  C   UNL     1       7.424  25.011  54.916  1.00  0.00     0.039 A 
HETATM   26  C   UNL     1       7.278  26.386  55.125  1.00  0.00     0.032 A 
BRANCH  24  27
HETATM   27  O   UNL     1       7.979  22.862  55.635  1.00  0.00    -0.356 OA
HETATM   28  C   UNL     1       7.648  22.535  54.288  1.00  0.00     0.210 C 
ENDBRANCH  24  27
ENDBRANCH  18  21
ENDBRANCH  16  17
ENDBRANCH   2  16
TORSDOF 6
ENDMDL
MODEL 10
REMARK VINA RESULT:      -7.4      4.392      7.130
REMARK  6 active torsions:
REMARK  status: ('A' for Active; 'I' for Inactive)
REMARK    1  A    between atoms: C_2  and  N_3 
REMARK    2  A    between atoms: C_2  and  C_16 
REMARK    3  A    between atoms: N_3  and  C_6 
REMARK    4  A    between atoms: C_16  and  C_17 
REMARK       I    between atoms: C_17  and  N_18 
REMARK    5  A    between atoms: N_18  and  C_19 
REMARK    6  A    between atoms: C_22  and  O_23 
ROOT
HETATM    1  C   UNL     1       9.679  30.449  58.604  1.00  0.00     0.040 C 
HETATM    2  C   UNL     1       8.484  30.169  59.510  1.00  0.00     0.191 C 
ENDROOT
BRANCH   2   3
HETATM    3  N   UNL     1       7.485  29.301  58.780  1.00  0.00    -0.063 N 
HETATM    4  H   UNL     1       7.391  28.446  59.373  1.00  0.00     0.278 HD
HETATM    5  H   UNL     1       6.559  29.743  58.792  1.00  0.00     0.278 HD
BRANCH   3   6
HETATM    6  C   UNL     1       7.812  28.816  57.390  1.00  0.00     0.221 C 
HETATM    7  C   UNL     1       7.390  27.393  57.150  1.00  0.00    -0.011 A 
HETATM    8  C   UNL     1       6.087  27.075  56.739  1.00  0.00     0.009 A 
HETATM    9  C   UNL     1       8.319  26.352  57.350  1.00  0.00     0.011 A 
HETATM   10  C   UNL     1       5.733  25.731  56.555  1.00  0.00     0.019 A 
HETATM   11  S   UNL     1       4.812  28.279  56.418  1.00  0.00    -0.129 SA
HETATM   12  C   UNL     1       6.659  24.709  56.765  1.00  0.00     0.001 A 
HETATM   13  C   UNL     1       7.953  25.020  57.160  1.00  0.00     0.001 A 
HETATM   14  C   UNL     1       5.686  29.868  56.439  1.00  0.00     0.082 C 
HETATM   15  C   UNL     1       7.198  29.767  56.359  1.00  0.00     0.048 C 
ENDBRANCH   3   6
ENDBRANCH   2   3
BRANCH   2  16
HETATM   16  C   UNL     1       7.827  31.497  59.930  1.00  0.00     0.135 C 
BRANCH  16  17
HETATM   17  C   UNL     1       7.718  31.608  61.438  1.00  0.00     0.224 C 
HETATM   18  N   UNL     1       6.842  32.586  61.846  1.00  0.00    -0.327 N 
HETATM   19  H   UNL     1       6.332  33.097  61.134  1.00  0.00     0.169 HD
HETATM   20  O   UNL     1       8.334  30.806  62.136  1.00  0.00    -0.273 OA
BRANCH  18  21
HETATM   21  C   UNL     1       6.552  32.978  63.172  1.00  0.00     0.034 A 
HETATM   22  C   UNL     1       7.520  33.284  64.130  1.00  0.00     0.032 A 
HETATM   23  C   UNL     1       7.142  33.703  65.413  1.00  0.00     0.039 A 
HETATM   24  C   UNL     1       5.795  33.823  65.745  1.00  0.00     0.068 A 
HETATM   25  C   UNL     1       4.826  33.485  64.805  1.00  0.00     0.039 A 
HETATM   26  C   UNL     1       5.200  33.076  63.522  1.00  0.00     0.032 A 
BRANCH  24  27
HETATM   27  O   UNL     1       5.322  34.215  66.965  1.00  0.00    -0.356 OA
HETATM   28  C   UNL     1       4.032  34.819  66.939  1.00  0.00     0.210 C 
ENDBRANCH  24  27
ENDBRANCH  18  21
ENDBRANCH  16  17
ENDBRANCH   2  16
TORSDOF 6
ENDMDL
