MODEL 1
REMARK VINA RESULT:      -9.6      0.000      0.000
REMARK  3 active torsions:
REMARK  status: ('A' for Active; 'I' for Inactive)
REMARK    1  A    between atoms: N_4  and  C_5 
REMARK    2  A    between atoms: C_5  and  C_6 
REMARK       I    between atoms: C_6  and  N_7 
REMARK    3  A    between atoms: N_7  and  C_8 
ROOT
HETATM    1  C   UNL     1       6.246  25.860  57.458  1.00  0.00     0.257 C 
ENDROOT
BRANCH   1   2
HETATM    2  N   UNL     1       5.618  26.413  56.263  1.00  0.00    -0.225 N 
HETATM    3  N   UNL     1       5.662  25.626  55.137  1.00  0.00    -0.173 NA
HETATM    4  C   UNL     1       5.211  26.095  54.015  1.00  0.00     0.062 A 
HETATM    5  C   UNL     1       5.294  25.200  52.801  1.00  0.00     0.073 C 
HETATM    6  C   UNL     1       4.637  27.448  53.874  1.00  0.00     0.006 A 
HETATM    7  C   UNL     1       4.636  28.256  55.005  1.00  0.00     0.046 A 
HETATM    8  C   UNL     1       4.114  27.934  52.669  1.00  0.00     0.014 A 
HETATM    9  C   UNL     1       5.192  27.738  56.267  1.00  0.00     0.275 A 
HETATM   10  C   UNL     1       4.111  29.553  54.944  1.00  0.00     0.018 A 
HETATM   11  O   UNL     1       5.246  28.469  57.256  1.00  0.00    -0.266 OA
HETATM   12  C   UNL     1       3.589  30.037  53.744  1.00  0.00     0.001 A 
HETATM   13  C   UNL     1       3.592  29.228  52.609  1.00  0.00     0.001 A 
ENDBRANCH   1   2
BRANCH   1  14
HETATM   14  C   UNL     1       7.516  25.074  57.126  1.00  0.00     0.238 C 
HETATM   15  N   UNL     1       7.305  23.723  56.946  1.00  0.00    -0.351 N 
HETATM   16  H   UNL     1       6.347  23.430  56.757  1.00  0.00     0.163 HD
HETATM   17  O   UNL     1       8.623  25.598  57.031  1.00  0.00    -0.272 OA
BRANCH  15  18
HETATM   18  C   UNL     1       8.377  22.825  56.592  1.00  0.00     0.118 C 
HETATM   19  C   UNL     1       8.247  22.277  55.196  1.00  0.00    -0.029 A 
HETATM   20  C   UNL     1       8.538  20.908  55.171  1.00  0.00    -0.050 A 
HETATM   21  C   UNL     1       7.945  22.956  54.024  1.00  0.00     0.010 A 
HETATM   22  C   UNL     1       8.517  20.189  53.987  1.00  0.00     0.007 A 
HETATM   23  C   UNL     1       8.908  20.414  56.535  1.00  0.00     0.041 C 
HETATM   24  C   UNL     1       8.191  20.864  52.808  1.00  0.00     0.001 A 
HETATM   25  C   UNL     1       7.910  22.237  52.826  1.00  0.00     0.001 A 
HETATM   26  C   UNL     1       8.339  21.525  57.424  1.00  0.00     0.034 C 
ENDBRANCH  15  18
ENDBRANCH   1  14
TORSDOF 3
ENDMDL
MODEL 2
REMARK VINA RESULT:      -9.4      3.378      7.082
REMARK  3 active torsions:
REMARK  status: ('A' for Active; 'I' for Inactive)
REMARK    1  A    between atoms: N_4  and  C_5 
REMARK    2  A    between atoms: C_5  and  C_6 
REMARK       I    between atoms: C_6  and  N_7 
REMARK    3  A    between atoms: N_7  and  C_8 
ROOT
HETATM    1  C   UNL     1       5.006  27.023  56.521  1.00  0.00     0.257 C 
ENDROOT
BRANCH   1   2
HETATM    2  N   UNL     1       5.912  25.953  56.118  1.00  0.00    -0.225 N 
HETATM    3  N   UNL     1       6.911  25.639  57.008  1.00  0.00    -0.173 NA
HETATM    4  C   UNL     1       7.811  24.765  56.673  1.00  0.00     0.062 A 
HETATM    5  C   UNL     1       8.898  24.464  57.677  1.00  0.00     0.073 C 
HETATM    6  C   UNL     1       7.821  24.073  55.369  1.00  0.00     0.006 A 
HETATM    7  C   UNL     1       6.835  24.427  54.455  1.00  0.00     0.046 A 
HETATM    8  C   UNL     1       8.771  23.102  55.029  1.00  0.00     0.014 A 
HETATM    9  C   UNL     1       5.843  25.453  54.821  1.00  0.00     0.275 A 
HETATM   10  C   UNL     1       6.787  23.814  53.197  1.00  0.00     0.018 A 
HETATM   11  O   UNL     1       5.004  25.812  53.996  1.00  0.00    -0.266 OA
HETATM   12  C   UNL     1       7.732  22.845  52.859  1.00  0.00     0.001 A 
HETATM   13  C   UNL     1       8.723  22.491  53.773  1.00  0.00     0.001 A 
ENDBRANCH   1   2
BRANCH   1  14
HETATM   14  C   UNL     1       5.641  28.405  56.351  1.00  0.00     0.238 C 
HETATM   15  N   UNL     1       6.305  28.857  57.473  1.00  0.00    -0.351 N 
HETATM   16  H   UNL     1       6.563  28.155  58.166  1.00  0.00     0.163 HD
HETATM   17  O   UNL     1       5.566  29.054  55.311  1.00  0.00    -0.272 OA
BRANCH  15  18
HETATM   18  C   UNL     1       6.996  30.123  57.491  1.00  0.00     0.118 C 
HETATM   19  C   UNL     1       8.487  29.979  57.345  1.00  0.00    -0.029 A 
HETATM   20  C   UNL     1       9.157  30.825  58.237  1.00  0.00    -0.050 A 
HETATM   21  C   UNL     1       9.198  29.195  56.447  1.00  0.00     0.010 A 
HETATM   22  C   UNL     1      10.541  30.892  58.263  1.00  0.00     0.007 A 
HETATM   23  C   UNL     1       8.187  31.625  59.048  1.00  0.00     0.041 C 
HETATM   24  C   UNL     1      11.260  30.087  57.377  1.00  0.00     0.001 A 
HETATM   25  C   UNL     1      10.594  29.246  56.475  1.00  0.00     0.001 A 
HETATM   26  C   UNL     1       6.900  30.812  58.870  1.00  0.00     0.034 C 
ENDBRANCH  15  18
ENDBRANCH   1  14
TORSDOF 3
ENDMDL
MODEL 3
REMARK VINA RESULT:      -9.4      3.753      8.057
REMARK  3 active torsions:
REMARK  status: ('A' for Active; 'I' for Inactive)
REMARK    1  A    between atoms: N_4  and  C_5 
REMARK    2  A    between atoms: C_5  and  C_6 
REMARK       I    between atoms: C_6  and  N_7 
REMARK    3  A    between atoms: N_7  and  C_8 
ROOT
HETATM    1  C   UNL     1       7.471  26.411  57.788  1.00  0.00     0.257 C 
ENDROOT
BRANCH   1   2
HETATM    2  N   UNL     1       7.484  25.614  56.566  1.00  0.00    -0.225 N 
HETATM    3  N   UNL     1       6.511  25.909  55.641  1.00  0.00    -0.173 NA
HETATM    4  C   UNL     1       6.402  25.175  54.576  1.00  0.00     0.062 A 
HETATM    5  C   UNL     1       5.309  25.527  53.596  1.00  0.00     0.073 C 
HETATM    6  C   UNL     1       7.282  24.024  54.292  1.00  0.00     0.006 A 
HETATM    7  C   UNL     1       8.235  23.703  55.252  1.00  0.00     0.046 A 
HETATM    8  C   UNL     1       7.186  23.261  53.122  1.00  0.00     0.014 A 
HETATM    9  C   UNL     1       8.325  24.509  56.481  1.00  0.00     0.275 A 
HETATM   10  C   UNL     1       9.101  22.620  55.050  1.00  0.00     0.018 A 
HETATM   11  O   UNL     1       9.128  24.194  57.360  1.00  0.00    -0.266 OA
HETATM   12  C   UNL     1       9.007  21.862  53.884  1.00  0.00     0.001 A 
HETATM   13  C   UNL     1       8.050  22.181  52.922  1.00  0.00     0.001 A 
ENDBRANCH   1   2
BRANCH   1  14
HETATM   14  C   UNL     1       7.814  27.877  57.520  1.00  0.00     0.238 C 
HETATM   15  N   UNL     1       6.989  28.772  58.169  1.00  0.00    -0.351 N 
HETATM   16  H   UNL     1       6.455  28.413  58.959  1.00  0.00     0.163 HD
HETATM   17  O   UNL     1       8.739  28.227  56.790  1.00  0.00    -0.272 OA
BRANCH  15  18
HETATM   18  C   UNL     1       7.180  30.198  58.064  1.00  0.00     0.118 C 
HETATM   19  C   UNL     1       7.796  30.799  59.300  1.00  0.00    -0.029 A 
HETATM   20  C   UNL     1       7.155  31.997  59.641  1.00  0.00    -0.050 A 
HETATM   21  C   UNL     1       8.880  30.344  60.036  1.00  0.00     0.010 A 
HETATM   22  C   UNL     1       7.571  32.751  60.726  1.00  0.00     0.007 A 
HETATM   23  C   UNL     1       6.070  32.322  58.663  1.00  0.00     0.041 C 
HETATM   24  C   UNL     1       8.647  32.285  61.484  1.00  0.00     0.001 A 
HETATM   25  C   UNL     1       9.299  31.092  61.140  1.00  0.00     0.001 A 
HETATM   26  C   UNL     1       5.837  30.957  58.005  1.00  0.00     0.034 C 
ENDBRANCH  15  18
ENDBRANCH   1  14
TORSDOF 3
ENDMDL
MODEL 4
REMARK VINA RESULT:      -9.4      3.268      6.985
REMARK  3 active torsions:
REMARK  status: ('A' for Active; 'I' for Inactive)
REMARK    1  A    between atoms: N_4  and  C_5 
REMARK    2  A    between atoms: C_5  and  C_6 
REMARK       I    between atoms: C_6  and  N_7 
REMARK    3  A    between atoms: N_7  and  C_8 
ROOT
HETATM    1  C   UNL     1       5.111  26.874  56.595  1.00  0.00     0.257 C 
ENDROOT
BRANCH   1   2
HETATM    2  N   UNL     1       5.783  25.936  55.701  1.00  0.00    -0.225 N 
HETATM    3  N   UNL     1       5.232  25.792  54.450  1.00  0.00    -0.173 NA
HETATM    4  C   UNL     1       5.718  24.903  53.640  1.00  0.00     0.062 A 
HETATM    5  C   UNL     1       5.071  24.770  52.282  1.00  0.00     0.073 C 
HETATM    6  C   UNL     1       6.853  24.025  53.987  1.00  0.00     0.006 A 
HETATM    7  C   UNL     1       7.377  24.144  55.268  1.00  0.00     0.046 A 
HETATM    8  C   UNL     1       7.400  23.096  53.093  1.00  0.00     0.014 A 
HETATM    9  C   UNL     1       6.793  25.121  56.203  1.00  0.00     0.275 A 
HETATM   10  C   UNL     1       8.452  23.339  55.668  1.00  0.00     0.018 A 
HETATM   11  O   UNL     1       7.215  25.190  57.357  1.00  0.00    -0.266 OA
HETATM   12  C   UNL     1       8.998  22.415  54.777  1.00  0.00     0.001 A 
HETATM   13  C   UNL     1       8.472  22.293  53.492  1.00  0.00     0.001 A 
ENDBRANCH   1   2
BRANCH   1  14
HETATM   14  C   UNL     1       5.642  28.300  56.433  1.00  0.00     0.238 C 
HETATM   15  N   UNL     1       6.396  28.739  57.502  1.00  0.00    -0.351 N 
HETATM   16  H   UNL     1       6.767  28.024  58.126  1.00  0.00     0.163 HD
HETATM   17  O   UNL     1       5.418  28.991  55.443  1.00  0.00    -0.272 OA
BRANCH  15  18
HETATM   18  C   UNL     1       7.009  30.044  57.516  1.00  0.00     0.118 C 
HETATM   19  C   UNL     1       8.508  29.989  57.381  1.00  0.00    -0.029 A 
HETATM   20  C   UNL     1       9.120  30.880  58.271  1.00  0.00    -0.050 A 
HETATM   21  C   UNL     1       9.270  29.242  56.494  1.00  0.00     0.010 A 
HETATM   22  C   UNL     1      10.497  31.029  58.306  1.00  0.00     0.007 A 
HETATM   23  C   UNL     1       8.098  31.626  59.069  1.00  0.00     0.041 C 
HETATM   24  C   UNL     1      11.269  30.262  57.432  1.00  0.00     0.001 A 
HETATM   25  C   UNL     1      10.661  29.377  56.530  1.00  0.00     0.001 A 
HETATM   26  C   UNL     1       6.863  30.737  58.888  1.00  0.00     0.034 C 
ENDBRANCH  15  18
ENDBRANCH   1  14
TORSDOF 3
ENDMDL
MODEL 5
REMARK VINA RESULT:      -9.3      3.190      4.436
REMARK  3 active torsions:
REMARK  status: ('A' for Active; 'I' for Inactive)
REMARK    1  A    between atoms: N_4  and  C_5 
REMARK    2  A    between atoms: C_5  and  C_6 
REMARK       I    between atoms: C_6  and  N_7 
REMARK    3  A    between atoms: N_7  and  C_8 
ROOT
HETATM    1  C   UNL     1       5.683  28.496  53.637  1.00  0.00     0.257 C 
ENDROOT
BRANCH   1   2
HETATM    2  N   UNL     1       5.583  28.455  52.181  1.00  0.00    -0.225 N 
HETATM    3  N   UNL     1       5.811  29.641  51.526  1.00  0.00    -0.173 NA
HETATM    4  C   UNL     1       5.642  29.701  50.241  1.00  0.00     0.062 A 
HETATM    5  C   UNL     1       5.888  31.029  49.566  1.00  0.00     0.073 C 
HETATM    6  C   UNL     1       5.217  28.546  49.425  1.00  0.00     0.006 A 
HETATM    7  C   UNL     1       4.944  27.361  50.098  1.00  0.00     0.046 A 
HETATM    8  C   UNL     1       5.076  28.605  48.033  1.00  0.00     0.014 A 
HETATM    9  C   UNL     1       5.092  27.309  51.563  1.00  0.00     0.275 A 
HETATM   10  C   UNL     1       4.532  26.225  49.389  1.00  0.00     0.018 A 
HETATM   11  O   UNL     1       4.796  26.280  52.171  1.00  0.00    -0.266 OA
HETATM   12  C   UNL     1       4.394  26.284  48.003  1.00  0.00     0.001 A 
HETATM   13  C   UNL     1       4.664  27.473  47.326  1.00  0.00     0.001 A 
ENDBRANCH   1   2
BRANCH   1  14
HETATM   14  C   UNL     1       6.906  27.733  54.148  1.00  0.00     0.238 C 
HETATM   15  N   UNL     1       6.599  26.552  54.792  1.00  0.00    -0.351 N 
HETATM   16  H   UNL     1       5.675  26.161  54.616  1.00  0.00     0.163 HD
HETATM   17  O   UNL     1       8.058  28.136  54.001  1.00  0.00    -0.272 OA
BRANCH  15  18
HETATM   18  C   UNL     1       7.624  25.680  55.312  1.00  0.00     0.118 C 
HETATM   19  C   UNL     1       7.693  24.361  54.589  1.00  0.00    -0.029 A 
HETATM   20  C   UNL     1       7.847  23.305  55.496  1.00  0.00    -0.050 A 
HETATM   21  C   UNL     1       7.675  24.121  53.223  1.00  0.00     0.010 A 
HETATM   22  C   UNL     1       7.968  21.995  55.061  1.00  0.00     0.007 A 
HETATM   23  C   UNL     1       7.914  23.813  56.902  1.00  0.00     0.041 C 
HETATM   24  C   UNL     1       7.927  21.747  53.688  1.00  0.00     0.001 A 
HETATM   25  C   UNL     1       7.785  22.801  52.775  1.00  0.00     0.001 A 
HETATM   26  C   UNL     1       7.308  25.212  56.749  1.00  0.00     0.034 C 
ENDBRANCH  15  18
ENDBRANCH   1  14
TORSDOF 3
ENDMDL
MODEL 6
REMARK VINA RESULT:      -9.3      1.318      7.133
REMARK  3 active torsions:
REMARK  status: ('A' for Active; 'I' for Inactive)
REMARK    1  A    between atoms: N_4  and  C_5 
REMARK    2  A    between atoms: C_5  and  C_6 
REMARK       I    between atoms: C_6  and  N_7 
REMARK    3  A    between atoms: N_7  and  C_8 
ROOT
HETATM    1  C   UNL     1       7.808  25.435  57.051  1.00  0.00     0.257 C 
ENDROOT
BRANCH   1   2
HETATM    2  N   UNL     1       7.995  24.479  55.964  1.00  0.00    -0.225 N 
HETATM    3  N   UNL     1       7.753  24.950  54.696  1.00  0.00    -0.173 NA
HETATM    4  C   UNL     1       7.804  24.130  53.692  1.00  0.00     0.062 A 
HETATM    5  C   UNL     1       7.514  24.689  52.320  1.00  0.00     0.073 C 
HETATM    6  C   UNL     1       8.118  22.694  53.834  1.00  0.00     0.006 A 
HETATM    7  C   UNL     1       8.318  22.214  55.123  1.00  0.00     0.046 A 
HETATM    8  C   UNL     1       8.212  21.822  52.742  1.00  0.00     0.014 A 
HETATM    9  C   UNL     1       8.213  23.138  56.265  1.00  0.00     0.275 A 
HETATM   10  C   UNL     1       8.616  20.861  55.333  1.00  0.00     0.018 A 
HETATM   11  O   UNL     1       8.332  22.707  57.412  1.00  0.00    -0.266 OA
HETATM   12  C   UNL     1       8.711  19.993  54.246  1.00  0.00     0.001 A 
HETATM   13  C   UNL     1       8.508  20.473  52.953  1.00  0.00     0.001 A 
ENDBRANCH   1   2
BRANCH   1  14
HETATM   14  C   UNL     1       6.383  25.990  57.086  1.00  0.00     0.238 C 
HETATM   15  N   UNL     1       6.293  27.321  56.733  1.00  0.00    -0.351 N 
HETATM   16  H   UNL     1       7.081  27.713  56.219  1.00  0.00     0.163 HD
HETATM   17  O   UNL     1       5.407  25.314  57.401  1.00  0.00    -0.272 OA
BRANCH  15  18
HETATM   18  C   UNL     1       5.027  28.010  56.675  1.00  0.00     0.118 C 
HETATM   19  C   UNL     1       4.613  28.356  55.269  1.00  0.00    -0.029 A 
HETATM   20  C   UNL     1       4.099  29.657  55.210  1.00  0.00    -0.050 A 
HETATM   21  C   UNL     1       4.639  27.555  54.136  1.00  0.00     0.010 A 
HETATM   22  C   UNL     1       3.620  30.187  54.022  1.00  0.00     0.007 A 
HETATM   23  C   UNL     1       4.101  30.296  56.562  1.00  0.00     0.041 C 
HETATM   24  C   UNL     1       3.667  29.393  52.875  1.00  0.00     0.001 A 
HETATM   25  C   UNL     1       4.170  28.085  52.932  1.00  0.00     0.001 A 
HETATM   26  C   UNL     1       5.104  29.414  57.313  1.00  0.00     0.034 C 
ENDBRANCH  15  18
ENDBRANCH   1  14
TORSDOF 3
ENDMDL
MODEL 7
REMARK VINA RESULT:      -9.0      2.243      3.439
REMARK  3 active torsions:
REMARK  status: ('A' for Active; 'I' for Inactive)
REMARK    1  A    between atoms: N_4  and  C_5 
REMARK    2  A    between atoms: C_5  and  C_6 
REMARK       I    between atoms: C_6  and  N_7 
REMARK    3  A    between atoms: N_7  and  C_8 
ROOT
HETATM    1  C   UNL     1       7.876  26.661  57.031  1.00  0.00     0.257 C 
ENDROOT
BRANCH   1   2
HETATM    2  N   UNL     1       7.093  27.884  56.883  1.00  0.00    -0.225 N 
HETATM    3  N   UNL     1       6.333  27.981  55.742  1.00  0.00    -0.173 NA
HETATM    4  C   UNL     1       5.690  29.081  55.497  1.00  0.00     0.062 A 
HETATM    5  C   UNL     1       4.881  29.147  54.223  1.00  0.00     0.073 C 
HETATM    6  C   UNL     1       5.722  30.254  56.392  1.00  0.00     0.006 A 
HETATM    7  C   UNL     1       6.527  30.168  57.522  1.00  0.00     0.046 A 
HETATM    8  C   UNL     1       4.993  31.424  56.144  1.00  0.00     0.014 A 
HETATM    9  C   UNL     1       7.293  28.934  57.773  1.00  0.00     0.275 A 
HETATM   10  C   UNL     1       6.610  31.245  58.414  1.00  0.00     0.018 A 
HETATM   11  O   UNL     1       8.053  28.874  58.740  1.00  0.00    -0.266 OA
HETATM   12  C   UNL     1       5.882  32.409  58.167  1.00  0.00     0.001 A 
HETATM   13  C   UNL     1       5.077  32.498  57.033  1.00  0.00     0.001 A 
ENDBRANCH   1   2
BRANCH   1  14
HETATM   14  C   UNL     1       7.149  25.443  56.458  1.00  0.00     0.238 C 
HETATM   15  N   UNL     1       7.730  24.932  55.316  1.00  0.00    -0.351 N 
HETATM   16  H   UNL     1       8.698  25.197  55.136  1.00  0.00     0.163 HD
HETATM   17  O   UNL     1       6.139  24.963  56.968  1.00  0.00    -0.272 OA
BRANCH  15  18
HETATM   18  C   UNL     1       7.206  23.764  54.653  1.00  0.00     0.118 C 
HETATM   19  C   UNL     1       7.821  22.483  55.150  1.00  0.00    -0.029 A 
HETATM   20  C   UNL     1       8.120  21.628  54.081  1.00  0.00    -0.050 A 
HETATM   21  C   UNL     1       8.047  22.081  56.459  1.00  0.00     0.010 A 
HETATM   22  C   UNL     1       8.664  20.372  54.295  1.00  0.00     0.007 A 
HETATM   23  C   UNL     1       7.720  22.242  52.777  1.00  0.00     0.041 C 
HETATM   24  C   UNL     1       8.916  19.974  55.610  1.00  0.00     0.001 A 
HETATM   25  C   UNL     1       8.607  20.821  56.684  1.00  0.00     0.001 A 
HETATM   26  C   UNL     1       7.602  23.721  53.160  1.00  0.00     0.034 C 
ENDBRANCH  15  18
ENDBRANCH   1  14
TORSDOF 3
ENDMDL
MODEL 8
REMARK VINA RESULT:      -9.0      3.764      5.325
REMARK  3 active torsions:
REMARK  status: ('A' for Active; 'I' for Inactive)
REMARK    1  A    between atoms: N_4  and  C_5 
REMARK    2  A    between atoms: C_5  and  C_6 
REMARK       I    between atoms: C_6  and  N_7 
REMARK    3  A    between atoms: N_7  and  C_8 
ROOT
HETATM    1  C   UNL     1       8.947  28.433  57.181  1.00  0.00     0.257 C 
ENDROOT
BRANCH   1   2
HETATM    2  N   UNL     1       8.345  29.530  57.932  1.00  0.00    -0.225 N 
HETATM    3  N   UNL     1       8.835  29.735  59.200  1.00  0.00    -0.173 NA
HETATM    4  C   UNL     1       8.279  30.628  59.960  1.00  0.00     0.062 A 
HETATM    5  C   UNL     1       8.841  30.807  61.350  1.00  0.00     0.073 C 
HETATM    6  C   UNL     1       7.134  31.455  59.533  1.00  0.00     0.006 A 
HETATM    7  C   UNL     1       6.614  31.213  58.267  1.00  0.00     0.046 A 
HETATM    8  C   UNL     1       6.564  32.446  60.343  1.00  0.00     0.014 A 
HETATM    9  C   UNL     1       7.217  30.166  57.424  1.00  0.00     0.275 A 
HETATM   10  C   UNL     1       5.524  31.957  57.798  1.00  0.00     0.018 A 
HETATM   11  O   UNL     1       6.725  29.907  56.326  1.00  0.00    -0.266 OA
HETATM   12  C   UNL     1       4.958  32.945  58.603  1.00  0.00     0.001 A 
HETATM   13  C   UNL     1       5.477  33.188  59.874  1.00  0.00     0.001 A 
ENDBRANCH   1   2
BRANCH   1  14
HETATM   14  C   UNL     1       8.017  27.222  57.090  1.00  0.00     0.238 C 
HETATM   15  N   UNL     1       7.612  26.924  55.805  1.00  0.00    -0.351 N 
HETATM   16  H   UNL     1       8.170  27.315  55.046  1.00  0.00     0.163 HD
HETATM   17  O   UNL     1       7.660  26.575  58.071  1.00  0.00    -0.272 OA
BRANCH  15  18
HETATM   18  C   UNL     1       6.760  25.797  55.517  1.00  0.00     0.118 C 
HETATM   19  C   UNL     1       7.531  24.568  55.114  1.00  0.00    -0.029 A 
HETATM   20  C   UNL     1       6.920  23.933  54.026  1.00  0.00    -0.050 A 
HETATM   21  C   UNL     1       8.662  24.023  55.705  1.00  0.00     0.010 A 
HETATM   22  C   UNL     1       7.432  22.758  53.498  1.00  0.00     0.007 A 
HETATM   23  C   UNL     1       5.680  24.658  53.610  1.00  0.00     0.041 C 
HETATM   24  C   UNL     1       8.584  22.219  54.075  1.00  0.00     0.001 A 
HETATM   25  C   UNL     1       9.193  22.845  55.172  1.00  0.00     0.001 A 
HETATM   26  C   UNL     1       5.900  26.031  54.256  1.00  0.00     0.034 C 
ENDBRANCH  15  18
ENDBRANCH   1  14
TORSDOF 3
ENDMDL
MODEL 9
REMARK VINA RESULT:      -9.0      4.316      6.367
REMARK  3 active torsions:
REMARK  status: ('A' for Active; 'I' for Inactive)
REMARK    1  A    between atoms: N_4  and  C_5 
REMARK    2  A    between atoms: C_5  and  C_6 
REMARK       I    between atoms: C_6  and  N_7 
REMARK    3  A    between atoms: N_7  and  C_8 
ROOT
HETATM    1  C   UNL     1       7.010  29.833  56.507  1.00  0.00     0.257 C 
ENDROOT
BRANCH   1   2
HETATM    2  N   UNL     1       7.042  30.450  57.829  1.00  0.00    -0.225 N 
HETATM    3  N   UNL     1       6.101  31.424  58.065  1.00  0.00    -0.173 NA
HETATM    4  C   UNL     1       6.134  32.083  59.182  1.00  0.00     0.062 A 
HETATM    5  C   UNL     1       5.090  33.154  59.391  1.00  0.00     0.073 C 
HETATM    6  C   UNL     1       7.138  31.841  60.237  1.00  0.00     0.006 A 
HETATM    7  C   UNL     1       8.115  30.887  59.975  1.00  0.00     0.046 A 
HETATM    8  C   UNL     1       7.144  32.527  61.458  1.00  0.00     0.014 A 
HETATM    9  C   UNL     1       8.102  30.173  58.686  1.00  0.00     0.275 A 
HETATM   10  C   UNL     1       9.102  30.608  60.928  1.00  0.00     0.018 A 
HETATM   11  O   UNL     1       8.998  29.370  58.425  1.00  0.00    -0.266 OA
HETATM   12  C   UNL     1       9.107  31.290  62.145  1.00  0.00     0.001 A 
HETATM   13  C   UNL     1       8.130  32.249  62.408  1.00  0.00     0.001 A 
ENDBRANCH   1   2
BRANCH   1  14
HETATM   14  C   UNL     1       6.296  28.481  56.524  1.00  0.00     0.238 C 
HETATM   15  N   UNL     1       6.626  27.661  55.464  1.00  0.00    -0.351 N 
HETATM   16  H   UNL     1       7.486  27.884  54.964  1.00  0.00     0.163 HD
HETATM   17  O   UNL     1       5.499  28.153  57.400  1.00  0.00    -0.272 OA
BRANCH  15  18
HETATM   18  C   UNL     1       6.080  26.334  55.329  1.00  0.00     0.118 C 
HETATM   19  C   UNL     1       7.093  25.253  55.597  1.00  0.00    -0.029 A 
HETATM   20  C   UNL     1       6.985  24.226  54.650  1.00  0.00    -0.050 A 
HETATM   21  C   UNL     1       8.007  25.161  56.637  1.00  0.00     0.010 A 
HETATM   22  C   UNL     1       7.794  23.103  54.713  1.00  0.00     0.007 A 
HETATM   23  C   UNL     1       5.885  24.508  53.676  1.00  0.00     0.041 C 
HETATM   24  C   UNL     1       8.732  23.018  55.744  1.00  0.00     0.001 A 
HETATM   25  C   UNL     1       8.836  24.038  56.701  1.00  0.00     0.001 A 
HETATM   26  C   UNL     1       5.689  26.016  53.869  1.00  0.00     0.034 C 
ENDBRANCH  15  18
ENDBRANCH   1  14
TORSDOF 3
ENDMDL
MODEL 10
REMARK VINA RESULT:      -9.0      2.990      4.063
REMARK  3 active torsions:
REMARK  status: ('A' for Active; 'I' for Inactive)
REMARK    1  A    between atoms: N_4  and  C_5 
REMARK    2  A    between atoms: C_5  and  C_6 
REMARK       I    between atoms: C_6  and  N_7 
REMARK    3  A    between atoms: N_7  and  C_8 
ROOT
HETATM    1  C   UNL     1       6.037  28.643  53.547  1.00  0.00     0.257 C 
ENDROOT
BRANCH   1   2
HETATM    2  N   UNL     1       5.539  28.050  52.310  1.00  0.00    -0.225 N 
HETATM    3  N   UNL     1       5.241  26.709  52.359  1.00  0.00    -0.173 NA
HETATM    4  C   UNL     1       4.889  26.095  51.272  1.00  0.00     0.062 A 
HETATM    5  C   UNL     1       4.586  24.619  51.371  1.00  0.00     0.073 C 
HETATM    6  C   UNL     1       4.782  26.766  49.961  1.00  0.00     0.006 A 
HETATM    7  C   UNL     1       5.128  28.111  49.907  1.00  0.00     0.046 A 
HETATM    8  C   UNL     1       4.362  26.108  48.798  1.00  0.00     0.014 A 
HETATM    9  C   UNL     1       5.573  28.794  51.135  1.00  0.00     0.275 A 
HETATM   10  C   UNL     1       5.055  28.811  48.696  1.00  0.00     0.018 A 
HETATM   11  O   UNL     1       5.936  29.969  51.082  1.00  0.00    -0.266 OA
HETATM   12  C   UNL     1       4.634  28.155  47.539  1.00  0.00     0.001 A 
HETATM   13  C   UNL     1       4.290  26.806  47.590  1.00  0.00     0.001 A 
ENDBRANCH   1   2
BRANCH   1  14
HETATM   14  C   UNL     1       7.190  27.836  54.146  1.00  0.00     0.238 C 
HETATM   15  N   UNL     1       6.791  26.676  54.777  1.00  0.00    -0.351 N 
HETATM   16  H   UNL     1       5.865  26.321  54.541  1.00  0.00     0.163 HD
HETATM   17  O   UNL     1       8.364  28.189  54.073  1.00  0.00    -0.272 OA
BRANCH  15  18
HETATM   18  C   UNL     1       7.741  25.768  55.371  1.00  0.00     0.118 C 
HETATM   19  C   UNL     1       7.792  24.434  54.674  1.00  0.00    -0.029 A 
HETATM   20  C   UNL     1       7.842  23.389  55.606  1.00  0.00    -0.050 A 
HETATM   21  C   UNL     1       7.845  24.169  53.313  1.00  0.00     0.010 A 
HETATM   22  C   UNL     1       7.928  22.067  55.199  1.00  0.00     0.007 A 
HETATM   23  C   UNL     1       7.849  23.919  57.005  1.00  0.00     0.041 C 
HETATM   24  C   UNL     1       7.958  21.795  53.830  1.00  0.00     0.001 A 
HETATM   25  C   UNL     1       7.919  22.838  52.894  1.00  0.00     0.001 A 
HETATM   26  C   UNL     1       7.318  25.341  56.794  1.00  0.00     0.034 C 
ENDBRANCH  15  18
ENDBRANCH   1  14
TORSDOF 3
ENDMDL
