MODEL 1
REMARK VINA RESULT:      -9.2      0.000      0.000
REMARK  7 active torsions:
REMARK  status: ('A' for Active; 'I' for Inactive)
REMARK    1  A    between atoms: C_2  and  C_3 
REMARK    2  A    between atoms: C_2  and  C_20 
REMARK    3  A    between atoms: C_3  and  C_4 
REMARK       I    between atoms: C_4  and  N_5 
REMARK    4  A    between atoms: N_5  and  C_6 
REMARK    5  A    between atoms: C_13  and  C_14 
REMARK       I    between atoms: C_14  and  N_15 
REMARK    6  A    between atoms: C_20  and  C_21 
REMARK    7  A    between atoms: C_22  and  O_23 
ROOT
HETATM    1  C   UNL     1       6.040  26.854  51.768  1.00  0.00     0.222 C 
HETATM    2  N   UNL     1       5.637  27.657  52.796  1.00  0.00    -0.327 N 
HETATM    3  O   UNL     1       5.553  27.078  50.654  1.00  0.00    -0.273 OA
HETATM    4  H   UNL     1       4.851  28.228  52.510  1.00  0.00     0.169 HD
ENDROOT
BRANCH   2   5
HETATM    5  C   UNL     1       6.073  27.814  54.123  1.00  0.00     0.035 A 
HETATM    6  C   UNL     1       7.287  28.405  54.485  1.00  0.00     0.046 A 
HETATM    7  C   UNL     1       7.654  28.475  55.846  1.00  0.00     0.030 A 
HETATM    8  C   UNL     1       6.768  28.009  56.806  1.00  0.00     0.063 A 
HETATM    9  C   UNL     1       8.790  28.930  56.579  1.00  0.00     0.156 A 
HETATM   10  N   UNL     1       7.393  28.208  58.005  1.00  0.00    -0.277 N 
HETATM   11  C   UNL     1       5.517  27.476  56.488  1.00  0.00     0.034 A 
HETATM   12  H   UNL     1       7.037  27.986  58.928  1.00  0.00     0.189 HD
HETATM   13  N   UNL     1       8.617  28.755  57.909  1.00  0.00    -0.168 NA
HETATM   14  C   UNL     1       5.189  27.395  55.127  1.00  0.00     0.032 A 
BRANCH   9  15
HETATM   15  C   UNL     1      10.032  29.495  56.032  1.00  0.00     0.270 C 
HETATM   16  N   UNL     1      11.003  29.722  56.967  1.00  0.00    -0.365 N 
HETATM   17  H   UNL     1      10.815  29.474  57.932  1.00  0.00     0.159 HD
HETATM   18  H   UNL     1      11.902  30.078  56.682  1.00  0.00     0.159 HD
HETATM   19  O   UNL     1      10.218  29.741  54.845  1.00  0.00    -0.266 OA
ENDBRANCH   9  15
ENDBRANCH   2   5
BRANCH   1  20
HETATM   20  C   UNL     1       6.926  25.645  51.997  1.00  0.00     0.107 C 
BRANCH  20  21
HETATM   21  C   UNL     1       6.247  24.449  52.694  1.00  0.00    -0.006 C 
HETATM   22  C   UNL     1       4.719  24.562  52.753  1.00  0.00     0.011 C 
BRANCH  21  23
HETATM   23  C   UNL     1       6.819  24.176  54.105  1.00  0.00     0.046 C 
BRANCH  23  24
HETATM   24  C   UNL     1       7.464  22.806  54.258  1.00  0.00    -0.024 A 
HETATM   25  C   UNL     1       7.872  22.313  55.514  1.00  0.00     0.074 A 
HETATM   26  C   UNL     1       8.497  21.063  55.597  1.00  0.00     0.037 A 
HETATM   27  C   UNL     1       8.705  20.293  54.449  1.00  0.00     0.003 A 
HETATM   28  C   UNL     1       8.276  20.758  53.213  1.00  0.00     0.001 A 
HETATM   29  C   UNL     1       7.651  22.001  53.119  1.00  0.00     0.010 A 
BRANCH  25  30
HETATM   30  O   UNL     1       7.629  23.124  56.591  1.00  0.00    -0.355 OA
HETATM   31  C   UNL     1       8.718  23.865  57.120  1.00  0.00     0.210 C 
ENDBRANCH  25  30
ENDBRANCH  23  24
ENDBRANCH  21  23
ENDBRANCH  20  21
ENDBRANCH   1  20
TORSDOF 7
ENDMDL
MODEL 2
REMARK VINA RESULT:      -9.0      2.015      4.869
REMARK  7 active torsions:
REMARK  status: ('A' for Active; 'I' for Inactive)
REMARK    1  A    between atoms: C_2  and  C_3 
REMARK    2  A    between atoms: C_2  and  C_20 
REMARK    3  A    between atoms: C_3  and  C_4 
REMARK       I    between atoms: C_4  and  N_5 
REMARK    4  A    between atoms: N_5  and  C_6 
REMARK    5  A    between atoms: C_13  and  C_14 
REMARK       I    between atoms: C_14  and  N_15 
REMARK    6  A    between atoms: C_20  and  C_21 
REMARK    7  A    between atoms: C_22  and  O_23 
ROOT
HETATM    1  C   UNL     1       8.255  23.162  56.263  1.00  0.00     0.222 C 
HETATM    2  N   UNL     1       7.616  23.923  57.199  1.00  0.00    -0.327 N 
HETATM    3  O   UNL     1       8.591  22.021  56.597  1.00  0.00    -0.273 OA
HETATM    4  H   UNL     1       7.662  23.477  58.108  1.00  0.00     0.169 HD
ENDROOT
BRANCH   2   5
HETATM    5  C   UNL     1       6.958  25.164  57.147  1.00  0.00     0.035 A 
HETATM    6  C   UNL     1       7.547  26.379  57.508  1.00  0.00     0.046 A 
HETATM    7  C   UNL     1       6.786  27.567  57.462  1.00  0.00     0.030 A 
HETATM    8  C   UNL     1       5.480  27.512  56.997  1.00  0.00     0.063 A 
HETATM    9  C   UNL     1       7.003  28.937  57.796  1.00  0.00     0.156 A 
HETATM   10  N   UNL     1       5.013  28.794  57.070  1.00  0.00    -0.277 N 
HETATM   11  C   UNL     1       4.880  26.328  56.562  1.00  0.00     0.034 A 
HETATM   12  H   UNL     1       4.093  29.130  56.809  1.00  0.00     0.189 HD
HETATM   13  N   UNL     1       5.901  29.682  57.552  1.00  0.00    -0.168 NA
HETATM   14  C   UNL     1       5.650  25.160  56.643  1.00  0.00     0.032 A 
BRANCH   9  15
HETATM   15  C   UNL     1       8.224  29.530  58.361  1.00  0.00     0.270 C 
HETATM   16  N   UNL     1       8.071  30.026  59.626  1.00  0.00    -0.365 N 
HETATM   17  H   UNL     1       7.168  29.933  60.078  1.00  0.00     0.159 HD
HETATM   18  H   UNL     1       8.862  30.421  60.110  1.00  0.00     0.159 HD
HETATM   19  O   UNL     1       9.303  29.581  57.781  1.00  0.00    -0.266 OA
ENDBRANCH   9  15
ENDBRANCH   2   5
BRANCH   1  20
HETATM   20  C   UNL     1       8.674  23.731  54.921  1.00  0.00     0.107 C 
BRANCH  20  21
HETATM   21  C   UNL     1       7.637  23.586  53.788  1.00  0.00    -0.006 C 
HETATM   22  C   UNL     1       7.579  22.177  53.188  1.00  0.00     0.011 C 
BRANCH  21  23
HETATM   23  C   UNL     1       7.824  24.638  52.668  1.00  0.00     0.046 C 
BRANCH  23  24
HETATM   24  C   UNL     1       7.176  25.982  52.966  1.00  0.00    -0.024 A 
HETATM   25  C   UNL     1       5.928  26.342  52.420  1.00  0.00     0.074 A 
HETATM   26  C   UNL     1       5.393  27.607  52.692  1.00  0.00     0.037 A 
HETATM   27  C   UNL     1       6.077  28.509  53.512  1.00  0.00     0.003 A 
HETATM   28  C   UNL     1       7.292  28.149  54.079  1.00  0.00     0.001 A 
HETATM   29  C   UNL     1       7.834  26.891  53.817  1.00  0.00     0.010 A 
BRANCH  25  30
HETATM   30  O   UNL     1       5.318  25.403  51.632  1.00  0.00    -0.355 OA
HETATM   31  C   UNL     1       4.795  25.827  50.382  1.00  0.00     0.210 C 
ENDBRANCH  25  30
ENDBRANCH  23  24
ENDBRANCH  21  23
ENDBRANCH  20  21
ENDBRANCH   1  20
TORSDOF 7
ENDMDL
MODEL 3
REMARK VINA RESULT:      -8.8      3.077      4.882
REMARK  7 active torsions:
REMARK  status: ('A' for Active; 'I' for Inactive)
REMARK    1  A    between atoms: C_2  and  C_3 
REMARK    2  A    between atoms: C_2  and  C_20 
REMARK    3  A    between atoms: C_3  and  C_4 
REMARK       I    between atoms: C_4  and  N_5 
REMARK    4  A    between atoms: N_5  and  C_6 
REMARK    5  A    between atoms: C_13  and  C_14 
REMARK       I    between atoms: C_14  and  N_15 
REMARK    6  A    between atoms: C_20  and  C_21 
REMARK    7  A    between atoms: C_22  and  O_23 
ROOT
HETATM    1  C   UNL     1       5.878  26.105  54.846  1.00  0.00     0.222 C 
HETATM    2  N   UNL     1       4.966  26.587  53.952  1.00  0.00    -0.327 N 
HETATM    3  O   UNL     1       5.462  25.798  55.968  1.00  0.00    -0.273 OA
HETATM    4  H   UNL     1       4.085  26.779  54.416  1.00  0.00     0.169 HD
ENDROOT
BRANCH   2   5
HETATM    5  C   UNL     1       5.023  26.877  52.579  1.00  0.00     0.035 A 
HETATM    6  C   UNL     1       5.330  28.137  52.056  1.00  0.00     0.046 A 
HETATM    7  C   UNL     1       5.317  28.337  50.658  1.00  0.00     0.030 A 
HETATM    8  C   UNL     1       5.061  27.257  49.826  1.00  0.00     0.063 A 
HETATM    9  C   UNL     1       5.509  29.445  49.780  1.00  0.00     0.156 A 
HETATM   10  N   UNL     1       5.116  27.756  48.555  1.00  0.00    -0.277 N 
HETATM   11  C   UNL     1       4.819  25.969  50.309  1.00  0.00     0.034 A 
HETATM   12  H   UNL     1       4.980  27.248  47.689  1.00  0.00     0.189 HD
HETATM   13  N   UNL     1       5.378  29.073  48.486  1.00  0.00    -0.168 NA
HETATM   14  C   UNL     1       4.811  25.804  51.701  1.00  0.00     0.032 A 
BRANCH   9  15
HETATM   15  C   UNL     1       5.784  30.839  50.156  1.00  0.00     0.270 C 
HETATM   16  N   UNL     1       4.961  31.327  51.134  1.00  0.00    -0.365 N 
HETATM   17  H   UNL     1       4.261  30.712  51.531  1.00  0.00     0.159 HD
HETATM   18  H   UNL     1       5.096  32.264  51.481  1.00  0.00     0.159 HD
HETATM   19  O   UNL     1       6.672  31.527  49.666  1.00  0.00    -0.266 OA
ENDBRANCH   9  15
ENDBRANCH   2   5
BRANCH   1  20
HETATM   20  C   UNL     1       7.364  26.083  54.538  1.00  0.00     0.107 C 
BRANCH  20  21
HETATM   21  C   UNL     1       7.849  24.879  53.705  1.00  0.00    -0.006 C 
HETATM   22  C   UNL     1       8.137  25.225  52.240  1.00  0.00     0.011 C 
BRANCH  21  23
HETATM   23  C   UNL     1       6.891  23.667  53.792  1.00  0.00     0.046 C 
BRANCH  23  24
HETATM   24  C   UNL     1       7.584  22.350  54.111  1.00  0.00    -0.024 A 
HETATM   25  C   UNL     1       7.871  21.965  55.436  1.00  0.00     0.074 A 
HETATM   26  C   UNL     1       8.546  20.762  55.675  1.00  0.00     0.037 A 
HETATM   27  C   UNL     1       8.922  19.933  54.615  1.00  0.00     0.003 A 
HETATM   28  C   UNL     1       8.614  20.291  53.309  1.00  0.00     0.001 A 
HETATM   29  C   UNL     1       7.940  21.486  53.059  1.00  0.00     0.010 A 
BRANCH  25  30
HETATM   30  O   UNL     1       7.466  22.828  56.420  1.00  0.00    -0.355 OA
HETATM   31  C   UNL     1       8.466  23.560  57.110  1.00  0.00     0.210 C 
ENDBRANCH  25  30
ENDBRANCH  23  24
ENDBRANCH  21  23
ENDBRANCH  20  21
ENDBRANCH   1  20
TORSDOF 7
ENDMDL
MODEL 4
REMARK VINA RESULT:      -8.8      2.398      3.674
REMARK  7 active torsions:
REMARK  status: ('A' for Active; 'I' for Inactive)
REMARK    1  A    between atoms: C_2  and  C_3 
REMARK    2  A    between atoms: C_2  and  C_20 
REMARK    3  A    between atoms: C_3  and  C_4 
REMARK       I    between atoms: C_4  and  N_5 
REMARK    4  A    between atoms: N_5  and  C_6 
REMARK    5  A    between atoms: C_13  and  C_14 
REMARK       I    between atoms: C_14  and  N_15 
REMARK    6  A    between atoms: C_20  and  C_21 
REMARK    7  A    between atoms: C_22  and  O_23 
ROOT
HETATM    1  C   UNL     1       6.146  26.630  56.561  1.00  0.00     0.222 C 
HETATM    2  N   UNL     1       6.895  27.147  57.578  1.00  0.00    -0.327 N 
HETATM    3  O   UNL     1       5.249  25.837  56.867  1.00  0.00    -0.273 OA
HETATM    4  H   UNL     1       6.699  26.659  58.444  1.00  0.00     0.169 HD
ENDROOT
BRANCH   2   5
HETATM    5  C   UNL     1       7.860  28.166  57.641  1.00  0.00     0.035 A 
HETATM    6  C   UNL     1       7.747  29.305  58.445  1.00  0.00     0.046 A 
HETATM    7  C   UNL     1       8.752  30.295  58.403  1.00  0.00     0.030 A 
HETATM    8  C   UNL     1       9.870  30.085  57.609  1.00  0.00     0.063 A 
HETATM    9  C   UNL     1       8.959  31.572  59.004  1.00  0.00     0.156 A 
HETATM   10  N   UNL     1      10.649  31.195  57.776  1.00  0.00    -0.277 N 
HETATM   11  C   UNL     1      10.052  28.929  56.846  1.00  0.00     0.034 A 
HETATM   12  H   UNL     1      11.546  31.387  57.346  1.00  0.00     0.189 HD
HETATM   13  N   UNL     1      10.130  32.118  58.605  1.00  0.00    -0.168 NA
HETATM   14  C   UNL     1       9.025  27.975  56.886  1.00  0.00     0.032 A 
BRANCH   9  15
HETATM   15  C   UNL     1       8.051  32.279  59.920  1.00  0.00     0.270 C 
HETATM   16  N   UNL     1       8.523  32.392  61.198  1.00  0.00    -0.365 N 
HETATM   17  H   UNL     1       9.440  32.015  61.413  1.00  0.00     0.159 HD
HETATM   18  H   UNL     1       7.986  32.892  61.889  1.00  0.00     0.159 HD
HETATM   19  O   UNL     1       6.967  32.750  59.595  1.00  0.00    -0.266 OA
ENDBRANCH   9  15
ENDBRANCH   2   5
BRANCH   1  20
HETATM   20  C   UNL     1       6.484  26.891  55.105  1.00  0.00     0.107 C 
BRANCH  20  21
HETATM   21  C   UNL     1       7.238  25.753  54.388  1.00  0.00    -0.006 C 
HETATM   22  C   UNL     1       7.754  26.142  52.998  1.00  0.00     0.011 C 
BRANCH  21  23
HETATM   23  C   UNL     1       6.412  24.447  54.306  1.00  0.00     0.046 C 
BRANCH  23  24
HETATM   24  C   UNL     1       7.253  23.179  54.323  1.00  0.00    -0.024 A 
HETATM   25  C   UNL     1       7.847  22.697  55.507  1.00  0.00     0.074 A 
HETATM   26  C   UNL     1       8.645  21.547  55.462  1.00  0.00     0.037 A 
HETATM   27  C   UNL     1       8.845  20.865  54.259  1.00  0.00     0.003 A 
HETATM   28  C   UNL     1       8.237  21.316  53.095  1.00  0.00     0.001 A 
HETATM   29  C   UNL     1       7.439  22.459  53.128  1.00  0.00     0.010 A 
BRANCH  25  30
HETATM   30  O   UNL     1       7.600  23.417  56.645  1.00  0.00    -0.355 OA
HETATM   31  C   UNL     1       8.700  24.056  57.275  1.00  0.00     0.210 C 
ENDBRANCH  25  30
ENDBRANCH  23  24
ENDBRANCH  21  23
ENDBRANCH  20  21
ENDBRANCH   1  20
TORSDOF 7
ENDMDL
MODEL 5
REMARK VINA RESULT:      -8.7      2.654      4.007
REMARK  7 active torsions:
REMARK  status: ('A' for Active; 'I' for Inactive)
REMARK    1  A    between atoms: C_2  and  C_3 
REMARK    2  A    between atoms: C_2  and  C_20 
REMARK    3  A    between atoms: C_3  and  C_4 
REMARK       I    between atoms: C_4  and  N_5 
REMARK    4  A    between atoms: N_5  and  C_6 
REMARK    5  A    between atoms: C_13  and  C_14 
REMARK       I    between atoms: C_14  and  N_15 
REMARK    6  A    between atoms: C_20  and  C_21 
REMARK    7  A    between atoms: C_22  and  O_23 
ROOT
HETATM    1  C   UNL     1       5.999  26.181  55.852  1.00  0.00     0.222 C 
HETATM    2  N   UNL     1       6.243  27.522  55.768  1.00  0.00    -0.327 N 
HETATM    3  O   UNL     1       5.346  25.667  54.937  1.00  0.00    -0.273 OA
HETATM    4  H   UNL     1       5.693  27.934  55.023  1.00  0.00     0.169 HD
ENDROOT
BRANCH   2   5
HETATM    5  C   UNL     1       7.058  28.401  56.501  1.00  0.00     0.035 A 
HETATM    6  C   UNL     1       6.571  29.461  57.272  1.00  0.00     0.046 A 
HETATM    7  C   UNL     1       7.476  30.316  57.937  1.00  0.00     0.030 A 
HETATM    8  C   UNL     1       8.835  30.046  57.863  1.00  0.00     0.063 A 
HETATM    9  C   UNL     1       7.375  31.493  58.736  1.00  0.00     0.156 A 
HETATM   10  N   UNL     1       9.441  31.029  58.593  1.00  0.00    -0.277 N 
HETATM   11  C   UNL     1       9.354  28.957  57.161  1.00  0.00     0.034 A 
HETATM   12  H   UNL     1      10.434  31.148  58.760  1.00  0.00     0.189 HD
HETATM   13  N   UNL     1       8.594  31.925  59.131  1.00  0.00    -0.168 NA
HETATM   14  C   UNL     1       8.435  28.139  56.488  1.00  0.00     0.032 A 
BRANCH   9  15
HETATM   15  C   UNL     1       6.147  32.217  59.100  1.00  0.00     0.270 C 
HETATM   16  N   UNL     1       5.515  31.723  60.208  1.00  0.00    -0.365 N 
HETATM   17  H   UNL     1       5.931  30.938  60.695  1.00  0.00     0.159 HD
HETATM   18  H   UNL     1       4.683  32.175  60.554  1.00  0.00     0.159 HD
HETATM   19  O   UNL     1       5.710  33.188  58.494  1.00  0.00    -0.266 OA
ENDBRANCH   9  15
ENDBRANCH   2   5
BRANCH   1  20
HETATM   20  C   UNL     1       6.374  25.376  57.082  1.00  0.00     0.107 C 
BRANCH  20  21
HETATM   21  C   UNL     1       7.598  24.452  56.919  1.00  0.00    -0.006 C 
HETATM   22  C   UNL     1       8.720  24.740  57.922  1.00  0.00     0.011 C 
BRANCH  21  23
HETATM   23  C   UNL     1       8.156  24.449  55.476  1.00  0.00     0.046 C 
BRANCH  23  24
HETATM   24  C   UNL     1       8.070  23.098  54.780  1.00  0.00    -0.024 A 
HETATM   25  C   UNL     1       8.130  22.979  53.377  1.00  0.00     0.074 A 
HETATM   26  C   UNL     1       8.006  21.717  52.784  1.00  0.00     0.037 A 
HETATM   27  C   UNL     1       7.840  20.574  53.570  1.00  0.00     0.003 A 
HETATM   28  C   UNL     1       7.813  20.679  54.954  1.00  0.00     0.001 A 
HETATM   29  C   UNL     1       7.938  21.930  55.556  1.00  0.00     0.010 A 
BRANCH  25  30
HETATM   30  O   UNL     1       8.299  24.145  52.678  1.00  0.00    -0.355 OA
HETATM   31  C   UNL     1       7.159  24.707  52.045  1.00  0.00     0.210 C 
ENDBRANCH  25  30
ENDBRANCH  23  24
ENDBRANCH  21  23
ENDBRANCH  20  21
ENDBRANCH   1  20
TORSDOF 7
ENDMDL
MODEL 6
REMARK VINA RESULT:      -8.7      2.851      4.125
REMARK  7 active torsions:
REMARK  status: ('A' for Active; 'I' for Inactive)
REMARK    1  A    between atoms: C_2  and  C_3 
REMARK    2  A    between atoms: C_2  and  C_20 
REMARK    3  A    between atoms: C_3  and  C_4 
REMARK       I    between atoms: C_4  and  N_5 
REMARK    4  A    between atoms: N_5  and  C_6 
REMARK    5  A    between atoms: C_13  and  C_14 
REMARK       I    between atoms: C_14  and  N_15 
REMARK    6  A    between atoms: C_20  and  C_21 
REMARK    7  A    between atoms: C_22  and  O_23 
ROOT
HETATM    1  C   UNL     1       7.475  27.665  55.307  1.00  0.00     0.222 C 
HETATM    2  N   UNL     1       7.864  28.967  55.433  1.00  0.00    -0.327 N 
HETATM    3  O   UNL     1       7.116  27.289  54.185  1.00  0.00    -0.273 OA
HETATM    4  H   UNL     1       7.634  29.487  54.594  1.00  0.00     0.169 HD
ENDROOT
BRANCH   2   5
HETATM    5  C   UNL     1       8.470  29.695  56.470  1.00  0.00     0.035 A 
HETATM    6  C   UNL     1       7.768  30.311  57.511  1.00  0.00     0.046 A 
HETATM    7  C   UNL     1       8.468  31.059  58.482  1.00  0.00     0.030 A 
HETATM    8  C   UNL     1       9.853  31.114  58.418  1.00  0.00     0.063 A 
HETATM    9  C   UNL     1       8.117  31.851  59.615  1.00  0.00     0.156 A 
HETATM   10  N   UNL     1      10.235  31.897  59.472  1.00  0.00    -0.277 N 
HETATM   11  C   UNL     1      10.594  30.455  57.435  1.00  0.00     0.034 A 
HETATM   12  H   UNL     1      11.179  32.153  59.738  1.00  0.00     0.189 HD
HETATM   13  N   UNL     1       9.216  32.365  60.214  1.00  0.00    -0.168 NA
HETATM   14  C   UNL     1       9.871  29.742  56.468  1.00  0.00     0.032 A 
BRANCH   9  15
HETATM   15  C   UNL     1       6.763  32.142  60.109  1.00  0.00     0.270 C 
HETATM   16  N   UNL     1       6.500  31.632  61.350  1.00  0.00    -0.365 N 
HETATM   17  H   UNL     1       7.234  31.128  61.834  1.00  0.00     0.159 HD
HETATM   18  H   UNL     1       5.609  31.809  61.787  1.00  0.00     0.159 HD
HETATM   19  O   UNL     1       5.925  32.793  59.494  1.00  0.00    -0.266 OA
ENDBRANCH   9  15
ENDBRANCH   2   5
BRANCH   1  20
HETATM   20  C   UNL     1       7.342  26.750  56.509  1.00  0.00     0.107 C 
BRANCH  20  21
HETATM   21  C   UNL     1       6.498  25.479  56.283  1.00  0.00    -0.006 C 
HETATM   22  C   UNL     1       5.207  25.447  57.108  1.00  0.00     0.011 C 
BRANCH  21  23
HETATM   23  C   UNL     1       7.306  24.178  56.503  1.00  0.00     0.046 C 
BRANCH  23  24
HETATM   24  C   UNL     1       7.548  23.376  55.233  1.00  0.00    -0.024 A 
HETATM   25  C   UNL     1       8.208  22.131  55.254  1.00  0.00     0.074 A 
HETATM   26  C   UNL     1       8.443  21.451  54.053  1.00  0.00     0.037 A 
HETATM   27  C   UNL     1       8.013  21.987  52.836  1.00  0.00     0.003 A 
HETATM   28  C   UNL     1       7.334  23.198  52.810  1.00  0.00     0.001 A 
HETATM   29  C   UNL     1       7.094  23.883  54.001  1.00  0.00     0.010 A 
BRANCH  25  30
HETATM   30  O   UNL     1       8.593  21.671  56.486  1.00  0.00    -0.355 OA
HETATM   31  C   UNL     1       9.008  20.317  56.585  1.00  0.00     0.210 C 
ENDBRANCH  25  30
ENDBRANCH  23  24
ENDBRANCH  21  23
ENDBRANCH  20  21
ENDBRANCH   1  20
TORSDOF 7
ENDMDL
MODEL 7
REMARK VINA RESULT:      -8.5      2.597      3.153
REMARK  7 active torsions:
REMARK  status: ('A' for Active; 'I' for Inactive)
REMARK    1  A    between atoms: C_2  and  C_3 
REMARK    2  A    between atoms: C_2  and  C_20 
REMARK    3  A    between atoms: C_3  and  C_4 
REMARK       I    between atoms: C_4  and  N_5 
REMARK    4  A    between atoms: N_5  and  C_6 
REMARK    5  A    between atoms: C_13  and  C_14 
REMARK       I    between atoms: C_14  and  N_15 
REMARK    6  A    between atoms: C_20  and  C_21 
REMARK    7  A    between atoms: C_22  and  O_23 
ROOT
HETATM    1  C   UNL     1       5.050  26.669  50.809  1.00  0.00     0.222 C 
HETATM    2  N   UNL     1       4.073  27.459  51.344  1.00  0.00    -0.327 N 
HETATM    3  O   UNL     1       4.826  26.166  49.702  1.00  0.00    -0.273 OA
HETATM    4  H   UNL     1       3.219  27.377  50.804  1.00  0.00     0.169 HD
ENDROOT
BRANCH   2   5
HETATM    5  C   UNL     1       4.025  28.306  52.464  1.00  0.00     0.035 A 
HETATM    6  C   UNL     1       4.519  27.964  53.727  1.00  0.00     0.046 A 
HETATM    7  C   UNL     1       4.381  28.870  54.801  1.00  0.00     0.030 A 
HETATM    8  C   UNL     1       3.814  30.113  54.564  1.00  0.00     0.063 A 
HETATM    9  C   UNL     1       4.689  28.862  56.194  1.00  0.00     0.156 A 
HETATM   10  N   UNL     1       3.819  30.752  55.772  1.00  0.00    -0.277 N 
HETATM   11  C   UNL     1       3.373  30.517  53.302  1.00  0.00     0.034 A 
HETATM   12  H   UNL     1       3.480  31.685  55.976  1.00  0.00     0.189 HD
HETATM   13  N   UNL     1       4.334  30.027  56.781  1.00  0.00    -0.168 NA
HETATM   14  C   UNL     1       3.497  29.588  52.259  1.00  0.00     0.032 A 
BRANCH   9  15
HETATM   15  C   UNL     1       5.286  27.761  56.965  1.00  0.00     0.270 C 
HETATM   16  N   UNL     1       4.499  26.646  57.047  1.00  0.00    -0.365 N 
HETATM   17  H   UNL     1       3.604  26.646  56.571  1.00  0.00     0.159 HD
HETATM   18  H   UNL     1       4.838  25.827  57.527  1.00  0.00     0.159 HD
HETATM   19  O   UNL     1       6.393  27.803  57.490  1.00  0.00    -0.266 OA
ENDBRANCH   9  15
ENDBRANCH   2   5
BRANCH   1  20
HETATM   20  C   UNL     1       6.293  26.293  51.593  1.00  0.00     0.107 C 
BRANCH  20  21
HETATM   21  C   UNL     1       6.256  24.907  52.268  1.00  0.00    -0.006 C 
HETATM   22  C   UNL     1       4.902  24.570  52.901  1.00  0.00     0.011 C 
BRANCH  21  23
HETATM   23  C   UNL     1       7.393  24.715  53.301  1.00  0.00     0.046 C 
BRANCH  23  24
HETATM   24  C   UNL     1       7.566  23.279  53.772  1.00  0.00    -0.024 A 
HETATM   25  C   UNL     1       7.402  22.915  55.124  1.00  0.00     0.074 A 
HETATM   26  C   UNL     1       7.612  21.587  55.514  1.00  0.00     0.037 A 
HETATM   27  C   UNL     1       7.965  20.616  54.573  1.00  0.00     0.003 A 
HETATM   28  C   UNL     1       8.096  20.960  53.234  1.00  0.00     0.001 A 
HETATM   29  C   UNL     1       7.889  22.279  52.835  1.00  0.00     0.010 A 
BRANCH  25  30
HETATM   30  O   UNL     1       7.050  23.923  55.983  1.00  0.00    -0.355 OA
HETATM   31  C   UNL     1       8.006  24.332  56.949  1.00  0.00     0.210 C 
ENDBRANCH  25  30
ENDBRANCH  23  24
ENDBRANCH  21  23
ENDBRANCH  20  21
ENDBRANCH   1  20
TORSDOF 7
ENDMDL
MODEL 8
REMARK VINA RESULT:      -8.4      2.860      5.987
REMARK  7 active torsions:
REMARK  status: ('A' for Active; 'I' for Inactive)
REMARK    1  A    between atoms: C_2  and  C_3 
REMARK    2  A    between atoms: C_2  and  C_20 
REMARK    3  A    between atoms: C_3  and  C_4 
REMARK       I    between atoms: C_4  and  N_5 
REMARK    4  A    between atoms: N_5  and  C_6 
REMARK    5  A    between atoms: C_13  and  C_14 
REMARK       I    between atoms: C_14  and  N_15 
REMARK    6  A    between atoms: C_20  and  C_21 
REMARK    7  A    between atoms: C_22  and  O_23 
ROOT
HETATM    1  C   UNL     1       7.065  27.619  53.746  1.00  0.00     0.222 C 
HETATM    2  N   UNL     1       6.559  28.468  52.803  1.00  0.00    -0.327 N 
HETATM    3  O   UNL     1       8.076  27.989  54.354  1.00  0.00    -0.273 OA
HETATM    4  H   UNL     1       7.209  29.225  52.626  1.00  0.00     0.169 HD
ENDROOT
BRANCH   2   5
HETATM    5  C   UNL     1       5.374  28.473  52.049  1.00  0.00     0.035 A 
HETATM    6  C   UNL     1       5.206  27.776  50.848  1.00  0.00     0.046 A 
HETATM    7  C   UNL     1       3.989  27.883  50.141  1.00  0.00     0.030 A 
HETATM    8  C   UNL     1       2.956  28.631  50.689  1.00  0.00     0.063 A 
HETATM    9  C   UNL     1       3.476  27.393  48.903  1.00  0.00     0.156 A 
HETATM   10  N   UNL     1       1.930  28.546  49.790  1.00  0.00    -0.277 N 
HETATM   11  C   UNL     1       3.063  29.284  51.918  1.00  0.00     0.034 A 
HETATM   12  H   UNL     1       1.012  28.970  49.863  1.00  0.00     0.189 HD
HETATM   13  N   UNL     1       2.207  27.813  48.698  1.00  0.00    -0.168 NA
HETATM   14  C   UNL     1       4.291  29.183  52.586  1.00  0.00     0.032 A 
BRANCH   9  15
HETATM   15  C   UNL     1       4.183  26.564  47.916  1.00  0.00     0.270 C 
HETATM   16  N   UNL     1       3.608  25.342  47.698  1.00  0.00    -0.365 N 
HETATM   17  H   UNL     1       2.756  25.110  48.196  1.00  0.00     0.159 HD
HETATM   18  H   UNL     1       4.002  24.717  47.013  1.00  0.00     0.159 HD
HETATM   19  O   UNL     1       5.192  26.912  47.313  1.00  0.00    -0.266 OA
ENDBRANCH   9  15
ENDBRANCH   2   5
BRANCH   1  20
HETATM   20  C   UNL     1       6.511  26.221  53.942  1.00  0.00     0.107 C 
BRANCH  20  21
HETATM   21  C   UNL     1       7.465  25.072  53.558  1.00  0.00    -0.006 C 
HETATM   22  C   UNL     1       8.053  25.209  52.150  1.00  0.00     0.011 C 
BRANCH  21  23
HETATM   23  C   UNL     1       6.821  23.676  53.736  1.00  0.00     0.046 C 
BRANCH  23  24
HETATM   24  C   UNL     1       7.445  22.841  54.844  1.00  0.00    -0.024 A 
HETATM   25  C   UNL     1       7.746  21.475  54.667  1.00  0.00     0.074 A 
HETATM   26  C   UNL     1       8.283  20.741  55.731  1.00  0.00     0.037 A 
HETATM   27  C   UNL     1       8.540  21.353  56.961  1.00  0.00     0.003 A 
HETATM   28  C   UNL     1       8.276  22.705  57.133  1.00  0.00     0.001 A 
HETATM   29  C   UNL     1       7.743  23.447  56.080  1.00  0.00     0.010 A 
BRANCH  25  30
HETATM   30  O   UNL     1       7.470  20.951  53.432  1.00  0.00    -0.355 OA
HETATM   31  C   UNL     1       8.545  20.376  52.703  1.00  0.00     0.210 C 
ENDBRANCH  25  30
ENDBRANCH  23  24
ENDBRANCH  21  23
ENDBRANCH  20  21
ENDBRANCH   1  20
TORSDOF 7
ENDMDL
MODEL 9
REMARK VINA RESULT:      -8.4      2.403      3.505
REMARK  7 active torsions:
REMARK  status: ('A' for Active; 'I' for Inactive)
REMARK    1  A    between atoms: C_2  and  C_3 
REMARK    2  A    between atoms: C_2  and  C_20 
REMARK    3  A    between atoms: C_3  and  C_4 
REMARK       I    between atoms: C_4  and  N_5 
REMARK    4  A    between atoms: N_5  and  C_6 
REMARK    5  A    between atoms: C_13  and  C_14 
REMARK       I    between atoms: C_14  and  N_15 
REMARK    6  A    between atoms: C_20  and  C_21 
REMARK    7  A    between atoms: C_22  and  O_23 
ROOT
HETATM    1  C   UNL     1       5.345  26.366  52.582  1.00  0.00     0.222 C 
HETATM    2  N   UNL     1       5.322  27.656  53.028  1.00  0.00    -0.327 N 
HETATM    3  O   UNL     1       4.963  26.162  51.425  1.00  0.00    -0.273 OA
HETATM    4  H   UNL     1       4.823  28.247  52.373  1.00  0.00     0.169 HD
ENDROOT
BRANCH   2   5
HETATM    5  C   UNL     1       5.814  28.285  54.184  1.00  0.00     0.035 A 
HETATM    6  C   UNL     1       5.007  28.887  55.154  1.00  0.00     0.046 A 
HETATM    7  C   UNL     1       5.602  29.533  56.258  1.00  0.00     0.030 A 
HETATM    8  C   UNL     1       6.983  29.501  56.392  1.00  0.00     0.063 A 
HETATM    9  C   UNL     1       5.138  30.283  57.379  1.00  0.00     0.156 A 
HETATM   10  N   UNL     1       7.253  30.198  57.537  1.00  0.00    -0.277 N 
HETATM   11  C   UNL     1       7.817  28.850  55.482  1.00  0.00     0.034 A 
HETATM   12  H   UNL     1       8.162  30.377  57.947  1.00  0.00     0.189 HD
HETATM   13  N   UNL     1       6.167  30.690  58.157  1.00  0.00    -0.168 NA
HETATM   14  C   UNL     1       7.201  28.239  54.381  1.00  0.00     0.032 A 
BRANCH   9  15
HETATM   15  C   UNL     1       3.746  30.635  57.698  1.00  0.00     0.270 C 
HETATM   16  N   UNL     1       3.381  30.361  58.987  1.00  0.00    -0.365 N 
HETATM   17  H   UNL     1       4.074  29.971  59.616  1.00  0.00     0.159 HD
HETATM   18  H   UNL     1       2.456  30.598  59.308  1.00  0.00     0.159 HD
HETATM   19  O   UNL     1       2.960  31.142  56.905  1.00  0.00    -0.266 OA
ENDBRANCH   9  15
ENDBRANCH   2   5
BRANCH   1  20
HETATM   20  C   UNL     1       5.678  25.208  53.503  1.00  0.00     0.107 C 
BRANCH  20  21
HETATM   21  C   UNL     1       7.130  24.695  53.423  1.00  0.00    -0.006 C 
HETATM   22  C   UNL     1       7.941  25.330  52.288  1.00  0.00     0.011 C 
BRANCH  21  23
HETATM   23  C   UNL     1       7.216  23.152  53.345  1.00  0.00     0.046 C 
BRANCH  23  24
HETATM   24  C   UNL     1       7.658  22.490  54.642  1.00  0.00    -0.024 A 
HETATM   25  C   UNL     1       7.848  21.096  54.738  1.00  0.00     0.074 A 
HETATM   26  C   UNL     1       8.216  20.531  55.964  1.00  0.00     0.037 A 
HETATM   27  C   UNL     1       8.413  21.336  57.089  1.00  0.00     0.003 A 
HETATM   28  C   UNL     1       8.260  22.713  56.995  1.00  0.00     0.001 A 
HETATM   29  C   UNL     1       7.895  23.287  55.778  1.00  0.00     0.010 A 
BRANCH  25  30
HETATM   30  O   UNL     1       7.640  20.377  53.591  1.00  0.00    -0.355 OA
HETATM   31  C   UNL     1       8.762  20.118  52.760  1.00  0.00     0.210 C 
ENDBRANCH  25  30
ENDBRANCH  23  24
ENDBRANCH  21  23
ENDBRANCH  20  21
ENDBRANCH   1  20
TORSDOF 7
ENDMDL
MODEL 10
REMARK VINA RESULT:      -8.3      4.975      7.572
REMARK  7 active torsions:
REMARK  status: ('A' for Active; 'I' for Inactive)
REMARK    1  A    between atoms: C_2  and  C_3 
REMARK    2  A    between atoms: C_2  and  C_20 
REMARK    3  A    between atoms: C_3  and  C_4 
REMARK       I    between atoms: C_4  and  N_5 
REMARK    4  A    between atoms: N_5  and  C_6 
REMARK    5  A    between atoms: C_13  and  C_14 
REMARK       I    between atoms: C_14  and  N_15 
REMARK    6  A    between atoms: C_20  and  C_21 
REMARK    7  A    between atoms: C_22  and  O_23 
ROOT
HETATM    1  C   UNL     1       9.634  31.478  58.851  1.00  0.00     0.222 C 
HETATM    2  N   UNL     1       9.105  32.406  59.700  1.00  0.00    -0.327 N 
HETATM    3  O   UNL     1      10.618  31.818  58.184  1.00  0.00    -0.273 OA
HETATM    4  H   UNL     1       9.515  33.317  59.527  1.00  0.00     0.169 HD
ENDROOT
BRANCH   2   5
HETATM    5  C   UNL     1       8.125  32.344  60.706  1.00  0.00     0.035 A 
HETATM    6  C   UNL     1       6.751  32.281  60.458  1.00  0.00     0.046 A 
HETATM    7  C   UNL     1       5.844  32.268  61.540  1.00  0.00     0.030 A 
HETATM    8  C   UNL     1       6.343  32.254  62.835  1.00  0.00     0.063 A 
HETATM    9  C   UNL     1       4.425  32.268  61.688  1.00  0.00     0.156 A 
HETATM   10  N   UNL     1       5.243  32.241  63.647  1.00  0.00    -0.277 N 
HETATM   11  C   UNL     1       7.709  32.246  63.121  1.00  0.00     0.034 A 
HETATM   12  H   UNL     1       5.228  32.227  64.660  1.00  0.00     0.189 HD
HETATM   13  N   UNL     1       4.069  32.255  62.993  1.00  0.00    -0.168 NA
HETATM   14  C   UNL     1       8.586  32.286  62.028  1.00  0.00     0.032 A 
BRANCH   9  15
HETATM   15  C   UNL     1       3.420  32.307  60.616  1.00  0.00     0.270 C 
HETATM   16  N   UNL     1       2.988  31.075  60.210  1.00  0.00    -0.365 N 
HETATM   17  H   UNL     1       3.359  30.253  60.673  1.00  0.00     0.159 HD
HETATM   18  H   UNL     1       2.274  31.002  59.502  1.00  0.00     0.159 HD
HETATM   19  O   UNL     1       2.979  33.336  60.117  1.00  0.00    -0.266 OA
ENDBRANCH   9  15
ENDBRANCH   2   5
BRANCH   1  20
HETATM   20  C   UNL     1       8.966  30.137  58.615  1.00  0.00     0.107 C 
BRANCH  20  21
HETATM   21  C   UNL     1       8.033  30.070  57.389  1.00  0.00    -0.006 C 
HETATM   22  C   UNL     1       6.574  29.763  57.745  1.00  0.00     0.011 C 
BRANCH  21  23
HETATM   23  C   UNL     1       8.538  29.086  56.306  1.00  0.00     0.046 C 
BRANCH  23  24
HETATM   24  C   UNL     1       7.869  27.720  56.349  1.00  0.00    -0.024 A 
HETATM   25  C   UNL     1       6.873  27.351  55.422  1.00  0.00     0.074 A 
HETATM   26  C   UNL     1       6.259  26.097  55.529  1.00  0.00     0.037 A 
HETATM   27  C   UNL     1       6.637  25.202  56.533  1.00  0.00     0.003 A 
HETATM   28  C   UNL     1       7.641  25.546  57.429  1.00  0.00     0.001 A 
HETATM   29  C   UNL     1       8.260  26.791  57.332  1.00  0.00     0.010 A 
BRANCH  25  30
HETATM   30  O   UNL     1       6.562  28.281  54.465  1.00  0.00    -0.355 OA
HETATM   31  C   UNL     1       5.213  28.714  54.378  1.00  0.00     0.210 C 
ENDBRANCH  25  30
ENDBRANCH  23  24
ENDBRANCH  21  23
ENDBRANCH  20  21
ENDBRANCH   1  20
TORSDOF 7
ENDMDL
