MODEL 1
REMARK VINA RESULT:     -10.7      0.000      0.000
REMARK  9 active torsions:
REMARK  status: ('A' for Active; 'I' for Inactive)
REMARK    1  A    between atoms: C_6  and  N_7 
REMARK       I    between atoms: N_7  and  C_8 
REMARK    2  A    between atoms: C_8  and  C_9 
REMARK    3  A    between atoms: C_9  and  N_10 
REMARK       I    between atoms: N_10  and  C_11 
REMARK    4  A    between atoms: C_11  and  C_12 
REMARK    5  A    between atoms: C_12  and  S_13 
REMARK    6  A    between atoms: S_13  and  C_14 
REMARK    7  A    between atoms: N_15  and  C_16 
REMARK    8  A    between atoms: C_22  and  C_23 
REMARK    9  A    between atoms: C_23  and  N_24 
ROOT
HETATM    1  C   UNL     1       6.286  28.744  55.529  1.00  0.00     0.185 C 
ENDROOT
BRANCH   1   2
HETATM    2  C   UNL     1       7.715  29.093  55.907  1.00  0.00     0.227 C 
HETATM    3  N   UNL     1       7.854  29.720  57.125  1.00  0.00    -0.352 N 
HETATM    4  H   UNL     1       7.030  30.029  57.630  1.00  0.00     0.162 HD
HETATM    5  O   UNL     1       8.681  28.906  55.168  1.00  0.00    -0.273 OA
BRANCH   3   6
HETATM    6  C   UNL     1       9.152  30.090  57.674  1.00  0.00     0.225 C 
BRANCH   6   7
HETATM    7  C   UNL     1       9.078  31.103  58.826  1.00  0.00     0.239 C 
HETATM    8  N   UNL     1       8.142  30.762  59.792  1.00  0.00    -0.325 N 
HETATM    9  H   UNL     1       7.442  30.105  59.451  1.00  0.00     0.169 HD
HETATM   10  O   UNL     1       9.686  32.167  58.759  1.00  0.00    -0.271 OA
BRANCH   8  11
HETATM   11  C   UNL     1       7.791  31.555  60.910  1.00  0.00     0.046 A 
HETATM   12  C   UNL     1       8.562  31.404  62.089  1.00  0.00    -0.034 A 
HETATM   13  C   UNL     1       8.224  32.138  63.239  1.00  0.00     0.015 A 
HETATM   14  C   UNL     1       9.701  30.424  62.179  1.00  0.00     0.050 C 
HETATM   15  C   UNL     1       7.139  33.018  63.240  1.00  0.00    -0.061 A 
HETATM   16  C   UNL     1       6.775  33.788  64.474  1.00  0.00     0.048 C 
HETATM   17  C   UNL     1       6.425  33.206  62.056  1.00  0.00     0.015 A 
HETATM   18  C   UNL     1       6.749  32.505  60.879  1.00  0.00    -0.034 A 
HETATM   19  C   UNL     1       5.955  32.852  59.647  1.00  0.00     0.050 C 
ENDBRANCH   8  11
ENDBRANCH   6   7
ENDBRANCH   3   6
ENDBRANCH   1   2
BRANCH   1  20
HETATM   20  S   UNL     1       5.605  27.572  56.738  1.00  0.00    -0.081 SA
BRANCH  20  21
HETATM   21  C   UNL     1       6.842  26.358  56.758  1.00  0.00     0.196 A 
HETATM   22  N   UNL     1       7.099  25.467  55.731  1.00  0.00    -0.274 N 
HETATM   23  C   UNL     1       8.063  24.622  56.262  1.00  0.00     0.161 A 
HETATM   24  N   UNL     1       8.324  24.959  57.509  1.00  0.00    -0.132 NA
HETATM   25  N   UNL     1       7.553  26.039  57.817  1.00  0.00    -0.122 NA
BRANCH  22  26
HETATM   26  C   UNL     1       6.590  25.429  54.412  1.00  0.00     0.043 A 
HETATM   27  C   UNL     1       5.321  24.898  54.159  1.00  0.00     0.030 A 
HETATM   28  C   UNL     1       4.811  24.915  52.860  1.00  0.00     0.002 A 
HETATM   29  C   UNL     1       5.566  25.449  51.816  1.00  0.00     0.000 A 
HETATM   30  C   UNL     1       6.835  25.969  52.064  1.00  0.00     0.002 A 
HETATM   31  C   UNL     1       7.351  25.965  53.361  1.00  0.00     0.030 A 
ENDBRANCH  22  26
BRANCH  23  32
HETATM   32  C   UNL     1       8.857  23.614  55.515  1.00  0.00     0.315 C 
BRANCH  32  33
HETATM   33  N   UNL     1       7.949  22.530  54.973  1.00  0.00    -0.064 N 
HETATM   34  H   UNL     1       6.993  22.899  55.108  1.00  0.00     0.280 HD
HETATM   35  C   UNL     1       8.009  21.224  55.743  1.00  0.00     0.235 C 
HETATM   36  C   UNL     1       8.451  20.202  54.712  1.00  0.00     0.029 C 
HETATM   37  C   UNL     1       7.867  20.733  53.418  1.00  0.00     0.029 C 
HETATM   38  C   UNL     1       8.141  22.221  53.512  1.00  0.00     0.235 C 
ENDBRANCH  32  33
ENDBRANCH  23  32
ENDBRANCH  20  21
ENDBRANCH   1  20
TORSDOF 9
ENDMDL
MODEL 2
REMARK VINA RESULT:     -10.3      1.101      2.149
REMARK  9 active torsions:
REMARK  status: ('A' for Active; 'I' for Inactive)
REMARK    1  A    between atoms: C_6  and  N_7 
REMARK       I    between atoms: N_7  and  C_8 
REMARK    2  A    between atoms: C_8  and  C_9 
REMARK    3  A    between atoms: C_9  and  N_10 
REMARK       I    between atoms: N_10  and  C_11 
REMARK    4  A    between atoms: C_11  and  C_12 
REMARK    5  A    between atoms: C_12  and  S_13 
REMARK    6  A    between atoms: S_13  and  C_14 
REMARK    7  A    between atoms: N_15  and  C_16 
REMARK    8  A    between atoms: C_22  and  C_23 
REMARK    9  A    between atoms: C_23  and  N_24 
ROOT
HETATM    1  C   UNL     1       6.966  28.892  56.126  1.00  0.00     0.185 C 
ENDROOT
BRANCH   1   2
HETATM    2  C   UNL     1       8.096  29.326  57.043  1.00  0.00     0.227 C 
HETATM    3  N   UNL     1       7.692  29.854  58.248  1.00  0.00    -0.352 N 
HETATM    4  H   UNL     1       6.710  30.047  58.411  1.00  0.00     0.162 HD
HETATM    5  O   UNL     1       9.285  29.288  56.725  1.00  0.00    -0.273 OA
BRANCH   3   6
HETATM    6  C   UNL     1       8.636  30.284  59.272  1.00  0.00     0.225 C 
BRANCH   6   7
HETATM    7  C   UNL     1       8.278  31.626  59.927  1.00  0.00     0.239 C 
HETATM    8  N   UNL     1       7.122  31.570  60.692  1.00  0.00    -0.325 N 
HETATM    9  H   UNL     1       6.526  30.779  60.451  1.00  0.00     0.169 HD
HETATM   10  O   UNL     1       8.895  32.647  59.632  1.00  0.00    -0.271 OA
BRANCH   8  11
HETATM   11  C   UNL     1       6.504  32.672  61.328  1.00  0.00     0.046 A 
HETATM   12  C   UNL     1       5.393  33.264  60.679  1.00  0.00    -0.034 A 
HETATM   13  C   UNL     1       4.773  34.389  61.250  1.00  0.00     0.015 A 
HETATM   14  C   UNL     1       4.888  32.772  59.348  1.00  0.00     0.050 C 
HETATM   15  C   UNL     1       5.232  34.934  62.450  1.00  0.00    -0.061 A 
HETATM   16  C   UNL     1       4.575  36.142  63.048  1.00  0.00     0.048 C 
HETATM   17  C   UNL     1       6.287  34.305  63.114  1.00  0.00     0.015 A 
HETATM   18  C   UNL     1       6.917  33.164  62.583  1.00  0.00    -0.034 A 
HETATM   19  C   UNL     1       7.991  32.532  63.429  1.00  0.00     0.050 C 
ENDBRANCH   8  11
ENDBRANCH   6   7
ENDBRANCH   3   6
ENDBRANCH   1   2
BRANCH   1  20
HETATM   20  S   UNL     1       6.017  27.561  56.919  1.00  0.00    -0.081 SA
BRANCH  20  21
HETATM   21  C   UNL     1       7.178  26.274  56.911  1.00  0.00     0.196 A 
HETATM   22  N   UNL     1       7.372  25.385  55.869  1.00  0.00    -0.274 N 
HETATM   23  C   UNL     1       8.288  24.474  56.380  1.00  0.00     0.161 A 
HETATM   24  N   UNL     1       8.578  24.777  57.629  1.00  0.00    -0.132 NA
HETATM   25  N   UNL     1       7.877  25.898  57.959  1.00  0.00    -0.122 NA
BRANCH  22  26
HETATM   26  C   UNL     1       6.852  25.396  54.554  1.00  0.00     0.043 A 
HETATM   27  C   UNL     1       7.639  25.841  53.487  1.00  0.00     0.030 A 
HETATM   28  C   UNL     1       7.131  25.798  52.188  1.00  0.00     0.002 A 
HETATM   29  C   UNL     1       5.840  25.324  51.954  1.00  0.00     0.000 A 
HETATM   30  C   UNL     1       5.050  24.890  53.018  1.00  0.00     0.002 A 
HETATM   31  C   UNL     1       5.552  24.921  54.319  1.00  0.00     0.030 A 
ENDBRANCH  22  26
BRANCH  23  32
HETATM   32  C   UNL     1       9.012  23.431  55.612  1.00  0.00     0.315 C 
BRANCH  32  33
HETATM   33  N   UNL     1       8.046  22.372  55.126  1.00  0.00    -0.064 N 
HETATM   34  H   UNL     1       7.110  22.752  55.348  1.00  0.00     0.280 HD
HETATM   35  C   UNL     1       8.148  21.050  55.864  1.00  0.00     0.235 C 
HETATM   36  C   UNL     1       8.486  20.043  54.781  1.00  0.00     0.029 C 
HETATM   37  C   UNL     1       7.806  20.607  53.551  1.00  0.00     0.029 C 
HETATM   38  C   UNL     1       8.111  22.089  53.650  1.00  0.00     0.235 C 
ENDBRANCH  32  33
ENDBRANCH  23  32
ENDBRANCH  20  21
ENDBRANCH   1  20
TORSDOF 9
ENDMDL
MODEL 3
REMARK VINA RESULT:     -10.2      1.611      2.321
REMARK  9 active torsions:
REMARK  status: ('A' for Active; 'I' for Inactive)
REMARK    1  A    between atoms: C_6  and  N_7 
REMARK       I    between atoms: N_7  and  C_8 
REMARK    2  A    between atoms: C_8  and  C_9 
REMARK    3  A    between atoms: C_9  and  N_10 
REMARK       I    between atoms: N_10  and  C_11 
REMARK    4  A    between atoms: C_11  and  C_12 
REMARK    5  A    between atoms: C_12  and  S_13 
REMARK    6  A    between atoms: S_13  and  C_14 
REMARK    7  A    between atoms: N_15  and  C_16 
REMARK    8  A    between atoms: C_22  and  C_23 
REMARK    9  A    between atoms: C_23  and  N_24 
ROOT
HETATM    1  C   UNL     1       7.203  28.876  57.538  1.00  0.00     0.185 C 
ENDROOT
BRANCH   1   2
HETATM    2  C   UNL     1       6.402  30.167  57.535  1.00  0.00     0.227 C 
HETATM    3  N   UNL     1       6.417  30.858  58.725  1.00  0.00    -0.352 N 
HETATM    4  H   UNL     1       6.826  30.434  59.551  1.00  0.00     0.162 HD
HETATM    5  O   UNL     1       5.726  30.548  56.580  1.00  0.00    -0.273 OA
BRANCH   3   6
HETATM    6  C   UNL     1       5.743  32.139  58.897  1.00  0.00     0.225 C 
BRANCH   6   7
HETATM    7  C   UNL     1       5.477  32.513  60.363  1.00  0.00     0.239 C 
HETATM    8  N   UNL     1       6.580  33.072  60.992  1.00  0.00    -0.325 N 
HETATM    9  H   UNL     1       7.457  32.856  60.520  1.00  0.00     0.169 HD
HETATM   10  O   UNL     1       4.432  32.176  60.911  1.00  0.00    -0.271 OA
BRANCH   8  11
HETATM   11  C   UNL     1       6.655  33.419  62.362  1.00  0.00     0.046 A 
HETATM   12  C   UNL     1       7.466  32.615  63.199  1.00  0.00    -0.034 A 
HETATM   13  C   UNL     1       7.537  32.895  64.575  1.00  0.00     0.015 A 
HETATM   14  C   UNL     1       8.209  31.413  62.678  1.00  0.00     0.050 C 
HETATM   15  C   UNL     1       6.822  33.956  65.132  1.00  0.00    -0.061 A 
HETATM   16  C   UNL     1       6.890  34.241  66.603  1.00  0.00     0.048 C 
HETATM   17  C   UNL     1       6.076  34.781  64.289  1.00  0.00     0.015 A 
HETATM   18  C   UNL     1       6.000  34.545  62.903  1.00  0.00    -0.034 A 
HETATM   19  C   UNL     1       5.227  35.549  62.090  1.00  0.00     0.050 C 
ENDBRANCH   8  11
ENDBRANCH   6   7
ENDBRANCH   3   6
ENDBRANCH   1   2
BRANCH   1  20
HETATM   20  S   UNL     1       6.158  27.512  56.948  1.00  0.00    -0.081 SA
BRANCH  20  21
HETATM   21  C   UNL     1       7.302  26.210  56.909  1.00  0.00     0.196 A 
HETATM   22  N   UNL     1       7.470  25.331  55.855  1.00  0.00    -0.274 N 
HETATM   23  C   UNL     1       8.380  24.402  56.342  1.00  0.00     0.161 A 
HETATM   24  N   UNL     1       8.691  24.686  57.591  1.00  0.00    -0.132 NA
HETATM   25  N   UNL     1       8.009  25.811  57.943  1.00  0.00    -0.122 NA
BRANCH  22  26
HETATM   26  C   UNL     1       6.933  25.365  54.546  1.00  0.00     0.043 A 
HETATM   27  C   UNL     1       7.704  25.835  53.478  1.00  0.00     0.030 A 
HETATM   28  C   UNL     1       7.180  25.815  52.185  1.00  0.00     0.002 A 
HETATM   29  C   UNL     1       5.889  25.338  51.958  1.00  0.00     0.000 A 
HETATM   30  C   UNL     1       5.115  24.879  53.023  1.00  0.00     0.002 A 
HETATM   31  C   UNL     1       5.633  24.887  54.318  1.00  0.00     0.030 A 
ENDBRANCH  22  26
BRANCH  23  32
HETATM   32  C   UNL     1       9.080  23.359  55.552  1.00  0.00     0.315 C 
BRANCH  32  33
HETATM   33  N   UNL     1       8.097  22.309  55.082  1.00  0.00    -0.064 N 
HETATM   34  H   UNL     1       7.168  22.693  55.328  1.00  0.00     0.280 HD
HETATM   35  C   UNL     1       8.209  20.980  55.807  1.00  0.00     0.235 C 
HETATM   36  C   UNL     1       8.515  19.980  54.709  1.00  0.00     0.029 C 
HETATM   37  C   UNL     1       7.809  20.558  53.499  1.00  0.00     0.029 C 
HETATM   38  C   UNL     1       8.125  22.037  53.602  1.00  0.00     0.235 C 
ENDBRANCH  32  33
ENDBRANCH  23  32
ENDBRANCH  20  21
ENDBRANCH   1  20
TORSDOF 9
ENDMDL
MODEL 4
REMARK VINA RESULT:      -9.9      0.844      1.862
REMARK  9 active torsions:
REMARK  status: ('A' for Active; 'I' for Inactive)
REMARK    1  A    between atoms: C_6  and  N_7 
REMARK       I    between atoms: N_7  and  C_8 
REMARK    2  A    between atoms: C_8  and  C_9 
REMARK    3  A    between atoms: C_9  and  N_10 
REMARK       I    between atoms: N_10  and  C_11 
REMARK    4  A    between atoms: C_11  and  C_12 
REMARK    5  A    between atoms: C_12  and  S_13 
REMARK    6  A    between atoms: S_13  and  C_14 
REMARK    7  A    between atoms: N_15  and  C_16 
REMARK    8  A    between atoms: C_22  and  C_23 
REMARK    9  A    between atoms: C_23  and  N_24 
ROOT
HETATM    1  C   UNL     1       6.401  28.664  56.360  1.00  0.00     0.185 C 
ENDROOT
BRANCH   1   2
HETATM    2  C   UNL     1       7.618  28.869  57.245  1.00  0.00     0.227 C 
HETATM    3  N   UNL     1       8.563  29.731  56.736  1.00  0.00    -0.352 N 
HETATM    4  H   UNL     1       8.478  30.070  55.784  1.00  0.00     0.162 HD
HETATM    5  O   UNL     1       7.802  28.266  58.302  1.00  0.00    -0.273 OA
BRANCH   3   6
HETATM    6  C   UNL     1       9.776  30.084  57.464  1.00  0.00     0.225 C 
BRANCH   6   7
HETATM    7  C   UNL     1       9.548  31.081  58.609  1.00  0.00     0.239 C 
HETATM    8  N   UNL     1       8.582  30.663  59.513  1.00  0.00    -0.325 N 
HETATM    9  H   UNL     1       7.959  29.955  59.128  1.00  0.00     0.169 HD
HETATM   10  O   UNL     1      10.074  32.190  58.583  1.00  0.00    -0.271 OA
BRANCH   8  11
HETATM   11  C   UNL     1       8.099  31.419  60.607  1.00  0.00     0.046 A 
HETATM   12  C   UNL     1       6.975  32.252  60.383  1.00  0.00    -0.034 A 
HETATM   13  C   UNL     1       6.486  33.055  61.427  1.00  0.00     0.015 A 
HETATM   14  C   UNL     1       6.319  32.363  59.032  1.00  0.00     0.050 C 
HETATM   15  C   UNL     1       7.088  33.046  62.686  1.00  0.00    -0.061 A 
HETATM   16  C   UNL     1       6.570  33.916  63.793  1.00  0.00     0.048 C 
HETATM   17  C   UNL     1       8.155  32.176  62.916  1.00  0.00     0.015 A 
HETATM   18  C   UNL     1       8.657  31.340  61.900  1.00  0.00    -0.034 A 
HETATM   19  C   UNL     1       9.759  30.392  62.291  1.00  0.00     0.050 C 
ENDBRANCH   8  11
ENDBRANCH   6   7
ENDBRANCH   3   6
ENDBRANCH   1   2
BRANCH   1  20
HETATM   20  S   UNL     1       5.510  27.171  56.887  1.00  0.00    -0.081 SA
BRANCH  20  21
HETATM   21  C   UNL     1       6.716  25.954  56.624  1.00  0.00     0.196 A 
HETATM   22  N   UNL     1       6.946  25.310  55.422  1.00  0.00    -0.274 N 
HETATM   23  C   UNL     1       7.891  24.344  55.741  1.00  0.00     0.161 A 
HETATM   24  N   UNL     1       8.164  24.386  57.030  1.00  0.00    -0.132 NA
HETATM   25  N   UNL     1       7.422  25.389  57.579  1.00  0.00    -0.122 NA
BRANCH  22  26
HETATM   26  C   UNL     1       6.433  25.581  54.132  1.00  0.00     0.043 A 
HETATM   27  C   UNL     1       6.977  26.610  53.357  1.00  0.00     0.030 A 
HETATM   28  C   UNL     1       6.496  26.832  52.066  1.00  0.00     0.002 A 
HETATM   29  C   UNL     1       5.471  26.039  51.553  1.00  0.00     0.000 A 
HETATM   30  C   UNL     1       4.920  25.019  52.327  1.00  0.00     0.002 A 
HETATM   31  C   UNL     1       5.400  24.784  53.616  1.00  0.00     0.030 A 
ENDBRANCH  22  26
BRANCH  23  32
HETATM   32  C   UNL     1       8.655  23.509  54.781  1.00  0.00     0.315 C 
BRANCH  32  33
HETATM   33  N   UNL     1       7.870  22.264  54.427  1.00  0.00    -0.064 N 
HETATM   34  H   UNL     1       6.886  22.513  54.624  1.00  0.00     0.280 HD
HETATM   35  C   UNL     1       8.183  21.062  55.298  1.00  0.00     0.235 C 
HETATM   36  C   UNL     1       8.677  20.011  54.322  1.00  0.00     0.029 C 
HETATM   37  C   UNL     1       7.915  20.326  53.051  1.00  0.00     0.029 C 
HETATM   38  C   UNL     1       7.979  21.839  52.988  1.00  0.00     0.235 C 
ENDBRANCH  32  33
ENDBRANCH  23  32
ENDBRANCH  20  21
ENDBRANCH   1  20
TORSDOF 9
ENDMDL
MODEL 5
REMARK VINA RESULT:      -9.7      2.513     11.025
REMARK  9 active torsions:
REMARK  status: ('A' for Active; 'I' for Inactive)
REMARK    1  A    between atoms: C_6  and  N_7 
REMARK       I    between atoms: N_7  and  C_8 
REMARK    2  A    between atoms: C_8  and  C_9 
REMARK    3  A    between atoms: C_9  and  N_10 
REMARK       I    between atoms: N_10  and  C_11 
REMARK    4  A    between atoms: C_11  and  C_12 
REMARK    5  A    between atoms: C_12  and  S_13 
REMARK    6  A    between atoms: S_13  and  C_14 
REMARK    7  A    between atoms: N_15  and  C_16 
REMARK    8  A    between atoms: C_22  and  C_23 
REMARK    9  A    between atoms: C_23  and  N_24 
ROOT
HETATM    1  C   UNL     1       4.416  30.403  57.203  1.00  0.00     0.185 C 
ENDROOT
BRANCH   1   2
HETATM    2  C   UNL     1       4.719  29.753  55.863  1.00  0.00     0.227 C 
HETATM    3  N   UNL     1       5.934  29.110  55.795  1.00  0.00    -0.352 N 
HETATM    4  H   UNL     1       6.600  29.206  56.554  1.00  0.00     0.162 HD
HETATM    5  O   UNL     1       3.985  29.845  54.879  1.00  0.00    -0.273 OA
BRANCH   3   6
HETATM    6  C   UNL     1       6.376  28.393  54.606  1.00  0.00     0.225 C 
BRANCH   6   7
HETATM    7  C   UNL     1       6.244  26.866  54.712  1.00  0.00     0.239 C 
HETATM    8  N   UNL     1       7.438  26.198  54.482  1.00  0.00    -0.325 N 
HETATM    9  H   UNL     1       8.117  26.763  53.973  1.00  0.00     0.169 HD
HETATM   10  O   UNL     1       5.139  26.343  54.825  1.00  0.00    -0.271 OA
BRANCH   8  11
HETATM   11  C   UNL     1       7.593  24.793  54.418  1.00  0.00     0.046 A 
HETATM   12  C   UNL     1       7.697  24.202  53.135  1.00  0.00    -0.034 A 
HETATM   13  C   UNL     1       7.809  22.806  53.020  1.00  0.00     0.015 A 
HETATM   14  C   UNL     1       7.622  25.017  51.871  1.00  0.00     0.050 C 
HETATM   15  C   UNL     1       7.821  21.988  54.151  1.00  0.00    -0.061 A 
HETATM   16  C   UNL     1       7.926  20.497  54.022  1.00  0.00     0.048 C 
HETATM   17  C   UNL     1       7.782  22.584  55.412  1.00  0.00     0.015 A 
HETATM   18  C   UNL     1       7.693  23.980  55.567  1.00  0.00    -0.034 A 
HETATM   19  C   UNL     1       7.735  24.507  56.977  1.00  0.00     0.050 C 
ENDBRANCH   8  11
ENDBRANCH   6   7
ENDBRANCH   3   6
ENDBRANCH   1   2
BRANCH   1  20
HETATM   20  S   UNL     1       5.966  30.947  57.980  1.00  0.00    -0.081 SA
BRANCH  20  21
HETATM   21  C   UNL     1       5.385  32.176  59.054  1.00  0.00     0.196 A 
HETATM   22  N   UNL     1       5.969  32.518  60.261  1.00  0.00    -0.274 N 
HETATM   23  C   UNL     1       5.081  33.433  60.810  1.00  0.00     0.161 A 
HETATM   24  N   UNL     1       4.041  33.587  60.014  1.00  0.00    -0.132 NA
HETATM   25  N   UNL     1       4.232  32.795  58.923  1.00  0.00    -0.122 NA
BRANCH  22  26
HETATM   26  C   UNL     1       7.209  32.124  60.815  1.00  0.00     0.043 A 
HETATM   27  C   UNL     1       7.248  31.324  61.963  1.00  0.00     0.030 A 
HETATM   28  C   UNL     1       8.477  30.899  62.468  1.00  0.00     0.002 A 
HETATM   29  C   UNL     1       9.663  31.278  61.840  1.00  0.00     0.000 A 
HETATM   30  C   UNL     1       9.627  32.083  60.702  1.00  0.00     0.002 A 
HETATM   31  C   UNL     1       8.403  32.506  60.184  1.00  0.00     0.030 A 
ENDBRANCH  22  26
BRANCH  23  32
HETATM   32  C   UNL     1       5.319  34.286  62.001  1.00  0.00     0.315 C 
BRANCH  32  33
HETATM   33  N   UNL     1       4.658  33.680  63.220  1.00  0.00    -0.064 N 
HETATM   34  H   UNL     1       4.344  32.745  62.908  1.00  0.00     0.280 HD
HETATM   35  C   UNL     1       3.410  34.411  63.680  1.00  0.00     0.235 C 
HETATM   36  C   UNL     1       3.728  34.834  65.101  1.00  0.00     0.029 C 
HETATM   37  C   UNL     1       4.651  33.740  65.597  1.00  0.00     0.029 C 
HETATM   38  C   UNL     1       5.564  33.509  64.409  1.00  0.00     0.235 C 
ENDBRANCH  32  33
ENDBRANCH  23  32
ENDBRANCH  20  21
ENDBRANCH   1  20
TORSDOF 9
ENDMDL
MODEL 6
REMARK VINA RESULT:      -9.6      2.350      4.027
REMARK  9 active torsions:
REMARK  status: ('A' for Active; 'I' for Inactive)
REMARK    1  A    between atoms: C_6  and  N_7 
REMARK       I    between atoms: N_7  and  C_8 
REMARK    2  A    between atoms: C_8  and  C_9 
REMARK    3  A    between atoms: C_9  and  N_10 
REMARK       I    between atoms: N_10  and  C_11 
REMARK    4  A    between atoms: C_11  and  C_12 
REMARK    5  A    between atoms: C_12  and  S_13 
REMARK    6  A    between atoms: S_13  and  C_14 
REMARK    7  A    between atoms: N_15  and  C_16 
REMARK    8  A    between atoms: C_22  and  C_23 
REMARK    9  A    between atoms: C_23  and  N_24 
ROOT
HETATM    1  C   UNL     1       8.097  30.271  58.891  1.00  0.00     0.185 C 
ENDROOT
BRANCH   1   2
HETATM    2  C   UNL     1       7.497  31.529  59.497  1.00  0.00     0.227 C 
HETATM    3  N   UNL     1       6.149  31.453  59.767  1.00  0.00    -0.352 N 
HETATM    4  H   UNL     1       5.613  30.655  59.444  1.00  0.00     0.162 HD
HETATM    5  O   UNL     1       8.130  32.570  59.672  1.00  0.00    -0.273 OA
BRANCH   3   6
HETATM    6  C   UNL     1       5.412  32.546  60.389  1.00  0.00     0.225 C 
BRANCH   6   7
HETATM    7  C   UNL     1       5.293  32.428  61.916  1.00  0.00     0.239 C 
HETATM    8  N   UNL     1       5.434  33.644  62.570  1.00  0.00    -0.325 N 
HETATM    9  H   UNL     1       5.904  34.347  62.001  1.00  0.00     0.169 HD
HETATM   10  O   UNL     1       5.246  31.326  62.454  1.00  0.00    -0.271 OA
BRANCH   8  11
HETATM   11  C   UNL     1       5.467  33.823  63.973  1.00  0.00     0.046 A 
HETATM   12  C   UNL     1       4.252  34.159  64.619  1.00  0.00    -0.034 A 
HETATM   13  C   UNL     1       4.244  34.390  66.006  1.00  0.00     0.015 A 
HETATM   14  C   UNL     1       2.967  34.350  63.858  1.00  0.00     0.050 C 
HETATM   15  C   UNL     1       5.414  34.292  66.760  1.00  0.00    -0.061 A 
HETATM   16  C   UNL     1       5.402  34.552  68.237  1.00  0.00     0.048 C 
HETATM   17  C   UNL     1       6.593  33.898  66.125  1.00  0.00     0.015 A 
HETATM   18  C   UNL     1       6.634  33.637  64.742  1.00  0.00    -0.034 A 
HETATM   19  C   UNL     1       7.945  33.146  64.187  1.00  0.00     0.050 C 
ENDBRANCH   8  11
ENDBRANCH   6   7
ENDBRANCH   3   6
ENDBRANCH   1   2
BRANCH   1  20
HETATM   20  S   UNL     1       7.309  29.931  57.290  1.00  0.00    -0.081 SA
BRANCH  20  21
HETATM   21  C   UNL     1       7.386  28.200  57.243  1.00  0.00     0.196 A 
HETATM   22  N   UNL     1       6.760  27.402  56.303  1.00  0.00    -0.274 N 
HETATM   23  C   UNL     1       6.994  26.111  56.757  1.00  0.00     0.161 A 
HETATM   24  N   UNL     1       7.666  26.146  57.891  1.00  0.00    -0.132 NA
HETATM   25  N   UNL     1       7.901  27.453  58.194  1.00  0.00    -0.122 NA
BRANCH  22  26
HETATM   26  C   UNL     1       6.097  27.757  55.105  1.00  0.00     0.043 A 
HETATM   27  C   UNL     1       6.808  27.849  53.904  1.00  0.00     0.030 A 
HETATM   28  C   UNL     1       6.131  28.149  52.721  1.00  0.00     0.002 A 
HETATM   29  C   UNL     1       4.753  28.367  52.736  1.00  0.00     0.000 A 
HETATM   30  C   UNL     1       4.044  28.286  53.933  1.00  0.00     0.002 A 
HETATM   31  C   UNL     1       4.711  27.978  55.120  1.00  0.00     0.030 A 
ENDBRANCH  22  26
BRANCH  23  32
HETATM   32  C   UNL     1       6.732  24.855  56.012  1.00  0.00     0.315 C 
BRANCH  32  33
HETATM   33  N   UNL     1       7.998  24.371  55.338  1.00  0.00    -0.064 N 
HETATM   34  H   UNL     1       8.697  25.105  55.540  1.00  0.00     0.280 HD
HETATM   35  C   UNL     1       7.904  24.283  53.826  1.00  0.00     0.235 C 
HETATM   36  C   UNL     1       8.182  22.824  53.518  1.00  0.00     0.029 C 
HETATM   37  C   UNL     1       9.129  22.405  54.624  1.00  0.00     0.029 C 
HETATM   38  C   UNL     1       8.521  23.056  55.851  1.00  0.00     0.235 C 
ENDBRANCH  32  33
ENDBRANCH  23  32
ENDBRANCH  20  21
ENDBRANCH   1  20
TORSDOF 9
ENDMDL
MODEL 7
REMARK VINA RESULT:      -9.5      2.796     11.126
REMARK  9 active torsions:
REMARK  status: ('A' for Active; 'I' for Inactive)
REMARK    1  A    between atoms: C_6  and  N_7 
REMARK       I    between atoms: N_7  and  C_8 
REMARK    2  A    between atoms: C_8  and  C_9 
REMARK    3  A    between atoms: C_9  and  N_10 
REMARK       I    between atoms: N_10  and  C_11 
REMARK    4  A    between atoms: C_11  and  C_12 
REMARK    5  A    between atoms: C_12  and  S_13 
REMARK    6  A    between atoms: S_13  and  C_14 
REMARK    7  A    between atoms: N_15  and  C_16 
REMARK    8  A    between atoms: C_22  and  C_23 
REMARK    9  A    between atoms: C_23  and  N_24 
ROOT
HETATM    1  C   UNL     1       4.460  32.065  56.993  1.00  0.00     0.185 C 
ENDROOT
BRANCH   1   2
HETATM    2  C   UNL     1       3.768  30.816  56.475  1.00  0.00     0.227 C 
HETATM    3  N   UNL     1       4.613  29.857  55.966  1.00  0.00    -0.352 N 
HETATM    4  H   UNL     1       5.597  30.066  55.838  1.00  0.00     0.162 HD
HETATM    5  O   UNL     1       2.545  30.681  56.436  1.00  0.00    -0.273 OA
BRANCH   3   6
HETATM    6  C   UNL     1       4.133  28.575  55.464  1.00  0.00     0.225 C 
BRANCH   6   7
HETATM    7  C   UNL     1       5.237  27.676  54.889  1.00  0.00     0.239 C 
HETATM    8  N   UNL     1       4.939  26.324  54.972  1.00  0.00    -0.325 N 
HETATM    9  H   UNL     1       4.223  26.118  55.667  1.00  0.00     0.169 HD
HETATM   10  O   UNL     1       6.319  28.154  54.558  1.00  0.00    -0.271 OA
BRANCH   8  11
HETATM   11  C   UNL     1       5.809  25.268  54.611  1.00  0.00     0.046 A 
HETATM   12  C   UNL     1       6.555  24.651  55.645  1.00  0.00    -0.034 A 
HETATM   13  C   UNL     1       7.464  23.627  55.330  1.00  0.00     0.015 A 
HETATM   14  C   UNL     1       6.460  25.103  57.079  1.00  0.00     0.050 C 
HETATM   15  C   UNL     1       7.646  23.204  54.012  1.00  0.00    -0.061 A 
HETATM   16  C   UNL     1       8.628  22.120  53.680  1.00  0.00     0.048 C 
HETATM   17  C   UNL     1       6.861  23.774  53.009  1.00  0.00     0.015 A 
HETATM   18  C   UNL     1       5.924  24.786  53.291  1.00  0.00    -0.034 A 
HETATM   19  C   UNL     1       5.084  25.267  52.137  1.00  0.00     0.050 C 
ENDBRANCH   8  11
ENDBRANCH   6   7
ENDBRANCH   3   6
ENDBRANCH   1   2
BRANCH   1  20
HETATM   20  S   UNL     1       5.652  31.609  58.287  1.00  0.00    -0.081 SA
BRANCH  20  21
HETATM   21  C   UNL     1       5.305  32.802  59.494  1.00  0.00     0.196 A 
HETATM   22  N   UNL     1       5.997  32.956  60.682  1.00  0.00    -0.274 N 
HETATM   23  C   UNL     1       5.274  33.926  61.362  1.00  0.00     0.161 A 
HETATM   24  N   UNL     1       4.222  34.286  60.654  1.00  0.00    -0.132 NA
HETATM   25  N   UNL     1       4.242  33.576  59.491  1.00  0.00    -0.122 NA
BRANCH  22  26
HETATM   26  C   UNL     1       7.201  32.354  61.118  1.00  0.00     0.043 A 
HETATM   27  C   UNL     1       7.193  31.448  62.184  1.00  0.00     0.030 A 
HETATM   28  C   UNL     1       8.379  30.823  62.569  1.00  0.00     0.002 A 
HETATM   29  C   UNL     1       9.570  31.105  61.902  1.00  0.00     0.000 A 
HETATM   30  C   UNL     1       9.583  32.015  60.845  1.00  0.00     0.002 A 
HETATM   31  C   UNL     1       8.400  32.639  60.447  1.00  0.00     0.030 A 
ENDBRANCH  22  26
BRANCH  23  32
HETATM   32  C   UNL     1       5.693  34.630  62.600  1.00  0.00     0.315 C 
BRANCH  32  33
HETATM   33  N   UNL     1       4.723  34.337  63.724  1.00  0.00    -0.064 N 
HETATM   34  H   UNL     1       3.942  33.833  63.269  1.00  0.00     0.280 HD
HETATM   35  C   UNL     1       4.113  35.573  64.359  1.00  0.00     0.235 C 
HETATM   36  C   UNL     1       4.523  35.485  65.816  1.00  0.00     0.029 C 
HETATM   37  C   UNL     1       4.595  33.993  66.073  1.00  0.00     0.029 C 
HETATM   38  C   UNL     1       5.275  33.471  64.824  1.00  0.00     0.235 C 
ENDBRANCH  32  33
ENDBRANCH  23  32
ENDBRANCH  20  21
ENDBRANCH   1  20
TORSDOF 9
ENDMDL
MODEL 8
REMARK VINA RESULT:      -9.4      2.704      4.779
REMARK  9 active torsions:
REMARK  status: ('A' for Active; 'I' for Inactive)
REMARK    1  A    between atoms: C_6  and  N_7 
REMARK       I    between atoms: N_7  and  C_8 
REMARK    2  A    between atoms: C_8  and  C_9 
REMARK    3  A    between atoms: C_9  and  N_10 
REMARK       I    between atoms: N_10  and  C_11 
REMARK    4  A    between atoms: C_11  and  C_12 
REMARK    5  A    between atoms: C_12  and  S_13 
REMARK    6  A    between atoms: S_13  and  C_14 
REMARK    7  A    between atoms: N_15  and  C_16 
REMARK    8  A    between atoms: C_22  and  C_23 
REMARK    9  A    between atoms: C_23  and  N_24 
ROOT
HETATM    1  C   UNL     1       5.668  31.040  57.626  1.00  0.00     0.185 C 
ENDROOT
BRANCH   1   2
HETATM    2  C   UNL     1       4.446  31.359  58.471  1.00  0.00     0.227 C 
HETATM    3  N   UNL     1       4.719  31.971  59.674  1.00  0.00    -0.352 N 
HETATM    4  H   UNL     1       5.679  32.055  59.991  1.00  0.00     0.162 HD
HETATM    5  O   UNL     1       3.299  31.039  58.159  1.00  0.00    -0.273 OA
BRANCH   3   6
HETATM    6  C   UNL     1       3.671  32.391  60.595  1.00  0.00     0.225 C 
BRANCH   6   7
HETATM    7  C   UNL     1       4.073  32.311  62.076  1.00  0.00     0.239 C 
HETATM    8  N   UNL     1       4.718  33.453  62.529  1.00  0.00    -0.325 N 
HETATM    9  H   UNL     1       5.110  34.013  61.772  1.00  0.00     0.169 HD
HETATM   10  O   UNL     1       3.960  31.257  62.696  1.00  0.00    -0.271 OA
BRANCH   8  11
HETATM   11  C   UNL     1       5.284  33.621  63.814  1.00  0.00     0.046 A 
HETATM   12  C   UNL     1       4.439  34.101  64.845  1.00  0.00    -0.034 A 
HETATM   13  C   UNL     1       4.967  34.326  66.128  1.00  0.00     0.015 A 
HETATM   14  C   UNL     1       2.995  34.451  64.598  1.00  0.00     0.050 C 
HETATM   15  C   UNL     1       6.313  34.082  66.407  1.00  0.00    -0.061 A 
HETATM   16  C   UNL     1       6.874  34.336  67.774  1.00  0.00     0.048 C 
HETATM   17  C   UNL     1       7.122  33.549  65.402  1.00  0.00     0.015 A 
HETATM   18  C   UNL     1       6.622  33.290  64.112  1.00  0.00    -0.034 A 
HETATM   19  C   UNL     1       7.572  32.644  63.138  1.00  0.00     0.050 C 
ENDBRANCH   8  11
ENDBRANCH   6   7
ENDBRANCH   3   6
ENDBRANCH   1   2
BRANCH   1  20
HETATM   20  S   UNL     1       5.148  30.222  56.090  1.00  0.00    -0.081 SA
BRANCH  20  21
HETATM   21  C   UNL     1       5.476  28.563  56.468  1.00  0.00     0.196 A 
HETATM   22  N   UNL     1       6.737  27.999  56.543  1.00  0.00    -0.274 N 
HETATM   23  C   UNL     1       6.482  26.647  56.730  1.00  0.00     0.161 A 
HETATM   24  N   UNL     1       5.183  26.426  56.726  1.00  0.00    -0.132 NA
HETATM   25  N   UNL     1       4.559  27.625  56.555  1.00  0.00    -0.122 NA
BRANCH  22  26
HETATM   26  C   UNL     1       8.011  28.612  56.520  1.00  0.00     0.043 A 
HETATM   27  C   UNL     1       8.653  28.863  55.303  1.00  0.00     0.030 A 
HETATM   28  C   UNL     1       9.886  29.517  55.293  1.00  0.00     0.002 A 
HETATM   29  C   UNL     1      10.482  29.910  56.492  1.00  0.00     0.000 A 
HETATM   30  C   UNL     1       9.849  29.652  57.707  1.00  0.00     0.002 A 
HETATM   31  C   UNL     1       8.612  29.006  57.726  1.00  0.00     0.030 A 
ENDBRANCH  22  26
BRANCH  23  32
HETATM   32  C   UNL     1       7.477  25.606  57.091  1.00  0.00     0.315 C 
BRANCH  32  33
HETATM   33  N   UNL     1       7.317  24.395  56.197  1.00  0.00    -0.064 N 
HETATM   34  H   UNL     1       6.328  24.115  56.312  1.00  0.00     0.280 HD
HETATM   35  C   UNL     1       8.146  23.196  56.617  1.00  0.00     0.235 C 
HETATM   36  C   UNL     1       9.034  22.918  55.420  1.00  0.00     0.029 C 
HETATM   37  C   UNL     1       8.188  23.357  54.243  1.00  0.00     0.029 C 
HETATM   38  C   UNL     1       7.575  24.653  54.736  1.00  0.00     0.235 C 
ENDBRANCH  32  33
ENDBRANCH  23  32
ENDBRANCH  20  21
ENDBRANCH   1  20
TORSDOF 9
ENDMDL
MODEL 9
REMARK VINA RESULT:      -9.2      1.776      2.586
REMARK  9 active torsions:
REMARK  status: ('A' for Active; 'I' for Inactive)
REMARK    1  A    between atoms: C_6  and  N_7 
REMARK       I    between atoms: N_7  and  C_8 
REMARK    2  A    between atoms: C_8  and  C_9 
REMARK    3  A    between atoms: C_9  and  N_10 
REMARK       I    between atoms: N_10  and  C_11 
REMARK    4  A    between atoms: C_11  and  C_12 
REMARK    5  A    between atoms: C_12  and  S_13 
REMARK    6  A    between atoms: S_13  and  C_14 
REMARK    7  A    between atoms: N_15  and  C_16 
REMARK    8  A    between atoms: C_22  and  C_23 
REMARK    9  A    between atoms: C_23  and  N_24 
ROOT
HETATM    1  C   UNL     1       9.324  29.735  56.717  1.00  0.00     0.185 C 
ENDROOT
BRANCH   1   2
HETATM    2  C   UNL     1       9.774  30.452  57.979  1.00  0.00     0.227 C 
HETATM    3  N   UNL     1       9.020  30.179  59.098  1.00  0.00    -0.352 N 
HETATM    4  H   UNL     1       8.161  29.647  59.011  1.00  0.00     0.162 HD
HETATM    5  O   UNL     1      10.691  31.273  58.007  1.00  0.00    -0.273 OA
BRANCH   3   6
HETATM    6  C   UNL     1       9.329  30.740  60.407  1.00  0.00     0.225 C 
BRANCH   6   7
HETATM    7  C   UNL     1       8.605  32.062  60.706  1.00  0.00     0.239 C 
HETATM    8  N   UNL     1       7.480  31.900  61.501  1.00  0.00    -0.325 N 
HETATM    9  H   UNL     1       7.124  30.946  61.494  1.00  0.00     0.169 HD
HETATM   10  O   UNL     1       8.939  33.097  60.136  1.00  0.00    -0.271 OA
BRANCH   8  11
HETATM   11  C   UNL     1       6.569  32.925  61.853  1.00  0.00     0.046 A 
HETATM   12  C   UNL     1       6.766  33.578  63.094  1.00  0.00    -0.034 A 
HETATM   13  C   UNL     1       5.862  34.572  63.506  1.00  0.00     0.015 A 
HETATM   14  C   UNL     1       7.880  33.197  64.031  1.00  0.00     0.050 C 
HETATM   15  C   UNL     1       4.770  34.929  62.712  1.00  0.00    -0.061 A 
HETATM   16  C   UNL     1       3.801  35.981  63.164  1.00  0.00     0.048 C 
HETATM   17  C   UNL     1       4.621  34.324  61.463  1.00  0.00     0.015 A 
HETATM   18  C   UNL     1       5.520  33.341  61.007  1.00  0.00    -0.034 A 
HETATM   19  C   UNL     1       5.297  32.819  59.613  1.00  0.00     0.050 C 
ENDBRANCH   8  11
ENDBRANCH   6   7
ENDBRANCH   3   6
ENDBRANCH   1   2
BRANCH   1  20
HETATM   20  S   UNL     1       7.536  29.428  56.796  1.00  0.00    -0.081 SA
BRANCH  20  21
HETATM   21  C   UNL     1       7.484  27.707  56.603  1.00  0.00     0.196 A 
HETATM   22  N   UNL     1       6.724  27.035  55.663  1.00  0.00    -0.274 N 
HETATM   23  C   UNL     1       6.905  25.697  55.988  1.00  0.00     0.161 A 
HETATM   24  N   UNL     1       7.673  25.590  57.053  1.00  0.00    -0.132 NA
HETATM   25  N   UNL     1       8.027  26.849  57.438  1.00  0.00    -0.122 NA
BRANCH  22  26
HETATM   26  C   UNL     1       5.985  27.534  54.565  1.00  0.00     0.043 A 
HETATM   27  C   UNL     1       4.623  27.822  54.702  1.00  0.00     0.030 A 
HETATM   28  C   UNL     1       3.919  28.364  53.626  1.00  0.00     0.002 A 
HETATM   29  C   UNL     1       4.566  28.607  52.415  1.00  0.00     0.000 A 
HETATM   30  C   UNL     1       5.921  28.311  52.272  1.00  0.00     0.002 A 
HETATM   31  C   UNL     1       6.636  27.777  53.345  1.00  0.00     0.030 A 
ENDBRANCH  22  26
BRANCH  23  32
HETATM   32  C   UNL     1       6.489  24.529  55.172  1.00  0.00     0.315 C 
BRANCH  32  33
HETATM   33  N   UNL     1       7.685  23.654  54.862  1.00  0.00    -0.064 N 
HETATM   34  H   UNL     1       8.477  24.117  55.340  1.00  0.00     0.280 HD
HETATM   35  C   UNL     1       8.054  23.601  53.391  1.00  0.00     0.235 C 
HETATM   36  C   UNL     1       7.944  22.132  53.031  1.00  0.00     0.029 C 
HETATM   37  C   UNL     1       8.309  21.425  54.321  1.00  0.00     0.029 C 
HETATM   38  C   UNL     1       7.579  22.241  55.369  1.00  0.00     0.235 C 
ENDBRANCH  32  33
ENDBRANCH  23  32
ENDBRANCH  20  21
ENDBRANCH   1  20
TORSDOF 9
ENDMDL
MODEL 10
REMARK VINA RESULT:      -9.1      2.214      3.415
REMARK  9 active torsions:
REMARK  status: ('A' for Active; 'I' for Inactive)
REMARK    1  A    between atoms: C_6  and  N_7 
REMARK       I    between atoms: N_7  and  C_8 
REMARK    2  A    between atoms: C_8  and  C_9 
REMARK    3  A    between atoms: C_9  and  N_10 
REMARK       I    between atoms: N_10  and  C_11 
REMARK    4  A    between atoms: C_11  and  C_12 
REMARK    5  A    between atoms: C_12  and  S_13 
REMARK    6  A    between atoms: S_13  and  C_14 
REMARK    7  A    between atoms: N_15  and  C_16 
REMARK    8  A    between atoms: C_22  and  C_23 
REMARK    9  A    between atoms: C_23  and  N_24 
ROOT
HETATM    1  C   UNL     1       4.135  28.445  55.910  1.00  0.00     0.185 C 
ENDROOT
BRANCH   1   2
HETATM    2  C   UNL     1       4.054  29.888  56.378  1.00  0.00     0.227 C 
HETATM    3  N   UNL     1       5.242  30.415  56.833  1.00  0.00    -0.352 N 
HETATM    4  H   UNL     1       6.047  29.811  56.959  1.00  0.00     0.162 HD
HETATM    5  O   UNL     1       3.006  30.531  56.426  1.00  0.00    -0.273 OA
BRANCH   3   6
HETATM    6  C   UNL     1       5.366  31.796  57.281  1.00  0.00     0.225 C 
BRANCH   6   7
HETATM    7  C   UNL     1       5.259  31.972  58.803  1.00  0.00     0.239 C 
HETATM    8  N   UNL     1       6.351  32.625  59.355  1.00  0.00    -0.325 N 
HETATM    9  H   UNL     1       7.174  32.597  58.755  1.00  0.00     0.169 HD
HETATM   10  O   UNL     1       4.358  31.423  59.431  1.00  0.00    -0.271 OA
BRANCH   8  11
HETATM   11  C   UNL     1       6.568  32.837  60.737  1.00  0.00     0.046 A 
HETATM   12  C   UNL     1       7.628  32.125  61.351  1.00  0.00    -0.034 A 
HETATM   13  C   UNL     1       7.855  32.270  62.730  1.00  0.00     0.015 A 
HETATM   14  C   UNL     1       8.488  31.154  60.586  1.00  0.00     0.050 C 
HETATM   15  C   UNL     1       7.053  33.106  63.509  1.00  0.00    -0.061 A 
HETATM   16  C   UNL     1       7.291  33.245  64.984  1.00  0.00     0.048 C 
HETATM   17  C   UNL     1       6.052  33.851  62.884  1.00  0.00     0.015 A 
HETATM   18  C   UNL     1       5.811  33.749  61.501  1.00  0.00    -0.034 A 
HETATM   19  C   UNL     1       4.756  34.660  60.932  1.00  0.00     0.050 C 
ENDBRANCH   8  11
ENDBRANCH   6   7
ENDBRANCH   3   6
ENDBRANCH   1   2
BRANCH   1  20
HETATM   20  S   UNL     1       4.353  28.401  54.107  1.00  0.00    -0.081 SA
BRANCH  20  21
HETATM   21  C   UNL     1       5.142  26.872  53.905  1.00  0.00     0.196 A 
HETATM   22  N   UNL     1       6.409  26.563  54.368  1.00  0.00    -0.274 N 
HETATM   23  C   UNL     1       6.651  25.299  53.849  1.00  0.00     0.161 A 
HETATM   24  N   UNL     1       5.632  24.911  53.108  1.00  0.00    -0.132 NA
HETATM   25  N   UNL     1       4.695  25.900  53.140  1.00  0.00    -0.122 NA
BRANCH  22  26
HETATM   26  C   UNL     1       7.263  27.288  55.231  1.00  0.00     0.043 A 
HETATM   27  C   UNL     1       7.953  28.411  54.763  1.00  0.00     0.030 A 
HETATM   28  C   UNL     1       8.752  29.147  55.640  1.00  0.00     0.002 A 
HETATM   29  C   UNL     1       8.870  28.760  56.975  1.00  0.00     0.000 A 
HETATM   30  C   UNL     1       8.191  27.636  57.441  1.00  0.00     0.002 A 
HETATM   31  C   UNL     1       7.384  26.898  56.574  1.00  0.00     0.030 A 
ENDBRANCH  22  26
BRANCH  23  32
HETATM   32  C   UNL     1       7.774  24.399  54.211  1.00  0.00     0.315 C 
BRANCH  32  33
HETATM   33  N   UNL     1       7.313  22.957  54.208  1.00  0.00    -0.064 N 
HETATM   34  H   UNL     1       6.287  23.012  54.089  1.00  0.00     0.280 HD
HETATM   35  C   UNL     1       7.546  22.225  55.516  1.00  0.00     0.235 C 
HETATM   36  C   UNL     1       8.443  21.061  55.139  1.00  0.00     0.029 C 
HETATM   37  C   UNL     1       8.026  20.743  53.717  1.00  0.00     0.029 C 
HETATM   38  C   UNL     1       7.879  22.117  53.095  1.00  0.00     0.235 C 
ENDBRANCH  32  33
ENDBRANCH  23  32
ENDBRANCH  20  21
ENDBRANCH   1  20
TORSDOF 9
ENDMDL
