MODEL 1
REMARK VINA RESULT:     -10.1      0.000      0.000
REMARK  2 active torsions:
REMARK  status: ('A' for Active; 'I' for Inactive)
REMARK    1  A    between atoms: C_4  and  C_5 
REMARK    2  A    between atoms: N_11  and  C_12 
ROOT
HETATM    1  C   UNL     1       6.986  24.895  54.851  1.00  0.00     0.069 A 
HETATM    2  N   UNL     1       7.816  25.535  55.756  1.00  0.00    -0.343 N 
HETATM    3  C   UNL     1       7.649  26.851  56.078  1.00  0.00     0.119 A 
HETATM    4  C   UNL     1       6.620  27.557  55.582  1.00  0.00     0.125 A 
HETATM    5  C   UNL     1       6.686  28.895  56.194  1.00  0.00     0.280 A 
HETATM    6  O   UNL     1       5.893  29.796  55.989  1.00  0.00    -0.265 OA
HETATM    7  N   UNL     1       7.814  28.864  57.028  1.00  0.00    -0.236 N 
HETATM    8  N   UNL     1       8.436  27.601  56.930  1.00  0.00    -0.179 NA
HETATM    9  C   UNL     1       5.653  26.948  54.660  1.00  0.00     0.215 A 
HETATM   10  O   UNL     1       4.689  27.565  54.223  1.00  0.00    -0.285 OA
HETATM   11  C   UNL     1       5.924  25.512  54.286  1.00  0.00     0.112 A 
HETATM   12 CL   UNL     1       4.852  24.773  53.157  1.00  0.00    -0.077 Cl
HETATM   13  H   UNL     1       8.677  25.072  56.032  1.00  0.00     0.167 HD
HETATM   14  H   UNL     1       8.526  27.143  57.837  1.00  0.00     0.155 HD
ENDROOT
BRANCH   1  15
HETATM   15  C   UNL     1       7.344  23.500  54.543  1.00  0.00    -0.008 A 
HETATM   16  C   UNL     1       7.632  23.119  53.226  1.00  0.00     0.014 A 
HETATM   17  C   UNL     1       7.979  21.799  52.939  1.00  0.00     0.001 A 
HETATM   18  C   UNL     1       8.042  20.853  53.963  1.00  0.00     0.000 A 
HETATM   19  C   UNL     1       7.758  21.226  55.276  1.00  0.00     0.001 A 
HETATM   20  C   UNL     1       7.411  22.547  55.568  1.00  0.00     0.014 A 
ENDBRANCH   1  15
BRANCH   7  21
HETATM   21  C   UNL     1       8.367  29.879  57.839  1.00  0.00     0.055 A 
HETATM   22  C   UNL     1       9.673  30.341  57.636  1.00  0.00     0.031 A 
HETATM   23  C   UNL     1      10.210  31.355  58.436  1.00  0.00     0.002 A 
HETATM   24  C   UNL     1       9.450  31.921  59.455  1.00  0.00     0.000 A 
HETATM   25  C   UNL     1       8.153  31.471  59.677  1.00  0.00     0.002 A 
HETATM   26  C   UNL     1       7.616  30.458  58.876  1.00  0.00     0.031 A 
ENDBRANCH   7  21
TORSDOF 2
ENDMDL
MODEL 2
REMARK VINA RESULT:      -9.8      1.592      7.603
REMARK  2 active torsions:
REMARK  status: ('A' for Active; 'I' for Inactive)
REMARK    1  A    between atoms: C_4  and  C_5 
REMARK    2  A    between atoms: N_11  and  C_12 
ROOT
HETATM    1  C   UNL     1       7.742  28.654  56.952  1.00  0.00     0.069 A 
HETATM    2  N   UNL     1       8.353  27.419  56.828  1.00  0.00    -0.343 N 
HETATM    3  C   UNL     1       7.759  26.386  56.162  1.00  0.00     0.119 A 
HETATM    4  C   UNL     1       6.585  26.556  55.532  1.00  0.00     0.125 A 
HETATM    5  C   UNL     1       6.279  25.287  54.850  1.00  0.00     0.280 A 
HETATM    6  O   UNL     1       5.295  25.085  54.160  1.00  0.00    -0.265 OA
HETATM    7  N   UNL     1       7.346  24.432  55.164  1.00  0.00    -0.236 N 
HETATM    8  N   UNL     1       8.252  25.104  56.011  1.00  0.00    -0.179 NA
HETATM    9  C   UNL     1       5.888  27.848  55.557  1.00  0.00     0.215 A 
HETATM   10  O   UNL     1       4.834  28.033  54.961  1.00  0.00    -0.285 OA
HETATM   11  C   UNL     1       6.556  28.933  56.364  1.00  0.00     0.112 A 
HETATM   12 CL   UNL     1       5.744  30.449  56.475  1.00  0.00    -0.077 Cl
HETATM   13  H   UNL     1       9.163  27.221  57.409  1.00  0.00     0.167 HD
HETATM   14  H   UNL     1       9.198  25.123  55.629  1.00  0.00     0.155 HD
ENDROOT
BRANCH   1  15
HETATM   15  C   UNL     1       8.468  29.640  57.770  1.00  0.00    -0.008 A 
HETATM   16  C   UNL     1       9.647  30.224  57.289  1.00  0.00     0.014 A 
HETATM   17  C   UNL     1      10.329  31.164  58.062  1.00  0.00     0.001 A 
HETATM   18  C   UNL     1       9.837  31.527  59.317  1.00  0.00     0.000 A 
HETATM   19  C   UNL     1       8.664  30.950  59.800  1.00  0.00     0.001 A 
HETATM   20  C   UNL     1       7.978  30.009  59.029  1.00  0.00     0.014 A 
ENDBRANCH   1  15
BRANCH   7  21
HETATM   21  C   UNL     1       7.564  23.086  54.799  1.00  0.00     0.055 A 
HETATM   22  C   UNL     1       7.616  22.071  55.762  1.00  0.00     0.031 A 
HETATM   23  C   UNL     1       7.821  20.737  55.391  1.00  0.00     0.002 A 
HETATM   24  C   UNL     1       7.979  20.398  54.051  1.00  0.00     0.000 A 
HETATM   25  C   UNL     1       7.936  21.393  53.080  1.00  0.00     0.002 A 
HETATM   26  C   UNL     1       7.731  22.726  53.451  1.00  0.00     0.031 A 
ENDBRANCH   7  21
TORSDOF 2
ENDMDL
MODEL 3
REMARK VINA RESULT:      -9.6      0.569      1.128
REMARK  2 active torsions:
REMARK  status: ('A' for Active; 'I' for Inactive)
REMARK    1  A    between atoms: C_4  and  C_5 
REMARK    2  A    between atoms: N_11  and  C_12 
ROOT
HETATM    1  C   UNL     1       6.959  25.360  55.080  1.00  0.00     0.069 A 
HETATM    2  N   UNL     1       7.795  26.012  55.971  1.00  0.00    -0.343 N 
HETATM    3  C   UNL     1       7.579  27.308  56.342  1.00  0.00     0.119 A 
HETATM    4  C   UNL     1       6.497  27.977  55.911  1.00  0.00     0.125 A 
HETATM    5  C   UNL     1       6.526  29.298  56.563  1.00  0.00     0.280 A 
HETATM    6  O   UNL     1       5.683  30.165  56.419  1.00  0.00    -0.265 OA
HETATM    7  N   UNL     1       7.688  29.297  57.349  1.00  0.00    -0.236 N 
HETATM    8  N   UNL     1       8.364  28.069  57.185  1.00  0.00    -0.179 NA
HETATM    9  C   UNL     1       5.523  27.350  55.010  1.00  0.00     0.215 A 
HETATM   10  O   UNL     1       4.513  27.932  54.633  1.00  0.00    -0.285 OA
HETATM   11  C   UNL     1       5.846  25.941  54.579  1.00  0.00     0.112 A 
HETATM   12 CL   UNL     1       4.764  25.185  53.471  1.00  0.00    -0.077 Cl
HETATM   13  H   UNL     1       8.688  25.584  56.196  1.00  0.00     0.167 HD
HETATM   14  H   UNL     1       8.514  27.589  58.072  1.00  0.00     0.155 HD
ENDROOT
BRANCH   1  15
HETATM   15  C   UNL     1       7.369  23.994  54.714  1.00  0.00    -0.008 A 
HETATM   16  C   UNL     1       7.203  22.940  55.621  1.00  0.00     0.014 A 
HETATM   17  C   UNL     1       7.585  21.644  55.268  1.00  0.00     0.001 A 
HETATM   18  C   UNL     1       8.131  21.395  54.009  1.00  0.00     0.000 A 
HETATM   19  C   UNL     1       8.298  22.440  53.101  1.00  0.00     0.001 A 
HETATM   20  C   UNL     1       7.917  23.737  53.450  1.00  0.00     0.014 A 
ENDBRANCH   1  15
BRANCH   7  21
HETATM   21  C   UNL     1       8.225  30.313  58.169  1.00  0.00     0.055 A 
HETATM   22  C   UNL     1       9.585  30.642  58.120  1.00  0.00     0.031 A 
HETATM   23  C   UNL     1      10.109  31.659  58.928  1.00  0.00     0.002 A 
HETATM   24  C   UNL     1       9.280  32.358  59.799  1.00  0.00     0.000 A 
HETATM   25  C   UNL     1       7.928  32.040  59.868  1.00  0.00     0.002 A 
HETATM   26  C   UNL     1       7.405  31.025  59.059  1.00  0.00     0.031 A 
ENDBRANCH   7  21
TORSDOF 2
ENDMDL
MODEL 4
REMARK VINA RESULT:      -9.3      4.165      6.597
REMARK  2 active torsions:
REMARK  status: ('A' for Active; 'I' for Inactive)
REMARK    1  A    between atoms: C_4  and  C_5 
REMARK    2  A    between atoms: N_11  and  C_12 
ROOT
HETATM    1  C   UNL     1       7.166  24.276  53.647  1.00  0.00     0.069 A 
HETATM    2  N   UNL     1       6.638  24.442  52.378  1.00  0.00    -0.343 N 
HETATM    3  C   UNL     1       6.162  25.647  51.950  1.00  0.00     0.119 A 
HETATM    4  C   UNL     1       6.258  26.741  52.723  1.00  0.00     0.125 A 
HETATM    5  C   UNL     1       5.737  27.869  51.932  1.00  0.00     0.280 A 
HETATM    6  O   UNL     1       5.692  29.026  52.312  1.00  0.00    -0.265 OA
HETATM    7  N   UNL     1       5.346  27.312  50.705  1.00  0.00    -0.236 N 
HETATM    8  N   UNL     1       5.578  25.920  50.728  1.00  0.00    -0.179 NA
HETATM    9  C   UNL     1       6.857  26.676  54.062  1.00  0.00     0.215 A 
HETATM   10  O   UNL     1       6.984  27.669  54.768  1.00  0.00    -0.285 OA
HETATM   11  C   UNL     1       7.304  25.308  54.510  1.00  0.00     0.112 A 
HETATM   12 CL   UNL     1       7.955  25.171  56.100  1.00  0.00    -0.077 Cl
HETATM   13  H   UNL     1       6.423  23.612  51.833  1.00  0.00     0.167 HD
HETATM   14  H   UNL     1       6.180  25.615  49.963  1.00  0.00     0.155 HD
ENDROOT
BRANCH   1  15
HETATM   15  C   UNL     1       7.561  22.900  53.992  1.00  0.00    -0.008 A 
HETATM   16  C   UNL     1       7.439  22.441  55.310  1.00  0.00     0.014 A 
HETATM   17  C   UNL     1       7.805  21.134  55.634  1.00  0.00     0.001 A 
HETATM   18  C   UNL     1       8.293  20.280  54.644  1.00  0.00     0.000 A 
HETATM   19  C   UNL     1       8.415  20.730  53.330  1.00  0.00     0.001 A 
HETATM   20  C   UNL     1       8.049  22.037  53.003  1.00  0.00     0.014 A 
ENDBRANCH   1  15
BRANCH   7  21
HETATM   21  C   UNL     1       4.758  27.927  49.579  1.00  0.00     0.055 A 
HETATM   22  C   UNL     1       5.438  28.910  48.850  1.00  0.00     0.031 A 
HETATM   23  C   UNL     1       4.854  29.507  47.727  1.00  0.00     0.002 A 
HETATM   24  C   UNL     1       3.578  29.131  47.318  1.00  0.00     0.000 A 
HETATM   25  C   UNL     1       2.883  28.161  48.034  1.00  0.00     0.002 A 
HETATM   26  C   UNL     1       3.469  27.564  49.155  1.00  0.00     0.031 A 
ENDBRANCH   7  21
TORSDOF 2
ENDMDL
MODEL 5
REMARK VINA RESULT:      -9.2      3.074      4.186
REMARK  2 active torsions:
REMARK  status: ('A' for Active; 'I' for Inactive)
REMARK    1  A    between atoms: C_4  and  C_5 
REMARK    2  A    between atoms: N_11  and  C_12 
ROOT
HETATM    1  C   UNL     1       7.185  24.361  55.491  1.00  0.00     0.069 A 
HETATM    2  N   UNL     1       6.298  25.186  54.820  1.00  0.00    -0.343 N 
HETATM    3  C   UNL     1       5.907  26.389  55.333  1.00  0.00     0.119 A 
HETATM    4  C   UNL     1       6.431  26.853  56.479  1.00  0.00     0.125 A 
HETATM    5  C   UNL     1       5.866  28.196  56.694  1.00  0.00     0.280 A 
HETATM    6  O   UNL     1       6.137  28.926  57.631  1.00  0.00    -0.265 OA
HETATM    7  N   UNL     1       5.003  28.412  55.609  1.00  0.00    -0.236 N 
HETATM    8  N   UNL     1       5.001  27.271  54.777  1.00  0.00    -0.179 NA
HETATM    9  C   UNL     1       7.424  26.076  57.232  1.00  0.00     0.215 A 
HETATM   10  O   UNL     1       7.939  26.497  58.261  1.00  0.00    -0.285 OA
HETATM   11  C   UNL     1       7.769  24.726  56.655  1.00  0.00     0.112 A 
HETATM   12 CL   UNL     1       8.882  23.750  57.537  1.00  0.00    -0.077 Cl
HETATM   13  H   UNL     1       5.782  24.802  54.034  1.00  0.00     0.167 HD
HETATM   14  H   UNL     1       5.255  27.493  53.815  1.00  0.00     0.155 HD
ENDROOT
BRANCH   1  15
HETATM   15  C   UNL     1       7.445  23.061  54.851  1.00  0.00    -0.008 A 
HETATM   16  C   UNL     1       7.656  22.984  53.468  1.00  0.00     0.014 A 
HETATM   17  C   UNL     1       7.911  21.751  52.866  1.00  0.00     0.001 A 
HETATM   18  C   UNL     1       7.959  20.591  53.640  1.00  0.00     0.000 A 
HETATM   19  C   UNL     1       7.751  20.661  55.017  1.00  0.00     0.001 A 
HETATM   20  C   UNL     1       7.496  21.893  55.623  1.00  0.00     0.014 A 
ENDBRANCH   1  15
BRANCH   7  21
HETATM   21  C   UNL     1       4.180  29.520  55.314  1.00  0.00     0.055 A 
HETATM   22  C   UNL     1       3.468  30.184  56.320  1.00  0.00     0.031 A 
HETATM   23  C   UNL     1       2.663  31.290  56.022  1.00  0.00     0.002 A 
HETATM   24  C   UNL     1       2.556  31.746  54.712  1.00  0.00     0.000 A 
HETATM   25  C   UNL     1       3.249  31.095  53.697  1.00  0.00     0.002 A 
HETATM   26  C   UNL     1       4.055  29.990  53.996  1.00  0.00     0.031 A 
ENDBRANCH   7  21
TORSDOF 2
ENDMDL
MODEL 6
REMARK VINA RESULT:      -8.9      2.215      7.877
REMARK  2 active torsions:
REMARK  status: ('A' for Active; 'I' for Inactive)
REMARK    1  A    between atoms: C_4  and  C_5 
REMARK    2  A    between atoms: N_11  and  C_12 
ROOT
HETATM    1  C   UNL     1       7.435  30.286  58.468  1.00  0.00     0.069 A 
HETATM    2  N   UNL     1       7.969  29.046  58.159  1.00  0.00    -0.343 N 
HETATM    3  C   UNL     1       7.473  28.283  57.142  1.00  0.00     0.119 A 
HETATM    4  C   UNL     1       6.492  28.744  56.348  1.00  0.00     0.125 A 
HETATM    5  C   UNL     1       6.263  27.721  55.315  1.00  0.00     0.280 A 
HETATM    6  O   UNL     1       5.454  27.813  54.409  1.00  0.00    -0.265 OA
HETATM    7  N   UNL     1       7.164  26.687  55.611  1.00  0.00    -0.236 N 
HETATM    8  N   UNL     1       7.895  27.021  56.772  1.00  0.00    -0.179 NA
HETATM    9  C   UNL     1       5.903  30.072  56.561  1.00  0.00     0.215 A 
HETATM   10  O   UNL     1       5.032  30.525  55.828  1.00  0.00    -0.285 OA
HETATM   11  C   UNL     1       6.441  30.843  57.740  1.00  0.00     0.112 A 
HETATM   12 CL   UNL     1       5.736  32.381  58.068  1.00  0.00    -0.077 Cl
HETATM   13  H   UNL     1       8.605  28.616  58.824  1.00  0.00     0.167 HD
HETATM   14  H   UNL     1       8.902  27.009  56.611  1.00  0.00     0.155 HD
ENDROOT
BRANCH   1  15
HETATM   15  C   UNL     1       8.021  30.951  59.644  1.00  0.00    -0.008 A 
HETATM   16  C   UNL     1       7.236  31.200  60.777  1.00  0.00     0.014 A 
HETATM   17  C   UNL     1       7.795  31.822  61.894  1.00  0.00     0.001 A 
HETATM   18  C   UNL     1       9.139  32.197  61.886  1.00  0.00     0.000 A 
HETATM   19  C   UNL     1       9.926  31.950  60.761  1.00  0.00     0.001 A 
HETATM   20  C   UNL     1       9.370  31.327  59.643  1.00  0.00     0.014 A 
ENDBRANCH   1  15
BRANCH   7  21
HETATM   21  C   UNL     1       7.363  25.448  54.965  1.00  0.00     0.055 A 
HETATM   22  C   UNL     1       7.318  24.243  55.675  1.00  0.00     0.031 A 
HETATM   23  C   UNL     1       7.505  23.017  55.026  1.00  0.00     0.002 A 
HETATM   24  C   UNL     1       7.744  22.980  53.655  1.00  0.00     0.000 A 
HETATM   25  C   UNL     1       7.799  24.167  52.934  1.00  0.00     0.002 A 
HETATM   26  C   UNL     1       7.611  25.392  53.584  1.00  0.00     0.031 A 
ENDBRANCH   7  21
TORSDOF 2
ENDMDL
MODEL 7
REMARK VINA RESULT:      -8.8      5.532      8.481
REMARK  2 active torsions:
REMARK  status: ('A' for Active; 'I' for Inactive)
REMARK    1  A    between atoms: C_4  and  C_5 
REMARK    2  A    between atoms: N_11  and  C_12 
ROOT
HETATM    1  C   UNL     1       7.426  31.454  59.499  1.00  0.00     0.069 A 
HETATM    2  N   UNL     1       7.738  31.629  60.836  1.00  0.00    -0.343 N 
HETATM    3  C   UNL     1       6.902  32.291  61.689  1.00  0.00     0.119 A 
HETATM    4  C   UNL     1       5.703  32.733  61.275  1.00  0.00     0.125 A 
HETATM    5  C   UNL     1       5.032  33.311  62.452  1.00  0.00     0.280 A 
HETATM    6  O   UNL     1       3.912  33.791  62.451  1.00  0.00    -0.265 OA
HETATM    7  N   UNL     1       5.945  33.165  63.507  1.00  0.00    -0.236 N 
HETATM    8  N   UNL     1       7.126  32.560  63.025  1.00  0.00    -0.179 NA
HETATM    9  C   UNL     1       5.259  32.542  59.889  1.00  0.00     0.215 A 
HETATM   10  O   UNL     1       4.156  32.907  59.500  1.00  0.00    -0.285 OA
HETATM   11  C   UNL     1       6.249  31.866  58.974  1.00  0.00     0.112 A 
HETATM   12 CL   UNL     1       5.798  31.676  57.322  1.00  0.00    -0.077 Cl
HETATM   13  H   UNL     1       8.688  31.436  61.139  1.00  0.00     0.167 HD
HETATM   14  H   UNL     1       7.358  31.707  63.533  1.00  0.00     0.155 HD
ENDROOT
BRANCH   1  15
HETATM   15  C   UNL     1       8.464  30.796  58.689  1.00  0.00    -0.008 A 
HETATM   16  C   UNL     1       8.230  29.530  58.135  1.00  0.00     0.014 A 
HETATM   17  C   UNL     1       9.212  28.912  57.360  1.00  0.00     0.001 A 
HETATM   18  C   UNL     1      10.430  29.553  57.133  1.00  0.00     0.000 A 
HETATM   19  C   UNL     1      10.669  30.813  57.681  1.00  0.00     0.001 A 
HETATM   20  C   UNL     1       9.688  31.435  58.455  1.00  0.00     0.014 A 
ENDBRANCH   1  15
BRANCH   7  21
HETATM   21  C   UNL     1       5.838  33.563  64.857  1.00  0.00     0.055 A 
HETATM   22  C   UNL     1       4.589  33.745  65.464  1.00  0.00     0.031 A 
HETATM   23  C   UNL     1       4.491  34.129  66.806  1.00  0.00     0.002 A 
HETATM   24  C   UNL     1       5.641  34.340  67.561  1.00  0.00     0.000 A 
HETATM   25  C   UNL     1       6.890  34.171  66.974  1.00  0.00     0.002 A 
HETATM   26  C   UNL     1       6.988  33.786  65.632  1.00  0.00     0.031 A 
ENDBRANCH   7  21
TORSDOF 2
ENDMDL
MODEL 8
REMARK VINA RESULT:      -8.6      3.578      5.290
REMARK  2 active torsions:
REMARK  status: ('A' for Active; 'I' for Inactive)
REMARK    1  A    between atoms: C_4  and  C_5 
REMARK    2  A    between atoms: N_11  and  C_12 
ROOT
HETATM    1  C   UNL     1       7.585  24.074  54.720  1.00  0.00     0.069 A 
HETATM    2  N   UNL     1       6.897  24.574  53.627  1.00  0.00    -0.343 N 
HETATM    3  C   UNL     1       6.432  25.857  53.596  1.00  0.00     0.119 A 
HETATM    4  C   UNL     1       6.692  26.710  54.601  1.00  0.00     0.125 A 
HETATM    5  C   UNL     1       6.129  28.014  54.211  1.00  0.00     0.280 A 
HETATM    6  O   UNL     1       6.198  29.031  54.877  1.00  0.00    -0.265 OA
HETATM    7  N   UNL     1       5.544  27.802  52.953  1.00  0.00    -0.236 N 
HETATM    8  N   UNL     1       5.701  26.449  52.584  1.00  0.00    -0.179 NA
HETATM    9  C   UNL     1       7.464  26.288  55.776  1.00  0.00     0.215 A 
HETATM   10  O   UNL     1       7.741  27.059  56.687  1.00  0.00    -0.285 OA
HETATM   11  C   UNL     1       7.895  24.843  55.789  1.00  0.00     0.112 A 
HETATM   12 CL   UNL     1       8.750  24.284  57.177  1.00  0.00    -0.077 Cl
HETATM   13  H   UNL     1       6.565  23.920  52.926  1.00  0.00     0.167 HD
HETATM   14  H   UNL     1       6.176  26.345  51.687  1.00  0.00     0.155 HD
ENDROOT
BRANCH   1  15
HETATM   15  C   UNL     1       7.949  22.650  54.640  1.00  0.00    -0.008 A 
HETATM   16  C   UNL     1       7.689  21.794  55.718  1.00  0.00     0.014 A 
HETATM   17  C   UNL     1       8.027  20.442  55.636  1.00  0.00     0.001 A 
HETATM   18  C   UNL     1       8.623  19.939  54.479  1.00  0.00     0.000 A 
HETATM   19  C   UNL     1       8.882  20.786  53.402  1.00  0.00     0.001 A 
HETATM   20  C   UNL     1       8.545  22.139  53.480  1.00  0.00     0.014 A 
ENDBRANCH   1  15
BRANCH   7  21
HETATM   21  C   UNL     1       4.841  28.700  52.120  1.00  0.00     0.055 A 
HETATM   22  C   UNL     1       3.457  28.874  52.246  1.00  0.00     0.031 A 
HETATM   23  C   UNL     1       2.769  29.774  51.424  1.00  0.00     0.002 A 
HETATM   24  C   UNL     1       3.454  30.511  50.463  1.00  0.00     0.000 A 
HETATM   25  C   UNL     1       4.827  30.346  50.319  1.00  0.00     0.002 A 
HETATM   26  C   UNL     1       5.515  29.447  51.141  1.00  0.00     0.031 A 
ENDBRANCH   7  21
TORSDOF 2
ENDMDL
MODEL 9
REMARK VINA RESULT:      -8.4      2.432      7.686
REMARK  2 active torsions:
REMARK  status: ('A' for Active; 'I' for Inactive)
REMARK    1  A    between atoms: C_4  and  C_5 
REMARK    2  A    between atoms: N_11  and  C_12 
ROOT
HETATM    1  C   UNL     1       4.947  29.359  56.372  1.00  0.00     0.069 A 
HETATM    2  N   UNL     1       5.773  28.265  56.565  1.00  0.00    -0.343 N 
HETATM    3  C   UNL     1       5.778  27.208  55.702  1.00  0.00     0.119 A 
HETATM    4  C   UNL     1       5.033  27.225  54.585  1.00  0.00     0.125 A 
HETATM    5  C   UNL     1       5.340  25.988  53.847  1.00  0.00     0.280 A 
HETATM    6  O   UNL     1       4.859  25.680  52.771  1.00  0.00    -0.265 OA
HETATM    7  N   UNL     1       6.275  25.307  54.641  1.00  0.00    -0.236 N 
HETATM    8  N   UNL     1       6.523  26.050  55.815  1.00  0.00    -0.179 NA
HETATM    9  C   UNL     1       4.170  28.369  54.264  1.00  0.00     0.215 A 
HETATM   10  O   UNL     1       3.509  28.420  53.234  1.00  0.00    -0.285 OA
HETATM   11  C   UNL     1       4.151  29.479  55.286  1.00  0.00     0.112 A 
HETATM   12 CL   UNL     1       3.105  30.814  54.984  1.00  0.00    -0.077 Cl
HETATM   13  H   UNL     1       6.232  28.161  57.465  1.00  0.00     0.167 HD
HETATM   14  H   UNL     1       7.513  26.267  55.934  1.00  0.00     0.155 HD
ENDROOT
BRANCH   1  15
HETATM   15  C   UNL     1       4.993  30.380  57.432  1.00  0.00    -0.008 A 
HETATM   16  C   UNL     1       6.201  31.015  57.749  1.00  0.00     0.014 A 
HETATM   17  C   UNL     1       6.241  31.988  58.748  1.00  0.00     0.001 A 
HETATM   18  C   UNL     1       5.076  32.333  59.434  1.00  0.00     0.000 A 
HETATM   19  C   UNL     1       3.870  31.706  59.123  1.00  0.00     0.001 A 
HETATM   20  C   UNL     1       3.826  30.733  58.123  1.00  0.00     0.014 A 
ENDBRANCH   1  15
BRANCH   7  21
HETATM   21  C   UNL     1       6.897  24.057  54.433  1.00  0.00     0.055 A 
HETATM   22  C   UNL     1       7.264  23.632  53.151  1.00  0.00     0.031 A 
HETATM   23  C   UNL     1       7.891  22.396  52.954  1.00  0.00     0.002 A 
HETATM   24  C   UNL     1       8.158  21.566  54.038  1.00  0.00     0.000 A 
HETATM   25  C   UNL     1       7.795  21.967  55.319  1.00  0.00     0.002 A 
HETATM   26  C   UNL     1       7.169  23.203  55.515  1.00  0.00     0.031 A 
ENDBRANCH   7  21
TORSDOF 2
ENDMDL
MODEL 10
REMARK VINA RESULT:      -8.4      3.104      4.484
REMARK  2 active torsions:
REMARK  status: ('A' for Active; 'I' for Inactive)
REMARK    1  A    between atoms: C_4  and  C_5 
REMARK    2  A    between atoms: N_11  and  C_12 
ROOT
HETATM    1  C   UNL     1       5.501  27.022  52.376  1.00  0.00     0.069 A 
HETATM    2  N   UNL     1       6.214  28.093  52.885  1.00  0.00    -0.343 N 
HETATM    3  C   UNL     1       6.822  28.037  54.107  1.00  0.00     0.119 A 
HETATM    4  C   UNL     1       6.813  26.905  54.830  1.00  0.00     0.125 A 
HETATM    5  C   UNL     1       7.624  27.161  56.032  1.00  0.00     0.280 A 
HETATM    6  O   UNL     1       7.852  26.344  56.907  1.00  0.00    -0.265 OA
HETATM    7  N   UNL     1       8.049  28.493  55.915  1.00  0.00    -0.236 N 
HETATM    8  N   UNL     1       7.521  29.051  54.732  1.00  0.00    -0.179 NA
HETATM    9  C   UNL     1       6.133  25.697  54.345  1.00  0.00     0.215 A 
HETATM   10  O   UNL     1       6.142  24.646  54.973  1.00  0.00    -0.285 OA
HETATM   11  C   UNL     1       5.421  25.837  53.022  1.00  0.00     0.112 A 
HETATM   12 CL   UNL     1       4.554  24.465  52.443  1.00  0.00    -0.077 Cl
HETATM   13  H   UNL     1       6.116  28.997  52.432  1.00  0.00     0.167 HD
HETATM   14  H   UNL     1       8.248  29.420  54.119  1.00  0.00     0.155 HD
ENDROOT
BRANCH   1  15
HETATM   15  C   UNL     1       4.833  27.264  51.087  1.00  0.00    -0.008 A 
HETATM   16  C   UNL     1       3.933  28.328  50.947  1.00  0.00     0.014 A 
HETATM   17  C   UNL     1       3.308  28.561  49.721  1.00  0.00     0.001 A 
HETATM   18  C   UNL     1       3.578  27.735  48.630  1.00  0.00     0.000 A 
HETATM   19  C   UNL     1       4.474  26.674  48.762  1.00  0.00     0.001 A 
HETATM   20  C   UNL     1       5.102  26.439  49.987  1.00  0.00     0.014 A 
ENDBRANCH   1  15
BRANCH   7  21
HETATM   21  C   UNL     1       8.833  29.272  56.793  1.00  0.00     0.055 A 
HETATM   22  C   UNL     1      10.144  29.637  56.467  1.00  0.00     0.031 A 
HETATM   23  C   UNL     1      10.911  30.420  57.337  1.00  0.00     0.002 A 
HETATM   24  C   UNL     1      10.378  30.848  58.549  1.00  0.00     0.000 A 
HETATM   25  C   UNL     1       9.079  30.490  58.894  1.00  0.00     0.002 A 
HETATM   26  C   UNL     1       8.313  29.708  58.023  1.00  0.00     0.031 A 
ENDBRANCH   7  21
TORSDOF 2
ENDMDL
