MODEL 1
REMARK VINA RESULT:      -9.2      0.000      0.000
REMARK  7 active torsions:
REMARK  status: ('A' for Active; 'I' for Inactive)
REMARK    1  A    between atoms: C_2  and  N_3 
REMARK    2  A    between atoms: N_3  and  C_4 
REMARK    3  A    between atoms: C_4  and  N_5 
REMARK    4  A    between atoms: N_5  and  N_6 
REMARK    5  A    between atoms: N_6  and  C_7 
REMARK    6  A    between atoms: N_8  and  C_9 
REMARK    7  A    between atoms: C_10  and  O_11 
ROOT
HETATM    1  C   UNL     1       5.055  26.910  50.749  1.00  0.00     0.729 C 
HETATM    2  N   UNL     1       4.548  27.995  51.450  1.00  0.00    -0.105 N 
HETATM    3  C   UNL     1       5.031  28.293  52.714  1.00  0.00     0.276 C 
HETATM    4  O   UNL     1       5.011  29.424  53.203  1.00  0.00    -0.266 OA
HETATM    5  C   UNL     1       5.707  27.180  53.437  1.00  0.00     0.050 C 
HETATM    6  C   UNL     1       6.106  26.153  52.660  1.00  0.00     0.099 C 
HETATM    7  C   UNL     1       6.907  25.061  53.276  1.00  0.00     0.000 A 
HETATM    8  C   UNL     1       6.963  24.925  54.671  1.00  0.00    -0.044 A 
HETATM    9  C   UNL     1       7.698  23.881  55.254  1.00  0.00     0.008 A 
HETATM   10  C   UNL     1       8.397  22.980  54.455  1.00  0.00     0.001 A 
HETATM   11  C   UNL     1       8.360  23.111  53.071  1.00  0.00     0.001 A 
HETATM   12  C   UNL     1       7.618  24.142  52.487  1.00  0.00     0.014 A 
HETATM   13  C   UNL     1       6.158  25.856  55.534  1.00  0.00     0.054 C 
HETATM   14  C   UNL     1       6.001  27.294  54.945  1.00  0.00    -0.002 C 
HETATM   15  C   UNL     1       7.314  28.111  55.119  1.00  0.00     0.015 C 
HETATM   16  C   UNL     1       7.671  28.425  56.575  1.00  0.00     0.001 C 
HETATM   17  C   UNL     1       6.514  29.077  57.320  1.00  0.00     0.000 C 
HETATM   18  C   UNL     1       5.235  28.252  57.222  1.00  0.00     0.001 C 
HETATM   19  C   UNL     1       4.859  27.975  55.762  1.00  0.00     0.015 C 
HETATM   20  N   UNL     1       5.847  26.042  51.317  1.00  0.00    -0.061 NA
ENDROOT
BRANCH   1  21
HETATM   21  N   UNL     1       4.700  26.737  49.421  1.00  0.00    -0.127 N 
HETATM   22  H   UNL     1       4.620  27.582  48.854  1.00  0.00     0.205 HD
BRANCH  21  23
HETATM   23  N   UNL     1       3.707  25.781  49.152  1.00  0.00    -0.262 N 
HETATM   24  H   UNL     1       3.469  25.216  49.965  1.00  0.00     0.190 HD
BRANCH  23  25
HETATM   25  C   UNL     1       2.779  26.022  48.171  1.00  0.00     0.186 C 
HETATM   26  S   UNL     1       2.724  25.253  46.684  1.00  0.00    -0.040 SA
BRANCH  25  27
HETATM   27  N   UNL     1       1.793  26.915  48.470  1.00  0.00    -0.366 N 
HETATM   28  H   UNL     1       1.985  27.472  49.295  1.00  0.00     0.161 HD
BRANCH  27  29
HETATM   29  C   UNL     1       0.714  27.368  47.608  1.00  0.00     0.117 C 
HETATM   30  C   UNL     1       1.088  28.635  46.858  1.00  0.00     0.026 C 
ENDBRANCH  27  29
ENDBRANCH  25  27
ENDBRANCH  23  25
ENDBRANCH  21  23
ENDBRANCH   1  21
BRANCH   2  31
HETATM   31  C   UNL     1       3.736  28.987  50.818  1.00  0.00     0.094 A 
HETATM   32  C   UNL     1       4.337  29.963  49.997  1.00  0.00     0.096 A 
HETATM   33  C   UNL     1       3.532  30.932  49.392  1.00  0.00     0.039 A 
HETATM   34  C   UNL     1       2.148  30.933  49.597  1.00  0.00     0.003 A 
HETATM   35  C   UNL     1       1.557  29.968  50.408  1.00  0.00     0.002 A 
HETATM   36  C   UNL     1       2.346  28.996  51.017  1.00  0.00     0.034 A 
BRANCH  32  37
HETATM   37  O   UNL     1       5.706  29.918  49.909  1.00  0.00    -0.354 OA
HETATM   38  C   UNL     1       6.381  31.126  49.581  1.00  0.00     0.210 C 
ENDBRANCH  32  37
ENDBRANCH   2  31
TORSDOF 7
ENDMDL
MODEL 2
REMARK VINA RESULT:      -8.7      2.810      4.156
REMARK  7 active torsions:
REMARK  status: ('A' for Active; 'I' for Inactive)
REMARK    1  A    between atoms: C_2  and  N_3 
REMARK    2  A    between atoms: N_3  and  C_4 
REMARK    3  A    between atoms: C_4  and  N_5 
REMARK    4  A    between atoms: N_5  and  N_6 
REMARK    5  A    between atoms: N_6  and  C_7 
REMARK    6  A    between atoms: N_8  and  C_9 
REMARK    7  A    between atoms: C_10  and  O_11 
ROOT
HETATM    1  C   UNL     1       4.554  28.238  54.342  1.00  0.00     0.729 C 
HETATM    2  N   UNL     1       4.695  29.470  54.965  1.00  0.00    -0.105 N 
HETATM    3  C   UNL     1       5.843  29.755  55.688  1.00  0.00     0.276 C 
HETATM    4  O   UNL     1       6.269  30.897  55.870  1.00  0.00    -0.266 OA
HETATM    5  C   UNL     1       6.633  28.581  56.152  1.00  0.00     0.050 C 
HETATM    6  C   UNL     1       6.369  27.425  55.512  1.00  0.00     0.099 C 
HETATM    7  C   UNL     1       7.206  26.232  55.817  1.00  0.00     0.000 A 
HETATM    8  C   UNL     1       8.014  26.210  56.963  1.00  0.00    -0.044 A 
HETATM    9  C   UNL     1       8.785  25.077  57.267  1.00  0.00     0.008 A 
HETATM   10  C   UNL     1       8.772  23.970  56.423  1.00  0.00     0.001 A 
HETATM   11  C   UNL     1       7.983  23.983  55.277  1.00  0.00     0.001 A 
HETATM   12  C   UNL     1       7.205  25.105  54.979  1.00  0.00     0.014 A 
HETATM   13  C   UNL     1       7.981  27.378  57.909  1.00  0.00     0.054 C 
HETATM   14  C   UNL     1       7.737  28.754  57.214  1.00  0.00    -0.002 C 
HETATM   15  C   UNL     1       9.025  29.249  56.494  1.00  0.00     0.015 C 
HETATM   16  C   UNL     1      10.179  29.596  57.437  1.00  0.00     0.001 C 
HETATM   17  C   UNL     1       9.752  30.566  58.531  1.00  0.00     0.000 C 
HETATM   18  C   UNL     1       8.534  30.063  59.297  1.00  0.00     0.001 C 
HETATM   19  C   UNL     1       7.367  29.756  58.352  1.00  0.00     0.015 C 
HETATM   20  N   UNL     1       5.388  27.261  54.567  1.00  0.00    -0.061 NA
ENDROOT
BRANCH   1  21
HETATM   21  N   UNL     1       3.493  28.039  53.472  1.00  0.00    -0.127 N 
HETATM   22  H   UNL     1       2.611  27.735  53.887  1.00  0.00     0.205 HD
BRANCH  21  23
HETATM   23  N   UNL     1       3.787  27.414  52.250  1.00  0.00    -0.262 N 
HETATM   24  H   UNL     1       3.376  26.485  52.169  1.00  0.00     0.190 HD
BRANCH  23  25
HETATM   25  C   UNL     1       4.015  28.176  51.134  1.00  0.00     0.186 C 
HETATM   26  S   UNL     1       5.382  29.105  50.862  1.00  0.00    -0.040 SA
BRANCH  25  27
HETATM   27  N   UNL     1       3.075  28.115  50.148  1.00  0.00    -0.366 N 
HETATM   28  H   UNL     1       2.256  28.685  50.332  1.00  0.00     0.161 HD
BRANCH  27  29
HETATM   29  C   UNL     1       3.239  27.619  48.792  1.00  0.00     0.117 C 
HETATM   30  C   UNL     1       3.872  26.239  48.771  1.00  0.00     0.026 C 
ENDBRANCH  27  29
ENDBRANCH  25  27
ENDBRANCH  23  25
ENDBRANCH  21  23
ENDBRANCH   1  21
BRANCH   2  31
HETATM   31  C   UNL     1       3.827  30.566  54.673  1.00  0.00     0.094 A 
HETATM   32  C   UNL     1       2.907  31.008  55.647  1.00  0.00     0.096 A 
HETATM   33  C   UNL     1       2.057  32.076  55.346  1.00  0.00     0.039 A 
HETATM   34  C   UNL     1       2.119  32.699  54.094  1.00  0.00     0.003 A 
HETATM   35  C   UNL     1       3.028  32.262  53.134  1.00  0.00     0.002 A 
HETATM   36  C   UNL     1       3.881  31.199  53.421  1.00  0.00     0.034 A 
BRANCH  32  37
HETATM   37  O   UNL     1       2.878  30.293  56.819  1.00  0.00    -0.354 OA
HETATM   38  C   UNL     1       3.419  30.913  57.978  1.00  0.00     0.210 C 
ENDBRANCH  32  37
ENDBRANCH   2  31
TORSDOF 7
ENDMDL
MODEL 3
REMARK VINA RESULT:      -8.4      2.412      7.263
REMARK  7 active torsions:
REMARK  status: ('A' for Active; 'I' for Inactive)
REMARK    1  A    between atoms: C_2  and  N_3 
REMARK    2  A    between atoms: N_3  and  C_4 
REMARK    3  A    between atoms: C_4  and  N_5 
REMARK    4  A    between atoms: N_5  and  N_6 
REMARK    5  A    between atoms: N_6  and  C_7 
REMARK    6  A    between atoms: N_8  and  C_9 
REMARK    7  A    between atoms: C_10  and  O_11 
ROOT
HETATM    1  C   UNL     1       6.405  26.433  52.652  1.00  0.00     0.729 C 
HETATM    2  N   UNL     1       6.400  27.659  53.302  1.00  0.00    -0.105 N 
HETATM    3  C   UNL     1       5.511  28.648  52.911  1.00  0.00     0.276 C 
HETATM    4  O   UNL     1       5.106  29.537  53.662  1.00  0.00    -0.266 OA
HETATM    5  C   UNL     1       4.954  28.523  51.535  1.00  0.00     0.050 C 
HETATM    6  C   UNL     1       5.067  27.299  50.982  1.00  0.00     0.099 C 
HETATM    7  C   UNL     1       4.420  27.047  49.666  1.00  0.00     0.000 A 
HETATM    8  C   UNL     1       3.997  28.121  48.870  1.00  0.00    -0.044 A 
HETATM    9  C   UNL     1       3.408  27.888  47.617  1.00  0.00     0.008 A 
HETATM   10  C   UNL     1       3.219  26.586  47.160  1.00  0.00     0.001 A 
HETATM   11  C   UNL     1       3.623  25.512  47.945  1.00  0.00     0.001 A 
HETATM   12  C   UNL     1       4.222  25.742  49.187  1.00  0.00     0.014 A 
HETATM   13  C   UNL     1       4.257  29.528  49.331  1.00  0.00     0.054 C 
HETATM   14  C   UNL     1       4.215  29.707  50.882  1.00  0.00    -0.002 C 
HETATM   15  C   UNL     1       2.748  29.705  51.402  1.00  0.00     0.015 C 
HETATM   16  C   UNL     1       1.917  30.905  50.943  1.00  0.00     0.001 C 
HETATM   17  C   UNL     1       2.607  32.229  51.247  1.00  0.00     0.000 C 
HETATM   18  C   UNL     1       4.022  32.278  50.682  1.00  0.00     0.001 C 
HETATM   19  C   UNL     1       4.863  31.096  51.176  1.00  0.00     0.015 C 
HETATM   20  N   UNL     1       5.725  26.240  51.555  1.00  0.00    -0.061 NA
ENDROOT
BRANCH   1  21
HETATM   21  N   UNL     1       7.163  25.395  53.172  1.00  0.00    -0.127 N 
HETATM   22  H   UNL     1       8.022  25.160  52.673  1.00  0.00     0.205 HD
BRANCH  21  23
HETATM   23  N   UNL     1       6.460  24.276  53.647  1.00  0.00    -0.262 N 
HETATM   24  H   UNL     1       5.568  24.138  53.176  1.00  0.00     0.190 HD
BRANCH  23  25
HETATM   25  C   UNL     1       7.150  23.210  54.164  1.00  0.00     0.186 C 
HETATM   26  S   UNL     1       7.986  22.071  53.263  1.00  0.00    -0.040 SA
BRANCH  25  27
HETATM   27  N   UNL     1       7.202  23.117  55.523  1.00  0.00    -0.366 N 
HETATM   28  H   UNL     1       6.301  22.939  55.953  1.00  0.00     0.161 HD
BRANCH  27  29
HETATM   29  C   UNL     1       8.376  22.923  56.357  1.00  0.00     0.117 C 
HETATM   30  C   UNL     1       8.882  24.235  56.930  1.00  0.00     0.026 C 
ENDBRANCH  27  29
ENDBRANCH  25  27
ENDBRANCH  23  25
ENDBRANCH  21  23
ENDBRANCH   1  21
BRANCH   2  31
HETATM   31  C   UNL     1       7.087  27.859  54.538  1.00  0.00     0.094 A 
HETATM   32  C   UNL     1       6.600  27.252  55.714  1.00  0.00     0.096 A 
HETATM   33  C   UNL     1       7.277  27.464  56.919  1.00  0.00     0.039 A 
HETATM   34  C   UNL     1       8.423  28.265  56.957  1.00  0.00     0.003 A 
HETATM   35  C   UNL     1       8.902  28.863  55.794  1.00  0.00     0.002 A 
HETATM   36  C   UNL     1       8.238  28.662  54.587  1.00  0.00     0.034 A 
BRANCH  32  37
HETATM   37  O   UNL     1       5.435  26.538  55.588  1.00  0.00    -0.354 OA
HETATM   38  C   UNL     1       5.046  25.721  56.684  1.00  0.00     0.210 C 
ENDBRANCH  32  37
ENDBRANCH   2  31
TORSDOF 7
ENDMDL
MODEL 4
REMARK VINA RESULT:      -8.4      2.495      3.232
REMARK  7 active torsions:
REMARK  status: ('A' for Active; 'I' for Inactive)
REMARK    1  A    between atoms: C_2  and  N_3 
REMARK    2  A    between atoms: N_3  and  C_4 
REMARK    3  A    between atoms: C_4  and  N_5 
REMARK    4  A    between atoms: N_5  and  N_6 
REMARK    5  A    between atoms: N_6  and  C_7 
REMARK    6  A    between atoms: N_8  and  C_9 
REMARK    7  A    between atoms: C_10  and  O_11 
ROOT
HETATM    1  C   UNL     1       3.766  28.575  53.493  1.00  0.00     0.729 C 
HETATM    2  N   UNL     1       4.021  29.683  54.288  1.00  0.00    -0.105 N 
HETATM    3  C   UNL     1       5.198  29.759  55.017  1.00  0.00     0.276 C 
HETATM    4  O   UNL     1       5.724  30.821  55.355  1.00  0.00    -0.266 OA
HETATM    5  C   UNL     1       5.890  28.467  55.282  1.00  0.00     0.050 C 
HETATM    6  C   UNL     1       5.519  27.446  54.484  1.00  0.00     0.099 C 
HETATM    7  C   UNL     1       6.253  26.155  54.587  1.00  0.00     0.000 A 
HETATM    8  C   UNL     1       7.070  25.894  55.696  1.00  0.00    -0.044 A 
HETATM    9  C   UNL     1       7.744  24.668  55.809  1.00  0.00     0.008 A 
HETATM   10  C   UNL     1       7.625  23.705  54.811  1.00  0.00     0.001 A 
HETATM   11  C   UNL     1       6.827  23.956  53.700  1.00  0.00     0.001 A 
HETATM   12  C   UNL     1       6.144  25.171  53.592  1.00  0.00     0.014 A 
HETATM   13  C   UNL     1       7.151  26.905  56.806  1.00  0.00     0.054 C 
HETATM   14  C   UNL     1       7.018  28.386  56.329  1.00  0.00    -0.002 C 
HETATM   15  C   UNL     1       8.334  28.874  55.658  1.00  0.00     0.015 C 
HETATM   16  C   UNL     1       9.526  28.977  56.613  1.00  0.00     0.001 C 
HETATM   17  C   UNL     1       9.198  29.805  57.849  1.00  0.00     0.000 C 
HETATM   18  C   UNL     1       7.950  29.296  58.563  1.00  0.00     0.001 C 
HETATM   19  C   UNL     1       6.750  29.233  57.612  1.00  0.00     0.015 C 
HETATM   20  N   UNL     1       4.516  27.508  53.550  1.00  0.00    -0.061 NA
ENDROOT
BRANCH   1  21
HETATM   21  N   UNL     1       2.681  28.597  52.631  1.00  0.00    -0.127 N 
HETATM   22  H   UNL     1       1.851  28.083  52.926  1.00  0.00     0.205 HD
BRANCH  21  23
HETATM   23  N   UNL     1       2.962  28.478  51.260  1.00  0.00    -0.262 N 
HETATM   24  H   UNL     1       3.594  27.708  51.048  1.00  0.00     0.190 HD
BRANCH  23  25
HETATM   25  C   UNL     1       2.037  28.896  50.338  1.00  0.00     0.186 C 
HETATM   26  S   UNL     1       1.734  28.151  48.868  1.00  0.00    -0.040 SA
BRANCH  25  27
HETATM   27  N   UNL     1       1.267  29.966  50.685  1.00  0.00    -0.366 N 
HETATM   28  H   UNL     1       1.055  30.009  51.676  1.00  0.00     0.161 HD
BRANCH  27  29
HETATM   29  C   UNL     1       1.007  31.165  49.905  1.00  0.00     0.117 C 
HETATM   30  C   UNL     1      -0.312  31.812  50.294  1.00  0.00     0.026 C 
ENDBRANCH  27  29
ENDBRANCH  25  27
ENDBRANCH  23  25
ENDBRANCH  21  23
ENDBRANCH   1  21
BRANCH   2  31
HETATM   31  C   UNL     1       3.247  30.879  54.184  1.00  0.00     0.094 A 
HETATM   32  C   UNL     1       3.266  31.621  52.985  1.00  0.00     0.096 A 
HETATM   33  C   UNL     1       2.511  32.795  52.900  1.00  0.00     0.039 A 
HETATM   34  C   UNL     1       1.746  33.226  53.989  1.00  0.00     0.003 A 
HETATM   35  C   UNL     1       1.728  32.491  55.172  1.00  0.00     0.002 A 
HETATM   36  C   UNL     1       2.476  31.320  55.272  1.00  0.00     0.034 A 
BRANCH  32  37
HETATM   37  O   UNL     1       4.096  31.153  51.997  1.00  0.00    -0.354 OA
HETATM   38  C   UNL     1       4.544  32.085  51.022  1.00  0.00     0.210 C 
ENDBRANCH  32  37
ENDBRANCH   2  31
TORSDOF 7
ENDMDL
MODEL 5
REMARK VINA RESULT:      -8.1      2.837      5.292
REMARK  7 active torsions:
REMARK  status: ('A' for Active; 'I' for Inactive)
REMARK    1  A    between atoms: C_2  and  N_3 
REMARK    2  A    between atoms: N_3  and  C_4 
REMARK    3  A    between atoms: C_4  and  N_5 
REMARK    4  A    between atoms: N_5  and  N_6 
REMARK    5  A    between atoms: N_6  and  C_7 
REMARK    6  A    between atoms: N_8  and  C_9 
REMARK    7  A    between atoms: C_10  and  O_11 
ROOT
HETATM    1  C   UNL     1       4.049  29.352  52.198  1.00  0.00     0.729 C 
HETATM    2  N   UNL     1       4.349  28.375  51.259  1.00  0.00    -0.105 N 
HETATM    3  C   UNL     1       4.967  27.199  51.654  1.00  0.00     0.276 C 
HETATM    4  O   UNL     1       4.858  26.134  51.045  1.00  0.00    -0.266 OA
HETATM    5  C   UNL     1       5.697  27.246  52.951  1.00  0.00     0.050 C 
HETATM    6  C   UNL     1       5.364  28.273  53.758  1.00  0.00     0.099 C 
HETATM    7  C   UNL     1       5.943  28.323  55.128  1.00  0.00     0.000 A 
HETATM    8  C   UNL     1       7.051  27.527  55.455  1.00  0.00    -0.044 A 
HETATM    9  C   UNL     1       7.616  27.590  56.739  1.00  0.00     0.008 A 
HETATM   10  C   UNL     1       7.070  28.428  57.707  1.00  0.00     0.001 A 
HETATM   11  C   UNL     1       5.965  29.213  57.399  1.00  0.00     0.001 A 
HETATM   12  C   UNL     1       5.409  29.162  56.118  1.00  0.00     0.014 A 
HETATM   13  C   UNL     1       7.682  26.670  54.394  1.00  0.00     0.054 C 
HETATM   14  C   UNL     1       6.671  26.117  53.339  1.00  0.00    -0.002 C 
HETATM   15  C   UNL     1       5.838  24.943  53.929  1.00  0.00     0.015 C 
HETATM   16  C   UNL     1       6.655  23.687  54.242  1.00  0.00     0.001 C 
HETATM   17  C   UNL     1       7.481  23.229  53.047  1.00  0.00     0.000 C 
HETATM   18  C   UNL     1       8.361  24.348  52.498  1.00  0.00     0.001 C 
HETATM   19  C   UNL     1       7.532  25.589  52.149  1.00  0.00     0.015 C 
HETATM   20  N   UNL     1       4.499  29.283  53.421  1.00  0.00    -0.061 NA
ENDROOT
BRANCH   1  21
HETATM   21  N   UNL     1       3.267  30.433  51.822  1.00  0.00    -0.127 N 
HETATM   22  H   UNL     1       3.536  30.918  50.965  1.00  0.00     0.205 HD
BRANCH  21  23
HETATM   23  N   UNL     1       2.844  31.294  52.848  1.00  0.00    -0.262 N 
HETATM   24  H   UNL     1       2.478  30.797  53.659  1.00  0.00     0.190 HD
BRANCH  23  25
HETATM   25  C   UNL     1       3.434  32.523  52.991  1.00  0.00     0.186 C 
HETATM   26  S   UNL     1       2.787  33.973  52.457  1.00  0.00    -0.040 SA
BRANCH  25  27
HETATM   27  N   UNL     1       4.611  32.561  53.679  1.00  0.00    -0.366 N 
HETATM   28  H   UNL     1       5.361  32.047  53.229  1.00  0.00     0.161 HD
BRANCH  27  29
HETATM   29  C   UNL     1       4.987  33.470  54.748  1.00  0.00     0.117 C 
HETATM   30  C   UNL     1       4.853  32.819  56.114  1.00  0.00     0.026 C 
ENDBRANCH  27  29
ENDBRANCH  25  27
ENDBRANCH  23  25
ENDBRANCH  21  23
ENDBRANCH   1  21
BRANCH   2  31
HETATM   31  C   UNL     1       3.805  28.408  49.938  1.00  0.00     0.094 A 
HETATM   32  C   UNL     1       4.565  28.954  48.883  1.00  0.00     0.096 A 
HETATM   33  C   UNL     1       4.018  28.988  47.597  1.00  0.00     0.039 A 
HETATM   34  C   UNL     1       2.735  28.485  47.360  1.00  0.00     0.003 A 
HETATM   35  C   UNL     1       1.986  27.945  48.403  1.00  0.00     0.002 A 
HETATM   36  C   UNL     1       2.518  27.905  49.689  1.00  0.00     0.034 A 
BRANCH  32  37
HETATM   37  O   UNL     1       5.786  29.481  49.227  1.00  0.00    -0.354 OA
HETATM   38  C   UNL     1       5.887  30.895  49.318  1.00  0.00     0.210 C 
ENDBRANCH  32  37
ENDBRANCH   2  31
TORSDOF 7
ENDMDL
MODEL 6
REMARK VINA RESULT:      -8.1      8.683     12.169
REMARK  7 active torsions:
REMARK  status: ('A' for Active; 'I' for Inactive)
REMARK    1  A    between atoms: C_2  and  N_3 
REMARK    2  A    between atoms: N_3  and  C_4 
REMARK    3  A    between atoms: C_4  and  N_5 
REMARK    4  A    between atoms: N_5  and  N_6 
REMARK    5  A    between atoms: N_6  and  C_7 
REMARK    6  A    between atoms: N_8  and  C_9 
REMARK    7  A    between atoms: C_10  and  O_11 
ROOT
HETATM    1  C   UNL     1       3.717  34.324  60.508  1.00  0.00     0.729 C 
HETATM    2  N   UNL     1       4.611  33.796  59.587  1.00  0.00    -0.105 N 
HETATM    3  C   UNL     1       5.668  33.009  60.018  1.00  0.00     0.276 C 
HETATM    4  O   UNL     1       6.208  32.150  59.319  1.00  0.00    -0.266 OA
HETATM    5  C   UNL     1       6.063  33.165  61.445  1.00  0.00     0.050 C 
HETATM    6  C   UNL     1       5.135  33.743  62.234  1.00  0.00     0.099 C 
HETATM    7  C   UNL     1       5.388  33.817  63.699  1.00  0.00     0.000 A 
HETATM    8  C   UNL     1       6.679  33.604  64.204  1.00  0.00    -0.044 A 
HETATM    9  C   UNL     1       6.927  33.697  65.583  1.00  0.00     0.008 A 
HETATM   10  C   UNL     1       5.890  33.983  66.466  1.00  0.00     0.001 A 
HETATM   11  C   UNL     1       4.603  34.186  65.979  1.00  0.00     0.001 A 
HETATM   12  C   UNL     1       4.356  34.106  64.606  1.00  0.00     0.014 A 
HETATM   13  C   UNL     1       7.813  33.359  63.248  1.00  0.00     0.054 C 
HETATM   14  C   UNL     1       7.399  32.590  61.953  1.00  0.00    -0.002 C 
HETATM   15  C   UNL     1       7.192  31.076  62.248  1.00  0.00     0.015 C 
HETATM   16  C   UNL     1       8.471  30.331  62.638  1.00  0.00     0.001 C 
HETATM   17  C   UNL     1       9.589  30.547  61.626  1.00  0.00     0.000 C 
HETATM   18  C   UNL     1       9.857  32.028  61.379  1.00  0.00     0.001 C 
HETATM   19  C   UNL     1       8.582  32.762  60.950  1.00  0.00     0.015 C 
HETATM   20  N   UNL     1       3.943  34.260  61.791  1.00  0.00    -0.061 NA
ENDROOT
BRANCH   1  21
HETATM   21  N   UNL     1       2.566  34.947  60.051  1.00  0.00    -0.127 N 
HETATM   22  H   UNL     1       2.313  34.783  59.076  1.00  0.00     0.205 HD
BRANCH  21  23
HETATM   23  N   UNL     1       2.353  36.268  60.476  1.00  0.00    -0.262 N 
HETATM   24  H   UNL     1       1.806  36.326  61.334  1.00  0.00     0.190 HD
BRANCH  23  25
HETATM   25  C   UNL     1       3.269  37.239  60.165  1.00  0.00     0.186 C 
HETATM   26  S   UNL     1       3.356  38.052  58.703  1.00  0.00    -0.040 SA
BRANCH  25  27
HETATM   27  N   UNL     1       4.132  37.606  61.155  1.00  0.00    -0.366 N 
HETATM   28  H   UNL     1       4.918  38.155  60.826  1.00  0.00     0.161 HD
BRANCH  27  29
HETATM   29  C   UNL     1       3.899  37.587  62.589  1.00  0.00     0.117 C 
HETATM   30  C   UNL     1       5.201  37.536  63.369  1.00  0.00     0.026 C 
ENDBRANCH  27  29
ENDBRANCH  25  27
ENDBRANCH  23  25
ENDBRANCH  21  23
ENDBRANCH   1  21
BRANCH   2  31
HETATM   31  C   UNL     1       4.340  33.801  58.184  1.00  0.00     0.094 A 
HETATM   32  C   UNL     1       3.538  32.786  57.624  1.00  0.00     0.096 A 
HETATM   33  C   UNL     1       3.287  32.798  56.249  1.00  0.00     0.039 A 
HETATM   34  C   UNL     1       3.824  33.806  55.440  1.00  0.00     0.003 A 
HETATM   35  C   UNL     1       4.614  34.809  55.996  1.00  0.00     0.002 A 
HETATM   36  C   UNL     1       4.873  34.809  57.364  1.00  0.00     0.034 A 
BRANCH  32  37
HETATM   37  O   UNL     1       3.112  31.807  58.486  1.00  0.00    -0.354 OA
HETATM   38  C   UNL     1       3.453  30.463  58.172  1.00  0.00     0.210 C 
ENDBRANCH  32  37
ENDBRANCH   2  31
TORSDOF 7
ENDMDL
MODEL 7
REMARK VINA RESULT:      -7.7      2.827      6.735
REMARK  7 active torsions:
REMARK  status: ('A' for Active; 'I' for Inactive)
REMARK    1  A    between atoms: C_2  and  N_3 
REMARK    2  A    between atoms: N_3  and  C_4 
REMARK    3  A    between atoms: C_4  and  N_5 
REMARK    4  A    between atoms: N_5  and  N_6 
REMARK    5  A    between atoms: N_6  and  C_7 
REMARK    6  A    between atoms: N_8  and  C_9 
REMARK    7  A    between atoms: C_10  and  O_11 
ROOT
HETATM    1  C   UNL     1       4.511  27.941  53.671  1.00  0.00     0.729 C 
HETATM    2  N   UNL     1       4.622  29.300  53.931  1.00  0.00    -0.105 N 
HETATM    3  C   UNL     1       4.472  30.218  52.904  1.00  0.00     0.276 C 
HETATM    4  O   UNL     1       4.096  31.379  53.075  1.00  0.00    -0.266 OA
HETATM    5  C   UNL     1       4.677  29.697  51.524  1.00  0.00     0.050 C 
HETATM    6  C   UNL     1       4.604  28.356  51.402  1.00  0.00     0.099 C 
HETATM    7  C   UNL     1       4.662  27.758  50.041  1.00  0.00     0.000 A 
HETATM    8  C   UNL     1       5.113  28.519  48.953  1.00  0.00    -0.044 A 
HETATM    9  C   UNL     1       5.193  27.951  47.673  1.00  0.00     0.008 A 
HETATM   10  C   UNL     1       4.806  26.630  47.464  1.00  0.00     0.001 A 
HETATM   11  C   UNL     1       4.346  25.867  48.532  1.00  0.00     0.001 A 
HETATM   12  C   UNL     1       4.278  26.427  49.811  1.00  0.00     0.014 A 
HETATM   13  C   UNL     1       5.592  29.925  49.186  1.00  0.00     0.054 C 
HETATM   14  C   UNL     1       4.847  30.668  50.340  1.00  0.00    -0.002 C 
HETATM   15  C   UNL     1       3.430  31.123  49.883  1.00  0.00     0.015 C 
HETATM   16  C   UNL     1       3.436  32.199  48.793  1.00  0.00     0.001 C 
HETATM   17  C   UNL     1       4.302  33.393  49.173  1.00  0.00     0.000 C 
HETATM   18  C   UNL     1       5.718  32.973  49.554  1.00  0.00     0.001 C 
HETATM   19  C   UNL     1       5.708  31.927  50.673  1.00  0.00     0.015 C 
HETATM   20  N   UNL     1       4.455  27.483  52.450  1.00  0.00    -0.061 NA
ENDROOT
BRANCH   1  21
HETATM   21  N   UNL     1       4.475  27.051  54.733  1.00  0.00    -0.127 N 
HETATM   22  H   UNL     1       4.726  27.421  55.650  1.00  0.00     0.205 HD
BRANCH  21  23
HETATM   23  N   UNL     1       4.971  25.760  54.491  1.00  0.00    -0.262 N 
HETATM   24  H   UNL     1       4.455  25.265  53.764  1.00  0.00     0.190 HD
BRANCH  23  25
HETATM   25  C   UNL     1       6.296  25.486  54.716  1.00  0.00     0.186 C 
HETATM   26  S   UNL     1       6.874  24.267  55.709  1.00  0.00    -0.040 SA
BRANCH  25  27
HETATM   27  N   UNL     1       7.201  26.233  54.023  1.00  0.00    -0.366 N 
HETATM   28  H   UNL     1       7.496  27.071  54.512  1.00  0.00     0.161 HD
BRANCH  27  29
HETATM   29  C   UNL     1       7.998  25.826  52.878  1.00  0.00     0.117 C 
HETATM   30  C   UNL     1       7.162  25.092  51.843  1.00  0.00     0.026 C 
ENDBRANCH  27  29
ENDBRANCH  25  27
ENDBRANCH  23  25
ENDBRANCH  21  23
ENDBRANCH   1  21
BRANCH   2  31
HETATM   31  C   UNL     1       4.616  29.815  55.264  1.00  0.00     0.094 A 
HETATM   32  C   UNL     1       5.793  29.764  56.038  1.00  0.00     0.096 A 
HETATM   33  C   UNL     1       5.771  30.264  57.343  1.00  0.00     0.039 A 
HETATM   34  C   UNL     1       4.597  30.808  57.874  1.00  0.00     0.003 A 
HETATM   35  C   UNL     1       3.435  30.858  57.107  1.00  0.00     0.002 A 
HETATM   36  C   UNL     1       3.442  30.364  55.806  1.00  0.00     0.034 A 
BRANCH  32  37
HETATM   37  O   UNL     1       6.875  29.155  55.453  1.00  0.00    -0.354 OA
HETATM   38  C   UNL     1       8.125  29.256  56.123  1.00  0.00     0.210 C 
ENDBRANCH  32  37
ENDBRANCH   2  31
TORSDOF 7
ENDMDL
MODEL 8
REMARK VINA RESULT:      -7.6      5.626      9.658
REMARK  7 active torsions:
REMARK  status: ('A' for Active; 'I' for Inactive)
REMARK    1  A    between atoms: C_2  and  N_3 
REMARK    2  A    between atoms: N_3  and  C_4 
REMARK    3  A    between atoms: C_4  and  N_5 
REMARK    4  A    between atoms: N_5  and  N_6 
REMARK    5  A    between atoms: N_6  and  C_7 
REMARK    6  A    between atoms: N_8  and  C_9 
REMARK    7  A    between atoms: C_10  and  O_11 
ROOT
HETATM    1  C   UNL     1       6.113  31.835  57.869  1.00  0.00     0.729 C 
HETATM    2  N   UNL     1       6.863  30.922  58.597  1.00  0.00    -0.105 N 
HETATM    3  C   UNL     1       7.171  29.685  58.053  1.00  0.00     0.276 C 
HETATM    4  O   UNL     1       8.160  29.025  58.376  1.00  0.00    -0.266 OA
HETATM    5  C   UNL     1       6.297  29.222  56.939  1.00  0.00     0.050 C 
HETATM    6  C   UNL     1       5.571  30.189  56.343  1.00  0.00     0.099 C 
HETATM    7  C   UNL     1       4.772  29.842  55.136  1.00  0.00     0.000 A 
HETATM    8  C   UNL     1       4.512  28.500  54.824  1.00  0.00    -0.044 A 
HETATM    9  C   UNL     1       3.739  28.169  53.700  1.00  0.00     0.008 A 
HETATM   10  C   UNL     1       3.238  29.170  52.871  1.00  0.00     0.001 A 
HETATM   11  C   UNL     1       3.499  30.504  53.163  1.00  0.00     0.001 A 
HETATM   12  C   UNL     1       4.258  30.836  54.289  1.00  0.00     0.014 A 
HETATM   13  C   UNL     1       4.996  27.420  55.751  1.00  0.00     0.054 C 
HETATM   14  C   UNL     1       6.341  27.755  56.471  1.00  0.00    -0.002 C 
HETATM   15  C   UNL     1       7.545  27.595  55.499  1.00  0.00     0.015 C 
HETATM   16  C   UNL     1       7.802  26.155  55.048  1.00  0.00     0.001 C 
HETATM   17  C   UNL     1       7.915  25.197  56.227  1.00  0.00     0.000 C 
HETATM   18  C   UNL     1       6.707  25.288  57.153  1.00  0.00     0.001 C 
HETATM   19  C   UNL     1       6.478  26.725  57.635  1.00  0.00     0.015 C 
HETATM   20  N   UNL     1       5.524  31.498  56.754  1.00  0.00    -0.061 NA
ENDROOT
BRANCH   1  21
HETATM   21  N   UNL     1       5.973  33.128  58.346  1.00  0.00    -0.127 N 
HETATM   22  H   UNL     1       6.672  33.446  59.019  1.00  0.00     0.205 HD
BRANCH  21  23
HETATM   23  N   UNL     1       4.668  33.555  58.643  1.00  0.00    -0.262 N 
HETATM   24  H   UNL     1       4.012  33.388  57.882  1.00  0.00     0.190 HD
BRANCH  23  25
HETATM   25  C   UNL     1       4.238  33.572  59.945  1.00  0.00     0.186 C 
HETATM   26  S   UNL     1       3.444  32.314  60.716  1.00  0.00    -0.040 SA
BRANCH  25  27
HETATM   27  N   UNL     1       4.543  34.682  60.675  1.00  0.00    -0.366 N 
HETATM   28  H   UNL     1       4.483  35.545  60.146  1.00  0.00     0.161 HD
BRANCH  27  29
HETATM   29  C   UNL     1       4.616  34.802  62.121  1.00  0.00     0.117 C 
HETATM   30  C   UNL     1       6.048  34.716  62.620  1.00  0.00     0.026 C 
ENDBRANCH  27  29
ENDBRANCH  25  27
ENDBRANCH  23  25
ENDBRANCH  21  23
ENDBRANCH   1  21
BRANCH   2  31
HETATM   31  C   UNL     1       7.566  31.300  59.782  1.00  0.00     0.094 A 
HETATM   32  C   UNL     1       8.845  31.884  59.680  1.00  0.00     0.096 A 
HETATM   33  C   UNL     1       9.525  32.241  60.848  1.00  0.00     0.039 A 
HETATM   34  C   UNL     1       8.944  32.022  62.101  1.00  0.00     0.003 A 
HETATM   35  C   UNL     1       7.680  31.446  62.200  1.00  0.00     0.002 A 
HETATM   36  C   UNL     1       6.991  31.085  61.045  1.00  0.00     0.034 A 
BRANCH  32  37
HETATM   37  O   UNL     1       9.358  31.998  58.411  1.00  0.00    -0.354 OA
HETATM   38  C   UNL     1      10.559  31.295  58.125  1.00  0.00     0.210 C 
ENDBRANCH  32  37
ENDBRANCH   2  31
TORSDOF 7
ENDMDL
MODEL 9
REMARK VINA RESULT:      -7.5      2.745      5.008
REMARK  7 active torsions:
REMARK  status: ('A' for Active; 'I' for Inactive)
REMARK    1  A    between atoms: C_2  and  N_3 
REMARK    2  A    between atoms: N_3  and  C_4 
REMARK    3  A    between atoms: C_4  and  N_5 
REMARK    4  A    between atoms: N_5  and  N_6 
REMARK    5  A    between atoms: N_6  and  C_7 
REMARK    6  A    between atoms: N_8  and  C_9 
REMARK    7  A    between atoms: C_10  and  O_11 
ROOT
HETATM    1  C   UNL     1       4.989  29.492  52.023  1.00  0.00     0.729 C 
HETATM    2  N   UNL     1       5.182  28.421  51.161  1.00  0.00    -0.105 N 
HETATM    3  C   UNL     1       5.574  27.189  51.660  1.00  0.00     0.276 C 
HETATM    4  O   UNL     1       5.329  26.118  51.103  1.00  0.00    -0.266 OA
HETATM    5  C   UNL     1       6.221  27.201  53.002  1.00  0.00     0.050 C 
HETATM    6  C   UNL     1       6.011  28.318  53.727  1.00  0.00     0.099 C 
HETATM    7  C   UNL     1       6.505  28.362  55.130  1.00  0.00     0.000 A 
HETATM    8  C   UNL     1       7.445  27.422  55.578  1.00  0.00    -0.044 A 
HETATM    9  C   UNL     1       7.933  27.475  56.893  1.00  0.00     0.008 A 
HETATM   10  C   UNL     1       7.473  28.450  57.775  1.00  0.00     0.001 A 
HETATM   11  C   UNL     1       6.533  29.381  57.347  1.00  0.00     0.001 A 
HETATM   12  C   UNL     1       6.056  29.337  56.034  1.00  0.00     0.014 A 
HETATM   13  C   UNL     1       7.991  26.408  54.611  1.00  0.00     0.054 C 
HETATM   14  C   UNL     1       6.971  25.958  53.517  1.00  0.00    -0.002 C 
HETATM   15  C   UNL     1       5.922  24.972  54.108  1.00  0.00     0.015 C 
HETATM   16  C   UNL     1       6.501  23.624  54.545  1.00  0.00     0.001 C 
HETATM   17  C   UNL     1       7.313  22.965  53.437  1.00  0.00     0.000 C 
HETATM   18  C   UNL     1       8.396  23.892  52.894  1.00  0.00     0.001 C 
HETATM   19  C   UNL     1       7.805  25.224  52.421  1.00  0.00     0.015 C 
HETATM   20  N   UNL     1       5.346  29.430  53.277  1.00  0.00    -0.061 NA
ENDROOT
BRANCH   1  21
HETATM   21  N   UNL     1       4.419  30.658  51.536  1.00  0.00    -0.127 N 
HETATM   22  H   UNL     1       3.750  30.556  50.772  1.00  0.00     0.205 HD
BRANCH  21  23
HETATM   23  N   UNL     1       5.270  31.766  51.397  1.00  0.00    -0.262 N 
HETATM   24  H   UNL     1       6.243  31.505  51.247  1.00  0.00     0.190 HD
BRANCH  23  25
HETATM   25  C   UNL     1       4.778  32.943  50.893  1.00  0.00     0.186 C 
HETATM   26  S   UNL     1       3.809  34.022  51.732  1.00  0.00    -0.040 SA
BRANCH  25  27
HETATM   27  N   UNL     1       5.167  33.277  49.630  1.00  0.00    -0.366 N 
HETATM   28  H   UNL     1       5.315  34.272  49.501  1.00  0.00     0.161 HD
BRANCH  27  29
HETATM   29  C   UNL     1       5.684  32.396  48.596  1.00  0.00     0.117 C 
HETATM   30  C   UNL     1       4.646  32.119  47.523  1.00  0.00     0.026 C 
ENDBRANCH  27  29
ENDBRANCH  25  27
ENDBRANCH  23  25
ENDBRANCH  21  23
ENDBRANCH   1  21
BRANCH   2  31
HETATM   31  C   UNL     1       4.734  28.456  49.804  1.00  0.00     0.094 A 
HETATM   32  C   UNL     1       3.353  28.506  49.526  1.00  0.00     0.096 A 
HETATM   33  C   UNL     1       2.928  28.530  48.195  1.00  0.00     0.039 A 
HETATM   34  C   UNL     1       3.860  28.508  47.152  1.00  0.00     0.003 A 
HETATM   35  C   UNL     1       5.224  28.460  47.430  1.00  0.00     0.002 A 
HETATM   36  C   UNL     1       5.663  28.435  48.751  1.00  0.00     0.034 A 
BRANCH  32  37
HETATM   37  O   UNL     1       2.515  28.459  50.613  1.00  0.00    -0.354 OA
HETATM   38  C   UNL     1       1.282  29.160  50.519  1.00  0.00     0.210 C 
ENDBRANCH  32  37
ENDBRANCH   2  31
TORSDOF 7
ENDMDL
MODEL 10
REMARK VINA RESULT:      -7.5     16.723     19.361
REMARK  7 active torsions:
REMARK  status: ('A' for Active; 'I' for Inactive)
REMARK    1  A    between atoms: C_2  and  N_3 
REMARK    2  A    between atoms: N_3  and  C_4 
REMARK    3  A    between atoms: C_4  and  N_5 
REMARK    4  A    between atoms: N_5  and  N_6 
REMARK    5  A    between atoms: N_6  and  C_7 
REMARK    6  A    between atoms: N_8  and  C_9 
REMARK    7  A    between atoms: C_10  and  O_11 
ROOT
HETATM    1  C   UNL     1      10.462   8.958  55.963  1.00  0.00     0.729 C 
HETATM    2  N   UNL     1       9.829   9.421  54.817  1.00  0.00    -0.105 N 
HETATM    3  C   UNL     1      10.577   9.951  53.777  1.00  0.00     0.276 C 
HETATM    4  O   UNL     1      10.207   9.950  52.602  1.00  0.00    -0.266 OA
HETATM    5  C   UNL     1      11.942  10.431  54.129  1.00  0.00     0.050 C 
HETATM    6  C   UNL     1      12.431   9.959  55.293  1.00  0.00     0.099 C 
HETATM    7  C   UNL     1      13.838  10.278  55.659  1.00  0.00     0.000 A 
HETATM    8  C   UNL     1      14.526  11.303  54.993  1.00  0.00    -0.044 A 
HETATM    9  C   UNL     1      15.845  11.623  55.352  1.00  0.00     0.008 A 
HETATM   10  C   UNL     1      16.492  10.913  56.360  1.00  0.00     0.001 A 
HETATM   11  C   UNL     1      15.825   9.887  57.020  1.00  0.00     0.001 A 
HETATM   12  C   UNL     1      14.507   9.575  56.673  1.00  0.00     0.014 A 
HETATM   13  C   UNL     1      13.810  12.114  53.950  1.00  0.00     0.054 C 
HETATM   14  C   UNL     1      12.737  11.311  53.146  1.00  0.00    -0.002 C 
HETATM   15  C   UNL     1      13.411  10.378  52.098  1.00  0.00     0.015 C 
HETATM   16  C   UNL     1      14.133  11.118  50.970  1.00  0.00     0.001 C 
HETATM   17  C   UNL     1      13.236  12.147  50.294  1.00  0.00     0.000 C 
HETATM   18  C   UNL     1      12.624  13.118  51.299  1.00  0.00     0.001 C 
HETATM   19  C   UNL     1      11.867  12.374  52.404  1.00  0.00     0.015 C 
HETATM   20  N   UNL     1      11.731   9.176  56.176  1.00  0.00    -0.061 NA
ENDROOT
BRANCH   1  21
HETATM   21  N   UNL     1       9.723   8.264  56.908  1.00  0.00    -0.127 N 
HETATM   22  H   UNL     1       9.016   7.619  56.554  1.00  0.00     0.205 HD
BRANCH  21  23
HETATM   23  N   UNL     1       9.314   8.983  58.043  1.00  0.00    -0.262 N 
HETATM   24  H   UNL     1       9.969   9.718  58.305  1.00  0.00     0.190 HD
BRANCH  23  25
HETATM   25  C   UNL     1       7.978   9.104  58.326  1.00  0.00     0.186 C 
HETATM   26  S   UNL     1       6.790   8.019  57.858  1.00  0.00    -0.040 SA
BRANCH  25  27
HETATM   27  N   UNL     1       7.611  10.162  59.103  1.00  0.00    -0.366 N 
HETATM   28  H   UNL     1       7.117  10.887  58.595  1.00  0.00     0.161 HD
BRANCH  27  29
HETATM   29  C   UNL     1       7.555  10.222  60.554  1.00  0.00     0.117 C 
HETATM   30  C   UNL     1       8.904  10.575  61.155  1.00  0.00     0.026 C 
ENDBRANCH  27  29
ENDBRANCH  25  27
ENDBRANCH  23  25
ENDBRANCH  21  23
ENDBRANCH   1  21
BRANCH   2  31
HETATM   31  C   UNL     1       8.458   9.130  54.544  1.00  0.00     0.094 A 
HETATM   32  C   UNL     1       7.479  10.126  54.740  1.00  0.00     0.096 A 
HETATM   33  C   UNL     1       6.140   9.825  54.478  1.00  0.00     0.039 A 
HETATM   34  C   UNL     1       5.775   8.553  54.024  1.00  0.00     0.003 A 
HETATM   35  C   UNL     1       6.743   7.571  53.830  1.00  0.00     0.002 A 
HETATM   36  C   UNL     1       8.081   7.856  54.088  1.00  0.00     0.034 A 
BRANCH  32  37
HETATM   37  O   UNL     1       7.926  11.320  55.248  1.00  0.00    -0.354 OA
HETATM   38  C   UNL     1       7.862  12.458  54.399  1.00  0.00     0.210 C 
ENDBRANCH  32  37
ENDBRANCH   2  31
TORSDOF 7
ENDMDL
