MODEL 1
REMARK VINA RESULT:      -9.8      0.000      0.000
REMARK  5 active torsions:
REMARK  status: ('A' for Active; 'I' for Inactive)
REMARK    1  A    between atoms: C_9  and  C_10 
REMARK       I    between atoms: C_10  and  N_11 
REMARK    2  A    between atoms: N_11  and  C_12 
REMARK    3  A    between atoms: C_12  and  C_13 
REMARK    4  A    between atoms: C_13  and  N_14 
REMARK       I    between atoms: N_14  and  C_15 
REMARK    5  A    between atoms: C_15  and  C_16 
ROOT
HETATM    1  C   UNL     1       7.097  27.374  57.353  1.00  0.00     0.272 C 
HETATM    2  N   UNL     1       7.969  28.264  57.943  1.00  0.00    -0.354 N 
HETATM    3  O   UNL     1       5.951  27.675  57.029  1.00  0.00    -0.266 OA
HETATM    4  H   UNL     1       8.872  27.883  58.215  1.00  0.00     0.162 HD
ENDROOT
BRANCH   2   5
HETATM    5  C   UNL     1       7.599  29.618  58.282  1.00  0.00     0.142 C 
BRANCH   5   6
HETATM    6  C   UNL     1       8.480  30.211  59.389  1.00  0.00     0.142 C 
BRANCH   6   7
HETATM    7  N   UNL     1       7.704  30.821  60.453  1.00  0.00    -0.355 N 
HETATM    8  C   UNL     1       8.316  31.425  61.530  1.00  0.00     0.251 C 
HETATM    9  O   UNL     1       9.536  31.492  61.646  1.00  0.00    -0.268 OA
HETATM   10  H   UNL     1       6.715  30.944  60.287  1.00  0.00     0.162 HD
BRANCH   8  11
HETATM   11  C   UNL     1       7.432  32.038  62.567  1.00  0.00     0.032 A 
HETATM   12  C   UNL     1       6.034  31.937  62.531  1.00  0.00     0.018 A 
HETATM   13  C   UNL     1       5.260  32.524  63.539  1.00  0.00     0.025 A 
HETATM   14  C   UNL     1       5.878  33.202  64.589  1.00  0.00     0.034 A 
HETATM   15 CL   UNL     1       4.921  33.914  65.828  1.00  0.00    -0.084 Cl
HETATM   16  C   UNL     1       7.266  33.296  64.644  1.00  0.00     0.025 A 
HETATM   17  C   UNL     1       8.041  32.714  63.636  1.00  0.00     0.018 A 
ENDBRANCH   8  11
ENDBRANCH   6   7
ENDBRANCH   5   6
ENDBRANCH   2   5
BRANCH   1  18
HETATM   18  C   UNL     1       7.671  26.031  57.174  1.00  0.00     0.157 A 
HETATM   19  C   UNL     1       7.800  25.298  55.956  1.00  0.00     0.029 A 
HETATM   20  C   UNL     1       7.481  25.515  54.601  1.00  0.00     0.023 A 
HETATM   21  C   UNL     1       8.391  24.094  56.320  1.00  0.00     0.063 A 
HETATM   22  C   UNL     1       7.766  24.517  53.654  1.00  0.00    -0.061 A 
HETATM   23  C   UNL     1       7.431  24.725  52.205  1.00  0.00     0.048 C 
HETATM   24  C   UNL     1       8.364  23.318  54.064  1.00  0.00     0.009 A 
HETATM   25  C   UNL     1       8.689  23.082  55.404  1.00  0.00     0.032 A 
HETATM   26  N   UNL     1       8.573  24.175  57.672  1.00  0.00    -0.277 N 
HETATM   27  H   UNL     1       8.983  23.474  58.279  1.00  0.00     0.189 HD
HETATM   28  N   UNL     1       8.148  25.324  58.225  1.00  0.00    -0.168 NA
ENDBRANCH   1  18
TORSDOF 5
ENDMDL
MODEL 2
REMARK VINA RESULT:      -9.7      2.176      3.184
REMARK  5 active torsions:
REMARK  status: ('A' for Active; 'I' for Inactive)
REMARK    1  A    between atoms: C_9  and  C_10 
REMARK       I    between atoms: C_10  and  N_11 
REMARK    2  A    between atoms: N_11  and  C_12 
REMARK    3  A    between atoms: C_12  and  C_13 
REMARK    4  A    between atoms: C_13  and  N_14 
REMARK       I    between atoms: N_14  and  C_15 
REMARK    5  A    between atoms: C_15  and  C_16 
ROOT
HETATM    1  C   UNL     1       6.800  26.007  55.602  1.00  0.00     0.272 C 
HETATM    2  N   UNL     1       7.806  26.300  56.498  1.00  0.00    -0.354 N 
HETATM    3  O   UNL     1       5.648  26.413  55.734  1.00  0.00    -0.266 OA
HETATM    4  H   UNL     1       8.705  25.862  56.312  1.00  0.00     0.162 HD
ENDROOT
BRANCH   2   5
HETATM    5  C   UNL     1       7.588  27.068  57.702  1.00  0.00     0.142 C 
BRANCH   5   6
HETATM    6  C   UNL     1       7.892  28.559  57.514  1.00  0.00     0.142 C 
BRANCH   6   7
HETATM    7  N   UNL     1       7.725  29.321  58.738  1.00  0.00    -0.355 N 
HETATM    8  C   UNL     1       8.507  30.424  59.008  1.00  0.00     0.251 C 
HETATM    9  O   UNL     1       9.370  30.828  58.234  1.00  0.00    -0.268 OA
HETATM   10  H   UNL     1       6.904  29.124  59.293  1.00  0.00     0.162 HD
BRANCH   8  11
HETATM   11  C   UNL     1       8.249  31.151  60.287  1.00  0.00     0.032 A 
HETATM   12  C   UNL     1       7.345  32.218  60.387  1.00  0.00     0.018 A 
HETATM   13  C   UNL     1       7.138  32.853  61.618  1.00  0.00     0.025 A 
HETATM   14  C   UNL     1       7.824  32.419  62.751  1.00  0.00     0.034 A 
HETATM   15 CL   UNL     1       7.561  33.199  64.261  1.00  0.00    -0.084 Cl
HETATM   16  C   UNL     1       8.714  31.351  62.667  1.00  0.00     0.025 A 
HETATM   17  C   UNL     1       8.925  30.718  61.439  1.00  0.00     0.018 A 
ENDBRANCH   8  11
ENDBRANCH   6   7
ENDBRANCH   5   6
ENDBRANCH   2   5
BRANCH   1  18
HETATM   18  C   UNL     1       7.242  25.146  54.493  1.00  0.00     0.157 A 
HETATM   19  C   UNL     1       7.509  23.745  54.536  1.00  0.00     0.029 A 
HETATM   20  C   UNL     1       7.469  22.732  55.515  1.00  0.00     0.023 A 
HETATM   21  C   UNL     1       7.901  23.413  53.245  1.00  0.00     0.063 A 
HETATM   22  C   UNL     1       7.822  21.417  55.165  1.00  0.00    -0.061 A 
HETATM   23  C   UNL     1       7.791  20.323  56.193  1.00  0.00     0.048 C 
HETATM   24  C   UNL     1       8.210  21.126  53.851  1.00  0.00     0.009 A 
HETATM   25  C   UNL     1       8.257  22.117  52.864  1.00  0.00     0.032 A 
HETATM   26  N   UNL     1       7.846  24.583  52.539  1.00  0.00    -0.277 N 
HETATM   27  H   UNL     1       8.065  24.717  51.558  1.00  0.00     0.189 HD
HETATM   28  N   UNL     1       7.459  25.650  53.257  1.00  0.00    -0.168 NA
ENDBRANCH   1  18
TORSDOF 5
ENDMDL
MODEL 3
REMARK VINA RESULT:      -9.6      7.961     10.904
REMARK  5 active torsions:
REMARK  status: ('A' for Active; 'I' for Inactive)
REMARK    1  A    between atoms: C_9  and  C_10 
REMARK       I    between atoms: C_10  and  N_11 
REMARK    2  A    between atoms: N_11  and  C_12 
REMARK    3  A    between atoms: C_12  and  C_13 
REMARK    4  A    between atoms: C_13  and  N_14 
REMARK       I    between atoms: N_14  and  C_15 
REMARK    5  A    between atoms: C_15  and  C_16 
ROOT
HETATM    1  C   UNL     1       6.971  25.635  54.685  1.00  0.00     0.272 C 
HETATM    2  N   UNL     1       5.785  25.333  54.050  1.00  0.00    -0.354 N 
HETATM    3  O   UNL     1       7.578  26.687  54.502  1.00  0.00    -0.266 OA
HETATM    4  H   UNL     1       5.405  24.409  54.240  1.00  0.00     0.162 HD
ENDROOT
BRANCH   2   5
HETATM    5  C   UNL     1       5.173  26.202  53.072  1.00  0.00     0.142 C 
BRANCH   5   6
HETATM    6  C   UNL     1       5.687  25.944  51.650  1.00  0.00     0.142 C 
BRANCH   6   7
HETATM    7  N   UNL     1       4.638  26.043  50.652  1.00  0.00    -0.355 N 
HETATM    8  C   UNL     1       4.565  27.120  49.795  1.00  0.00     0.251 C 
HETATM    9  O   UNL     1       5.377  28.040  49.817  1.00  0.00    -0.268 OA
HETATM   10  H   UNL     1       4.079  25.217  50.489  1.00  0.00     0.162 HD
BRANCH   8  11
HETATM   11  C   UNL     1       3.458  27.124  48.791  1.00  0.00     0.032 A 
HETATM   12  C   UNL     1       3.364  26.181  47.757  1.00  0.00     0.018 A 
HETATM   13  C   UNL     1       2.295  26.231  46.854  1.00  0.00     0.025 A 
HETATM   14  C   UNL     1       1.315  27.213  46.987  1.00  0.00     0.034 A 
HETATM   15 CL   UNL     1       0.001  27.264  45.878  1.00  0.00    -0.084 Cl
HETATM   16  C   UNL     1       1.389  28.146  48.018  1.00  0.00     0.025 A 
HETATM   17  C   UNL     1       2.457  28.101  48.918  1.00  0.00     0.018 A 
ENDBRANCH   8  11
ENDBRANCH   6   7
ENDBRANCH   5   6
ENDBRANCH   2   5
BRANCH   1  18
HETATM   18  C   UNL     1       7.440  24.565  55.580  1.00  0.00     0.157 A 
HETATM   19  C   UNL     1       7.798  23.231  55.223  1.00  0.00     0.029 A 
HETATM   20  C   UNL     1       7.850  22.475  54.035  1.00  0.00     0.023 A 
HETATM   21  C   UNL     1       8.160  22.623  56.419  1.00  0.00     0.063 A 
HETATM   22  C   UNL     1       8.266  21.134  54.085  1.00  0.00    -0.061 A 
HETATM   23  C   UNL     1       8.325  20.309  52.831  1.00  0.00     0.048 C 
HETATM   24  C   UNL     1       8.624  20.560  55.312  1.00  0.00     0.009 A 
HETATM   25  C   UNL     1       8.579  21.292  56.504  1.00  0.00     0.032 A 
HETATM   26  N   UNL     1       8.006  23.587  57.376  1.00  0.00    -0.277 N 
HETATM   27  H   UNL     1       8.181  23.497  58.370  1.00  0.00     0.189 HD
HETATM   28  N   UNL     1       7.568  24.769  56.911  1.00  0.00    -0.168 NA
ENDBRANCH   1  18
TORSDOF 5
ENDMDL
MODEL 4
REMARK VINA RESULT:      -9.5      1.746      2.257
REMARK  5 active torsions:
REMARK  status: ('A' for Active; 'I' for Inactive)
REMARK    1  A    between atoms: C_9  and  C_10 
REMARK       I    between atoms: C_10  and  N_11 
REMARK    2  A    between atoms: N_11  and  C_12 
REMARK    3  A    between atoms: C_12  and  C_13 
REMARK    4  A    between atoms: C_13  and  N_14 
REMARK       I    between atoms: N_14  and  C_15 
REMARK    5  A    between atoms: C_15  and  C_16 
ROOT
HETATM    1  C   UNL     1       7.479  27.035  57.169  1.00  0.00     0.272 C 
HETATM    2  N   UNL     1       7.437  28.413  57.201  1.00  0.00    -0.354 N 
HETATM    3  O   UNL     1       7.889  26.357  58.107  1.00  0.00    -0.266 OA
HETATM    4  H   UNL     1       7.129  28.865  56.344  1.00  0.00     0.162 HD
ENDROOT
BRANCH   2   5
HETATM    5  C   UNL     1       7.920  29.188  58.319  1.00  0.00     0.142 C 
BRANCH   5   6
HETATM    6  C   UNL     1       7.456  30.648  58.269  1.00  0.00     0.142 C 
BRANCH   6   7
HETATM    7  N   UNL     1       7.181  31.192  59.587  1.00  0.00    -0.355 N 
HETATM    8  C   UNL     1       7.974  32.177  60.135  1.00  0.00     0.251 C 
HETATM    9  O   UNL     1       8.938  32.655  59.545  1.00  0.00    -0.268 OA
HETATM   10  H   UNL     1       6.293  30.954  60.005  1.00  0.00     0.162 HD
BRANCH   8  11
HETATM   11  C   UNL     1       7.601  32.683  61.491  1.00  0.00     0.032 A 
HETATM   12  C   UNL     1       6.573  33.614  61.700  1.00  0.00     0.018 A 
HETATM   13  C   UNL     1       6.264  34.041  62.997  1.00  0.00     0.025 A 
HETATM   14  C   UNL     1       6.970  33.533  64.086  1.00  0.00     0.034 A 
HETATM   15 CL   UNL     1       6.579  34.057  65.677  1.00  0.00    -0.084 Cl
HETATM   16  C   UNL     1       7.983  32.598  63.893  1.00  0.00     0.025 A 
HETATM   17  C   UNL     1       8.297  32.173  62.598  1.00  0.00     0.018 A 
ENDBRANCH   8  11
ENDBRANCH   6   7
ENDBRANCH   5   6
ENDBRANCH   2   5
BRANCH   1  18
HETATM   18  C   UNL     1       7.006  26.469  55.895  1.00  0.00     0.157 A 
HETATM   19  C   UNL     1       7.385  25.226  55.305  1.00  0.00     0.029 A 
HETATM   20  C   UNL     1       8.247  24.163  55.639  1.00  0.00     0.023 A 
HETATM   21  C   UNL     1       6.672  25.160  54.114  1.00  0.00     0.063 A 
HETATM   22  C   UNL     1       8.365  23.067  54.767  1.00  0.00    -0.061 A 
HETATM   23  C   UNL     1       9.281  21.924  55.101  1.00  0.00     0.048 C 
HETATM   24  C   UNL     1       7.626  23.040  53.577  1.00  0.00     0.009 A 
HETATM   25  C   UNL     1       6.764  24.086  53.226  1.00  0.00     0.032 A 
HETATM   26  N   UNL     1       5.941  26.315  54.067  1.00  0.00    -0.277 N 
HETATM   27  H   UNL     1       5.300  26.605  53.336  1.00  0.00     0.189 HD
HETATM   28  N   UNL     1       6.119  27.132  55.119  1.00  0.00    -0.168 NA
ENDBRANCH   1  18
TORSDOF 5
ENDMDL
MODEL 5
REMARK VINA RESULT:      -9.3      4.592     10.028
REMARK  5 active torsions:
REMARK  status: ('A' for Active; 'I' for Inactive)
REMARK    1  A    between atoms: C_9  and  C_10 
REMARK       I    between atoms: C_10  and  N_11 
REMARK    2  A    between atoms: N_11  and  C_12 
REMARK    3  A    between atoms: C_12  and  C_13 
REMARK    4  A    between atoms: C_13  and  N_14 
REMARK       I    between atoms: N_14  and  C_15 
REMARK    5  A    between atoms: C_15  and  C_16 
ROOT
HETATM    1  C   UNL     1       7.779  28.648  56.466  1.00  0.00     0.272 C 
HETATM    2  N   UNL     1       7.161  29.279  55.407  1.00  0.00    -0.354 N 
HETATM    3  O   UNL     1       7.527  27.492  56.795  1.00  0.00    -0.266 OA
HETATM    4  H   UNL     1       7.413  30.254  55.266  1.00  0.00     0.162 HD
ENDROOT
BRANCH   2   5
HETATM    5  C   UNL     1       6.123  28.657  54.619  1.00  0.00     0.142 C 
BRANCH   5   6
HETATM    6  C   UNL     1       6.682  27.759  53.509  1.00  0.00     0.142 C 
BRANCH   6   7
HETATM    7  N   UNL     1       6.991  26.420  53.977  1.00  0.00    -0.355 N 
HETATM    8  C   UNL     1       7.098  25.362  53.100  1.00  0.00     0.251 C 
HETATM    9  O   UNL     1       6.953  25.490  51.889  1.00  0.00    -0.268 OA
HETATM   10  H   UNL     1       7.299  26.328  54.935  1.00  0.00     0.162 HD
BRANCH   8  11
HETATM   11  C   UNL     1       7.434  24.025  53.676  1.00  0.00     0.032 A 
HETATM   12  C   UNL     1       7.253  23.713  55.032  1.00  0.00     0.018 A 
HETATM   13  C   UNL     1       7.576  22.437  55.510  1.00  0.00     0.025 A 
HETATM   14  C   UNL     1       8.069  21.469  54.636  1.00  0.00     0.034 A 
HETATM   15 CL   UNL     1       8.457  19.902  55.229  1.00  0.00    -0.084 Cl
HETATM   16  C   UNL     1       8.238  21.762  53.286  1.00  0.00     0.025 A 
HETATM   17  C   UNL     1       7.921  23.036  52.807  1.00  0.00     0.018 A 
ENDBRANCH   8  11
ENDBRANCH   6   7
ENDBRANCH   5   6
ENDBRANCH   2   5
BRANCH   1  18
HETATM   18  C   UNL     1       8.748  29.505  57.167  1.00  0.00     0.157 A 
HETATM   19  C   UNL     1       8.480  30.447  58.206  1.00  0.00     0.029 A 
HETATM   20  C   UNL     1       7.341  30.894  58.904  1.00  0.00     0.023 A 
HETATM   21  C   UNL     1       9.716  30.998  58.520  1.00  0.00     0.063 A 
HETATM   22  C   UNL     1       7.479  31.879  59.896  1.00  0.00    -0.061 A 
HETATM   23  C   UNL     1       6.277  32.373  60.650  1.00  0.00     0.048 C 
HETATM   24  C   UNL     1       8.744  32.407  60.183  1.00  0.00     0.009 A 
HETATM   25  C   UNL     1       9.889  31.978  59.501  1.00  0.00     0.032 A 
HETATM   26  N   UNL     1      10.610  30.380  57.690  1.00  0.00    -0.277 N 
HETATM   27  H   UNL     1      11.610  30.534  57.643  1.00  0.00     0.189 HD
HETATM   28  N   UNL     1      10.064  29.478  56.856  1.00  0.00    -0.168 NA
ENDBRANCH   1  18
TORSDOF 5
ENDMDL
MODEL 6
REMARK VINA RESULT:      -9.1      4.137     10.414
REMARK  5 active torsions:
REMARK  status: ('A' for Active; 'I' for Inactive)
REMARK    1  A    between atoms: C_9  and  C_10 
REMARK       I    between atoms: C_10  and  N_11 
REMARK    2  A    between atoms: N_11  and  C_12 
REMARK    3  A    between atoms: C_12  and  C_13 
REMARK    4  A    between atoms: C_13  and  N_14 
REMARK       I    between atoms: N_14  and  C_15 
REMARK    5  A    between atoms: C_15  and  C_16 
ROOT
HETATM    1  C   UNL     1       7.751  30.548  58.741  1.00  0.00     0.272 C 
HETATM    2  N   UNL     1       8.356  29.438  58.191  1.00  0.00    -0.354 N 
HETATM    3  O   UNL     1       7.000  31.284  58.106  1.00  0.00    -0.266 OA
HETATM    4  H   UNL     1       8.999  28.938  58.800  1.00  0.00     0.162 HD
ENDROOT
BRANCH   2   5
HETATM    5  C   UNL     1       8.205  29.067  56.804  1.00  0.00     0.142 C 
BRANCH   5   6
HETATM    6  C   UNL     1       6.994  28.158  56.564  1.00  0.00     0.142 C 
BRANCH   6   7
HETATM    7  N   UNL     1       7.370  26.852  56.053  1.00  0.00    -0.355 N 
HETATM    8  C   UNL     1       6.581  26.186  55.140  1.00  0.00     0.251 C 
HETATM    9  O   UNL     1       5.535  26.657  54.702  1.00  0.00    -0.268 OA
HETATM   10  H   UNL     1       8.307  26.534  56.251  1.00  0.00     0.162 HD
BRANCH   8  11
HETATM   11  C   UNL     1       7.059  24.854  54.662  1.00  0.00     0.032 A 
HETATM   12  C   UNL     1       7.119  23.725  55.492  1.00  0.00     0.018 A 
HETATM   13  C   UNL     1       7.566  22.500  54.982  1.00  0.00     0.025 A 
HETATM   14  C   UNL     1       7.943  22.397  53.644  1.00  0.00     0.034 A 
HETATM   15 CL   UNL     1       8.485  20.887  53.023  1.00  0.00    -0.084 Cl
HETATM   16  C   UNL     1       7.874  23.507  52.807  1.00  0.00     0.025 A 
HETATM   17  C   UNL     1       7.432  24.732  53.314  1.00  0.00     0.018 A 
ENDBRANCH   8  11
ENDBRANCH   6   7
ENDBRANCH   5   6
ENDBRANCH   2   5
BRANCH   1  18
HETATM   18  C   UNL     1       8.112  30.768  60.151  1.00  0.00     0.157 A 
HETATM   19  C   UNL     1       7.594  31.762  61.034  1.00  0.00     0.029 A 
HETATM   20  C   UNL     1       6.650  32.805  60.949  1.00  0.00     0.023 A 
HETATM   21  C   UNL     1       8.258  31.557  62.237  1.00  0.00     0.063 A 
HETATM   22  C   UNL     1       6.402  33.608  62.075  1.00  0.00    -0.061 A 
HETATM   23  C   UNL     1       5.403  34.727  62.006  1.00  0.00     0.048 C 
HETATM   24  C   UNL     1       7.093  33.366  63.269  1.00  0.00     0.009 A 
HETATM   25  C   UNL     1       8.035  32.336  63.375  1.00  0.00     0.032 A 
HETATM   26  N   UNL     1       9.096  30.500  62.012  1.00  0.00    -0.277 N 
HETATM   27  H   UNL     1       9.734  30.073  62.673  1.00  0.00     0.189 HD
HETATM   28  N   UNL     1       9.041  30.001  60.766  1.00  0.00    -0.168 NA
ENDBRANCH   1  18
TORSDOF 5
ENDMDL
MODEL 7
REMARK VINA RESULT:      -9.0      5.130      9.811
REMARK  5 active torsions:
REMARK  status: ('A' for Active; 'I' for Inactive)
REMARK    1  A    between atoms: C_9  and  C_10 
REMARK       I    between atoms: C_10  and  N_11 
REMARK    2  A    between atoms: N_11  and  C_12 
REMARK    3  A    between atoms: C_12  and  C_13 
REMARK    4  A    between atoms: C_13  and  N_14 
REMARK       I    between atoms: N_14  and  C_15 
REMARK    5  A    between atoms: C_15  and  C_16 
ROOT
HETATM    1  C   UNL     1       5.728  28.288  56.134  1.00  0.00     0.272 C 
HETATM    2  N   UNL     1       5.170  28.753  54.962  1.00  0.00    -0.354 N 
HETATM    3  O   UNL     1       5.865  27.093  56.381  1.00  0.00    -0.266 OA
HETATM    4  H   UNL     1       5.059  29.761  54.896  1.00  0.00     0.162 HD
ENDROOT
BRANCH   2   5
HETATM    5  C   UNL     1       4.647  27.877  53.939  1.00  0.00     0.142 C 
BRANCH   5   6
HETATM    6  C   UNL     1       5.753  27.211  53.111  1.00  0.00     0.142 C 
BRANCH   6   7
HETATM    7  N   UNL     1       6.181  25.942  53.670  1.00  0.00    -0.355 N 
HETATM    8  C   UNL     1       6.948  25.060  52.940  1.00  0.00     0.251 C 
HETATM    9  O   UNL     1       7.319  25.298  51.794  1.00  0.00    -0.268 OA
HETATM   10  H   UNL     1       6.051  25.811  54.663  1.00  0.00     0.162 HD
BRANCH   8  11
HETATM   11  C   UNL     1       7.351  23.786  53.607  1.00  0.00     0.032 A 
HETATM   12  C   UNL     1       7.203  23.568  54.984  1.00  0.00     0.018 A 
HETATM   13  C   UNL     1       7.590  22.346  55.549  1.00  0.00     0.025 A 
HETATM   14  C   UNL     1       8.114  21.339  54.741  1.00  0.00     0.034 A 
HETATM   15 CL   UNL     1       8.580  19.838  55.441  1.00  0.00    -0.084 Cl
HETATM   16  C   UNL     1       8.252  21.537  53.370  1.00  0.00     0.025 A 
HETATM   17  C   UNL     1       7.871  22.757  52.805  1.00  0.00     0.018 A 
ENDBRANCH   8  11
ENDBRANCH   6   7
ENDBRANCH   5   6
ENDBRANCH   2   5
BRANCH   1  18
HETATM   18  C   UNL     1       6.118  29.364  57.059  1.00  0.00     0.157 A 
HETATM   19  C   UNL     1       7.440  29.791  57.385  1.00  0.00     0.029 A 
HETATM   20  C   UNL     1       8.749  29.420  57.015  1.00  0.00     0.023 A 
HETATM   21  C   UNL     1       7.272  30.821  58.301  1.00  0.00     0.063 A 
HETATM   22  C   UNL     1       9.845  30.096  57.575  1.00  0.00    -0.061 A 
HETATM   23  C   UNL     1      11.248  29.714  57.198  1.00  0.00     0.048 C 
HETATM   24  C   UNL     1       9.630  31.130  58.495  1.00  0.00     0.009 A 
HETATM   25  C   UNL     1       8.339  31.515  58.876  1.00  0.00     0.032 A 
HETATM   26  N   UNL     1       5.919  30.946  58.460  1.00  0.00    -0.277 N 
HETATM   27  H   UNL     1       5.431  31.603  59.057  1.00  0.00     0.189 HD
HETATM   28  N   UNL     1       5.191  30.082  57.733  1.00  0.00    -0.168 NA
ENDBRANCH   1  18
TORSDOF 5
ENDMDL
MODEL 8
REMARK VINA RESULT:      -8.9      4.286     10.699
REMARK  5 active torsions:
REMARK  status: ('A' for Active; 'I' for Inactive)
REMARK    1  A    between atoms: C_9  and  C_10 
REMARK       I    between atoms: C_10  and  N_11 
REMARK    2  A    between atoms: N_11  and  C_12 
REMARK    3  A    between atoms: C_12  and  C_13 
REMARK    4  A    between atoms: C_13  and  N_14 
REMARK       I    between atoms: N_14  and  C_15 
REMARK    5  A    between atoms: C_15  and  C_16 
ROOT
HETATM    1  C   UNL     1       7.412  30.602  58.327  1.00  0.00     0.272 C 
HETATM    2  N   UNL     1       6.741  29.423  58.076  1.00  0.00    -0.354 N 
HETATM    3  O   UNL     1       8.616  30.741  58.128  1.00  0.00    -0.266 OA
HETATM    4  H   UNL     1       5.757  29.413  58.332  1.00  0.00     0.162 HD
ENDROOT
BRANCH   2   5
HETATM    5  C   UNL     1       7.401  28.228  57.607  1.00  0.00     0.142 C 
BRANCH   5   6
HETATM    6  C   UNL     1       7.245  28.022  56.095  1.00  0.00     0.142 C 
BRANCH   6   7
HETATM    7  N   UNL     1       7.579  26.672  55.679  1.00  0.00    -0.355 N 
HETATM    8  C   UNL     1       6.722  25.933  54.891  1.00  0.00     0.251 C 
HETATM    9  O   UNL     1       5.647  26.370  54.492  1.00  0.00    -0.268 OA
HETATM   10  H   UNL     1       8.529  26.366  55.833  1.00  0.00     0.162 HD
BRANCH   8  11
HETATM   11  C   UNL     1       7.161  24.559  54.502  1.00  0.00     0.032 A 
HETATM   12  C   UNL     1       7.210  23.491  55.409  1.00  0.00     0.018 A 
HETATM   13  C   UNL     1       7.620  22.222  54.980  1.00  0.00     0.025 A 
HETATM   14  C   UNL     1       7.971  22.016  53.647  1.00  0.00     0.034 A 
HETATM   15 CL   UNL     1       8.467  20.453  53.126  1.00  0.00    -0.084 Cl
HETATM   16  C   UNL     1       7.912  23.065  52.734  1.00  0.00     0.025 A 
HETATM   17  C   UNL     1       7.507  24.333  53.160  1.00  0.00     0.018 A 
ENDBRANCH   8  11
ENDBRANCH   6   7
ENDBRANCH   5   6
ENDBRANCH   2   5
BRANCH   1  18
HETATM   18  C   UNL     1       6.546  31.659  58.873  1.00  0.00     0.157 A 
HETATM   19  C   UNL     1       6.610  32.248  60.171  1.00  0.00     0.029 A 
HETATM   20  C   UNL     1       7.412  32.095  61.319  1.00  0.00     0.023 A 
HETATM   21  C   UNL     1       5.579  33.180  60.195  1.00  0.00     0.063 A 
HETATM   22  C   UNL     1       7.156  32.883  62.453  1.00  0.00    -0.061 A 
HETATM   23  C   UNL     1       7.997  32.733  63.689  1.00  0.00     0.048 C 
HETATM   24  C   UNL     1       6.108  33.812  62.434  1.00  0.00     0.009 A 
HETATM   25  C   UNL     1       5.298  33.980  61.305  1.00  0.00     0.032 A 
HETATM   26  N   UNL     1       4.988  33.097  58.965  1.00  0.00    -0.277 N 
HETATM   27  H   UNL     1       4.199  33.636  58.627  1.00  0.00     0.189 HD
HETATM   28  N   UNL     1       5.538  32.188  58.142  1.00  0.00    -0.168 NA
ENDBRANCH   1  18
TORSDOF 5
ENDMDL
MODEL 9
REMARK VINA RESULT:      -8.9      4.438     10.240
REMARK  5 active torsions:
REMARK  status: ('A' for Active; 'I' for Inactive)
REMARK    1  A    between atoms: C_9  and  C_10 
REMARK       I    between atoms: C_10  and  N_11 
REMARK    2  A    between atoms: N_11  and  C_12 
REMARK    3  A    between atoms: C_12  and  C_13 
REMARK    4  A    between atoms: C_13  and  N_14 
REMARK       I    between atoms: N_14  and  C_15 
REMARK    5  A    between atoms: C_15  and  C_16 
ROOT
HETATM    1  C   UNL     1       7.625  29.143  56.944  1.00  0.00     0.272 C 
HETATM    2  N   UNL     1       7.622  29.444  55.599  1.00  0.00    -0.354 N 
HETATM    3  O   UNL     1       8.191  28.156  57.408  1.00  0.00    -0.266 OA
HETATM    4  H   UNL     1       7.074  30.257  55.329  1.00  0.00     0.162 HD
ENDROOT
BRANCH   2   5
HETATM    5  C   UNL     1       8.240  28.599  54.604  1.00  0.00     0.142 C 
BRANCH   5   6
HETATM    6  C   UNL     1       7.234  27.674  53.908  1.00  0.00     0.142 C 
BRANCH   6   7
HETATM    7  N   UNL     1       7.416  26.280  54.268  1.00  0.00    -0.355 N 
HETATM    8  C   UNL     1       7.459  25.292  53.308  1.00  0.00     0.251 C 
HETATM    9  O   UNL     1       7.360  25.531  52.109  1.00  0.00    -0.268 OA
HETATM   10  H   UNL     1       7.687  26.084  55.221  1.00  0.00     0.162 HD
BRANCH   8  11
HETATM   11  C   UNL     1       7.665  23.888  53.777  1.00  0.00     0.032 A 
HETATM   12  C   UNL     1       7.971  22.832  52.906  1.00  0.00     0.018 A 
HETATM   13  C   UNL     1       8.163  21.539  53.408  1.00  0.00     0.025 A 
HETATM   14  C   UNL     1       8.062  21.300  54.777  1.00  0.00     0.034 A 
HETATM   15 CL   UNL     1       8.306  19.710  55.387  1.00  0.00    -0.084 Cl
HETATM   16  C   UNL     1       7.773  22.343  55.653  1.00  0.00     0.025 A 
HETATM   17  C   UNL     1       7.576  23.633  55.154  1.00  0.00     0.018 A 
ENDBRANCH   8  11
ENDBRANCH   6   7
ENDBRANCH   5   6
ENDBRANCH   2   5
BRANCH   1  18
HETATM   18  C   UNL     1       6.867  30.108  57.757  1.00  0.00     0.157 A 
HETATM   19  C   UNL     1       7.339  30.860  58.874  1.00  0.00     0.029 A 
HETATM   20  C   UNL     1       8.554  30.984  59.576  1.00  0.00     0.023 A 
HETATM   21  C   UNL     1       6.246  31.611  59.291  1.00  0.00     0.063 A 
HETATM   22  C   UNL     1       8.634  31.858  60.674  1.00  0.00    -0.061 A 
HETATM   23  C   UNL     1       9.919  32.003  61.439  1.00  0.00     0.048 C 
HETATM   24  C   UNL     1       7.509  32.597  61.059  1.00  0.00     0.009 A 
HETATM   25  C   UNL     1       6.292  32.489  60.376  1.00  0.00     0.032 A 
HETATM   26  N   UNL     1       5.232  31.279  58.435  1.00  0.00    -0.277 N 
HETATM   27  H   UNL     1       4.284  31.637  58.441  1.00  0.00     0.189 HD
HETATM   28  N   UNL     1       5.566  30.373  57.501  1.00  0.00    -0.168 NA
ENDBRANCH   1  18
TORSDOF 5
ENDMDL
MODEL 10
REMARK VINA RESULT:      -8.8      7.691      9.779
REMARK  5 active torsions:
REMARK  status: ('A' for Active; 'I' for Inactive)
REMARK    1  A    between atoms: C_9  and  C_10 
REMARK       I    between atoms: C_10  and  N_11 
REMARK    2  A    between atoms: N_11  and  C_12 
REMARK    3  A    between atoms: C_12  and  C_13 
REMARK    4  A    between atoms: C_13  and  N_14 
REMARK       I    between atoms: N_14  and  C_15 
REMARK    5  A    between atoms: C_15  and  C_16 
ROOT
HETATM    1  C   UNL     1       7.144  25.579  54.268  1.00  0.00     0.272 C 
HETATM    2  N   UNL     1       7.552  26.849  54.617  1.00  0.00    -0.354 N 
HETATM    3  O   UNL     1       6.538  25.333  53.228  1.00  0.00    -0.266 OA
HETATM    4  H   UNL     1       7.997  26.935  55.527  1.00  0.00     0.162 HD
ENDROOT
BRANCH   2   5
HETATM    5  C   UNL     1       7.259  28.015  53.818  1.00  0.00     0.142 C 
BRANCH   5   6
HETATM    6  C   UNL     1       5.783  28.423  53.887  1.00  0.00     0.142 C 
BRANCH   6   7
HETATM    7  N   UNL     1       5.024  27.969  52.736  1.00  0.00    -0.355 N 
HETATM    8  C   UNL     1       5.132  28.598  51.514  1.00  0.00     0.251 C 
HETATM    9  O   UNL     1       5.874  29.557  51.327  1.00  0.00    -0.268 OA
HETATM   10  H   UNL     1       4.559  27.076  52.816  1.00  0.00     0.162 HD
BRANCH   8  11
HETATM   11  C   UNL     1       4.322  28.048  50.386  1.00  0.00     0.032 A 
HETATM   12  C   UNL     1       3.136  28.648  49.938  1.00  0.00     0.018 A 
HETATM   13  C   UNL     1       2.426  28.090  48.867  1.00  0.00     0.025 A 
HETATM   14  C   UNL     1       2.903  26.943  48.236  1.00  0.00     0.034 A 
HETATM   15 CL   UNL     1       2.030  26.268  46.916  1.00  0.00    -0.084 Cl
HETATM   16  C   UNL     1       4.087  26.347  48.662  1.00  0.00     0.025 A 
HETATM   17  C   UNL     1       4.795  26.899  49.733  1.00  0.00     0.018 A 
ENDBRANCH   8  11
ENDBRANCH   6   7
ENDBRANCH   5   6
ENDBRANCH   2   5
BRANCH   1  18
HETATM   18  C   UNL     1       7.489  24.561  55.274  1.00  0.00     0.157 A 
HETATM   19  C   UNL     1       7.847  23.199  55.042  1.00  0.00     0.029 A 
HETATM   20  C   UNL     1       8.003  22.366  53.916  1.00  0.00     0.023 A 
HETATM   21  C   UNL     1       8.067  22.664  56.305  1.00  0.00     0.063 A 
HETATM   22  C   UNL     1       8.376  21.023  54.094  1.00  0.00    -0.061 A 
HETATM   23  C   UNL     1       8.544  20.117  52.909  1.00  0.00     0.048 C 
HETATM   24  C   UNL     1       8.589  20.525  55.386  1.00  0.00     0.009 A 
HETATM   25  C   UNL     1       8.439  21.334  56.518  1.00  0.00     0.032 A 
HETATM   26  N   UNL     1       7.839  23.692  57.178  1.00  0.00    -0.277 N 
HETATM   27  H   UNL     1       7.908  23.664  58.189  1.00  0.00     0.189 HD
HETATM   28  N   UNL     1       7.483  24.849  56.595  1.00  0.00    -0.168 NA
ENDBRANCH   1  18
TORSDOF 5
ENDMDL
