MODEL 1
REMARK VINA RESULT:      -7.3      0.000      0.000
REMARK  5 active torsions:
REMARK  status: ('A' for Active; 'I' for Inactive)
REMARK    1  A    between atoms: C_2  and  C_3 
REMARK    2  A    between atoms: C_3  and  C_4 
REMARK    3  A    between atoms: C_10  and  C_11 
REMARK    4  A    between atoms: C_12  and  O_13 
REMARK    5  A    between atoms: C_22  and  N_23 
ROOT
HETATM    1  C   UNL     1       4.986  26.887  52.618  1.00  0.00     0.066 A 
HETATM    2  N   UNL     1       5.147  26.923  51.284  1.00  0.00    -0.177 NA
HETATM    3  N   UNL     1       6.039  25.950  51.024  1.00  0.00    -0.256 N 
HETATM    4  H   UNL     1       6.316  25.782  50.063  1.00  0.00     0.191 HD
HETATM    5  C   UNL     1       6.462  25.316  52.145  1.00  0.00     0.175 A 
HETATM    6  C   UNL     1       5.810  25.892  53.208  1.00  0.00     0.035 A 
HETATM    7  C   UNL     1       6.065  25.381  54.589  1.00  0.00     0.107 A 
HETATM    8  C   UNL     1       7.170  24.320  54.564  1.00  0.00     0.067 A 
HETATM    9  C   UNL     1       7.692  23.840  55.910  1.00  0.00     0.020 C 
HETATM   10  N   UNL     1       8.124  23.440  57.025  1.00  0.00    -0.096 N 
HETATM   11  C   UNL     1       7.738  23.852  53.421  1.00  0.00     0.139 A 
HETATM   12  O   UNL     1       7.353  24.332  52.157  1.00  0.00    -0.279 OA
ENDROOT
BRANCH   7  13
HETATM   13  C   UNL     1       6.407  26.586  55.452  1.00  0.00    -0.010 A 
HETATM   14  C   UNL     1       5.600  26.958  56.539  1.00  0.00     0.073 A 
HETATM   15  C   UNL     1       5.964  27.994  57.399  1.00  0.00     0.038 A 
HETATM   16  C   UNL     1       7.139  28.705  57.174  1.00  0.00     0.022 A 
HETATM   17  C   UNL     1       7.948  28.368  56.094  1.00  0.00     0.011 A 
HETATM   18 BR   UNL     1       9.548  29.325  55.785  1.00  0.00    -0.051 Br
HETATM   19  C   UNL     1       7.596  27.317  55.242  1.00  0.00     0.030 A 
BRANCH  14  20
HETATM   20  O   UNL     1       4.426  26.327  56.828  1.00  0.00    -0.360 OA
HETATM   21  H   UNL     1       3.697  26.817  56.411  1.00  0.00     0.217 HD
ENDBRANCH  14  20
ENDBRANCH   7  13
BRANCH  11  22
HETATM   22  N   UNL     1       8.736  22.909  53.349  1.00  0.00    -0.282 NA
HETATM   23  H   UNL     1       9.343  22.962  52.534  1.00  0.00     0.126 HD
HETATM   24  H   UNL     1       8.392  21.969  53.528  1.00  0.00     0.126 HD
ENDBRANCH  11  22
BRANCH   1  25
HETATM   25  C   UNL     1       4.048  27.856  53.265  1.00  0.00     0.061 C 
BRANCH  25  26
HETATM   26  C   UNL     1       4.647  29.246  53.493  1.00  0.00     0.002 C 
HETATM   27  C   UNL     1       4.157  29.900  54.778  1.00  0.00     0.005 C 
ENDBRANCH  25  26
ENDBRANCH   1  25
TORSDOF 5
ENDMDL
MODEL 2
REMARK VINA RESULT:      -6.8      9.696     12.334
REMARK  5 active torsions:
REMARK  status: ('A' for Active; 'I' for Inactive)
REMARK    1  A    between atoms: C_2  and  C_3 
REMARK    2  A    between atoms: C_3  and  C_4 
REMARK    3  A    between atoms: C_10  and  C_11 
REMARK    4  A    between atoms: C_12  and  O_13 
REMARK    5  A    between atoms: C_22  and  N_23 
ROOT
HETATM    1  C   UNL     1       6.459  32.354  61.929  1.00  0.00     0.066 A 
HETATM    2  N   UNL     1       7.765  32.049  61.842  1.00  0.00    -0.177 NA
HETATM    3  N   UNL     1       8.264  32.346  63.056  1.00  0.00    -0.256 N 
HETATM    4  H   UNL     1       9.249  32.189  63.234  1.00  0.00     0.191 HD
HETATM    5  C   UNL     1       7.326  32.845  63.898  1.00  0.00     0.175 A 
HETATM    6  C   UNL     1       6.137  32.875  63.211  1.00  0.00     0.035 A 
HETATM    7  C   UNL     1       4.905  33.368  63.897  1.00  0.00     0.107 A 
HETATM    8  C   UNL     1       5.252  33.893  65.294  1.00  0.00     0.067 A 
HETATM    9  C   UNL     1       4.148  34.614  66.052  1.00  0.00     0.020 C 
HETATM   10  N   UNL     1       3.232  35.210  66.681  1.00  0.00    -0.096 N 
HETATM   11  C   UNL     1       6.493  33.806  65.843  1.00  0.00     0.139 A 
HETATM   12  O   UNL     1       7.569  33.230  65.145  1.00  0.00    -0.279 OA
ENDROOT
BRANCH   7  13
HETATM   13  C   UNL     1       4.286  34.423  62.994  1.00  0.00    -0.010 A 
HETATM   14  C   UNL     1       2.945  34.337  62.584  1.00  0.00     0.073 A 
HETATM   15  C   UNL     1       2.340  35.355  61.846  1.00  0.00     0.038 A 
HETATM   16  C   UNL     1       3.074  36.478  61.476  1.00  0.00     0.022 A 
HETATM   17  C   UNL     1       4.409  36.579  61.855  1.00  0.00     0.011 A 
HETATM   18 BR   UNL     1       5.411  38.103  61.361  1.00  0.00    -0.051 Br
HETATM   19  C   UNL     1       5.012  35.571  62.611  1.00  0.00     0.030 A 
BRANCH  14  20
HETATM   20  O   UNL     1       2.153  33.269  62.889  1.00  0.00    -0.360 OA
HETATM   21  H   UNL     1       1.467  33.184  62.206  1.00  0.00     0.217 HD
ENDBRANCH  14  20
ENDBRANCH   7  13
BRANCH  11  22
HETATM   22  N   UNL     1       6.854  34.269  67.086  1.00  0.00    -0.282 NA
HETATM   23  H   UNL     1       7.848  34.247  67.299  1.00  0.00     0.126 HD
HETATM   24  H   UNL     1       6.279  33.875  67.826  1.00  0.00     0.126 HD
ENDBRANCH  11  22
BRANCH   1  25
HETATM   25  C   UNL     1       5.582  32.149  60.735  1.00  0.00     0.061 C 
BRANCH  25  26
HETATM   26  C   UNL     1       5.613  33.305  59.732  1.00  0.00     0.002 C 
HETATM   27  C   UNL     1       4.243  33.621  59.149  1.00  0.00     0.005 C 
ENDBRANCH  25  26
ENDBRANCH   1  25
TORSDOF 5
ENDMDL
MODEL 3
REMARK VINA RESULT:      -6.4      3.053      4.875
REMARK  5 active torsions:
REMARK  status: ('A' for Active; 'I' for Inactive)
REMARK    1  A    between atoms: C_2  and  C_3 
REMARK    2  A    between atoms: C_3  and  C_4 
REMARK    3  A    between atoms: C_10  and  C_11 
REMARK    4  A    between atoms: C_12  and  O_13 
REMARK    5  A    between atoms: C_22  and  N_23 
ROOT
HETATM    1  C   UNL     1       5.080  27.938  53.035  1.00  0.00     0.066 A 
HETATM    2  N   UNL     1       4.031  28.446  52.366  1.00  0.00    -0.177 NA
HETATM    3  N   UNL     1       3.704  29.560  53.045  1.00  0.00    -0.256 N 
HETATM    4  H   UNL     1       2.929  30.126  52.716  1.00  0.00     0.191 HD
HETATM    5  C   UNL     1       4.494  29.763  54.127  1.00  0.00     0.175 A 
HETATM    6  C   UNL     1       5.402  28.733  54.167  1.00  0.00     0.035 A 
HETATM    7  C   UNL     1       6.425  28.699  55.255  1.00  0.00     0.107 A 
HETATM    8  C   UNL     1       6.173  29.834  56.254  1.00  0.00     0.067 A 
HETATM    9  C   UNL     1       7.003  29.824  57.529  1.00  0.00     0.020 C 
HETATM   10  N   UNL     1       7.691  29.818  58.585  1.00  0.00    -0.096 N 
HETATM   11  C   UNL     1       5.216  30.785  56.085  1.00  0.00     0.139 A 
HETATM   12  O   UNL     1       4.363  30.783  54.968  1.00  0.00    -0.279 OA
ENDROOT
BRANCH   7  13
HETATM   13  C   UNL     1       6.358  27.317  55.885  1.00  0.00    -0.010 A 
HETATM   14  C   UNL     1       5.175  26.840  56.473  1.00  0.00     0.073 A 
HETATM   15  C   UNL     1       5.073  25.535  56.956  1.00  0.00     0.038 A 
HETATM   16  C   UNL     1       6.169  24.680  56.886  1.00  0.00     0.022 A 
HETATM   17  C   UNL     1       7.357  25.134  56.324  1.00  0.00     0.011 A 
HETATM   18 BR   UNL     1       8.848  23.976  56.220  1.00  0.00    -0.051 Br
HETATM   19  C   UNL     1       7.456  26.433  55.821  1.00  0.00     0.030 A 
BRANCH  14  20
HETATM   20  O   UNL     1       4.056  27.610  56.596  1.00  0.00    -0.360 OA
HETATM   21  H   UNL     1       4.273  28.393  57.129  1.00  0.00     0.217 HD
ENDBRANCH  14  20
ENDBRANCH   7  13
BRANCH  11  22
HETATM   22  N   UNL     1       4.948  31.814  56.956  1.00  0.00    -0.282 NA
HETATM   23  H   UNL     1       5.094  32.754  56.594  1.00  0.00     0.126 HD
HETATM   24  H   UNL     1       5.373  31.669  57.868  1.00  0.00     0.126 HD
ENDBRANCH  11  22
BRANCH   1  25
HETATM   25  C   UNL     1       5.709  26.670  52.551  1.00  0.00     0.061 C 
BRANCH  25  26
HETATM   26  C   UNL     1       5.022  25.400  53.059  1.00  0.00     0.002 C 
HETATM   27  C   UNL     1       5.959  24.201  53.114  1.00  0.00     0.005 C 
ENDBRANCH  25  26
ENDBRANCH   1  25
TORSDOF 5
ENDMDL
MODEL 4
REMARK VINA RESULT:      -6.4      2.027      2.737
REMARK  5 active torsions:
REMARK  status: ('A' for Active; 'I' for Inactive)
REMARK    1  A    between atoms: C_2  and  C_3 
REMARK    2  A    between atoms: C_3  and  C_4 
REMARK    3  A    between atoms: C_10  and  C_11 
REMARK    4  A    between atoms: C_12  and  O_13 
REMARK    5  A    between atoms: C_22  and  N_23 
ROOT
HETATM    1  C   UNL     1       4.432  28.255  55.088  1.00  0.00     0.066 A 
HETATM    2  N   UNL     1       3.713  28.198  53.954  1.00  0.00    -0.177 NA
HETATM    3  N   UNL     1       4.043  27.016  53.402  1.00  0.00    -0.256 N 
HETATM    4  H   UNL     1       3.612  26.746  52.526  1.00  0.00     0.191 HD
HETATM    5  C   UNL     1       4.959  26.336  54.135  1.00  0.00     0.175 A 
HETATM    6  C   UNL     1       5.247  27.102  55.238  1.00  0.00     0.035 A 
HETATM    7  C   UNL     1       6.224  26.594  56.249  1.00  0.00     0.107 A 
HETATM    8  C   UNL     1       6.848  25.280  55.767  1.00  0.00     0.067 A 
HETATM    9  C   UNL     1       8.008  24.730  56.583  1.00  0.00     0.020 C 
HETATM   10  N   UNL     1       8.969  24.273  57.259  1.00  0.00    -0.096 N 
HETATM   11  C   UNL     1       6.465  24.638  54.631  1.00  0.00     0.139 A 
HETATM   12  O   UNL     1       5.459  25.154  53.795  1.00  0.00    -0.279 OA
ENDROOT
BRANCH   7  13
HETATM   13  C   UNL     1       7.245  27.698  56.473  1.00  0.00    -0.010 A 
HETATM   14  C   UNL     1       8.044  28.178  55.423  1.00  0.00     0.073 A 
HETATM   15  C   UNL     1       8.905  29.262  55.595  1.00  0.00     0.038 A 
HETATM   16  C   UNL     1       9.006  29.879  56.839  1.00  0.00     0.022 A 
HETATM   17  C   UNL     1       8.238  29.412  57.900  1.00  0.00     0.011 A 
HETATM   18 BR   UNL     1       8.366  30.248  59.590  1.00  0.00    -0.051 Br
HETATM   19  C   UNL     1       7.361  28.339  57.725  1.00  0.00     0.030 A 
BRANCH  14  20
HETATM   20  O   UNL     1       8.021  27.628  54.175  1.00  0.00    -0.360 OA
HETATM   21  H   UNL     1       7.765  28.314  53.536  1.00  0.00     0.217 HD
ENDBRANCH  14  20
ENDBRANCH   7  13
BRANCH  11  22
HETATM   22  N   UNL     1       7.000  23.464  54.155  1.00  0.00    -0.282 NA
HETATM   23  H   UNL     1       7.926  23.532  53.739  1.00  0.00     0.126 HD
HETATM   24  H   UNL     1       6.342  22.946  53.579  1.00  0.00     0.126 HD
ENDBRANCH  11  22
BRANCH   1  25
HETATM   25  C   UNL     1       4.312  29.459  55.967  1.00  0.00     0.061 C 
BRANCH  25  26
HETATM   26  C   UNL     1       5.250  30.607  55.584  1.00  0.00     0.002 C 
HETATM   27  C   UNL     1       5.473  31.595  56.721  1.00  0.00     0.005 C 
ENDBRANCH  25  26
ENDBRANCH   1  25
TORSDOF 5
ENDMDL
MODEL 5
REMARK VINA RESULT:      -6.3      3.684      5.412
REMARK  5 active torsions:
REMARK  status: ('A' for Active; 'I' for Inactive)
REMARK    1  A    between atoms: C_2  and  C_3 
REMARK    2  A    between atoms: C_3  and  C_4 
REMARK    3  A    between atoms: C_10  and  C_11 
REMARK    4  A    between atoms: C_12  and  O_13 
REMARK    5  A    between atoms: C_22  and  N_23 
ROOT
HETATM    1  C   UNL     1       4.645  28.997  55.995  1.00  0.00     0.066 A 
HETATM    2  N   UNL     1       3.689  29.424  56.838  1.00  0.00    -0.177 NA
HETATM    3  N   UNL     1       4.359  30.057  57.818  1.00  0.00    -0.256 N 
HETATM    4  H   UNL     1       3.837  30.477  58.579  1.00  0.00     0.191 HD
HETATM    5  C   UNL     1       5.702  30.027  57.635  1.00  0.00     0.175 A 
HETATM    6  C   UNL     1       5.938  29.345  56.467  1.00  0.00     0.035 A 
HETATM    7  C   UNL     1       7.344  29.166  55.993  1.00  0.00     0.107 A 
HETATM    8  C   UNL     1       8.327  29.712  57.035  1.00  0.00     0.067 A 
HETATM    9  C   UNL     1       9.803  29.430  56.801  1.00  0.00     0.020 C 
HETATM   10  N   UNL     1      11.027  29.198  56.608  1.00  0.00    -0.096 N 
HETATM   11  C   UNL     1       7.940  30.361  58.165  1.00  0.00     0.139 A 
HETATM   12  O   UNL     1       6.583  30.565  58.470  1.00  0.00    -0.279 OA
ENDROOT
BRANCH   7  13
HETATM   13  C   UNL     1       7.531  27.684  55.709  1.00  0.00    -0.010 A 
HETATM   14  C   UNL     1       7.586  26.742  56.749  1.00  0.00     0.073 A 
HETATM   15  C   UNL     1       7.649  25.372  56.493  1.00  0.00     0.038 A 
HETATM   16  C   UNL     1       7.686  24.911  55.180  1.00  0.00     0.022 A 
HETATM   17  C   UNL     1       7.650  25.824  54.132  1.00  0.00     0.011 A 
HETATM   18 BR   UNL     1       7.693  25.204  52.346  1.00  0.00    -0.051 Br
HETATM   19  C   UNL     1       7.567  27.195  54.385  1.00  0.00     0.030 A 
BRANCH  14  20
HETATM   20  O   UNL     1       7.569  27.103  58.065  1.00  0.00    -0.360 OA
HETATM   21  H   UNL     1       8.279  27.748  58.221  1.00  0.00     0.217 HD
ENDBRANCH  14  20
ENDBRANCH   7  13
BRANCH  11  22
HETATM   22  N   UNL     1       8.782  30.860  59.130  1.00  0.00    -0.282 NA
HETATM   23  H   UNL     1       9.141  31.799  58.968  1.00  0.00     0.126 HD
HETATM   24  H   UNL     1       9.508  30.197  59.389  1.00  0.00     0.126 HD
ENDBRANCH  11  22
BRANCH   1  25
HETATM   25  C   UNL     1       4.248  28.234  54.772  1.00  0.00     0.061 C 
BRANCH  25  26
HETATM   26  C   UNL     1       4.425  29.013  53.466  1.00  0.00     0.002 C 
HETATM   27  C   UNL     1       4.677  28.111  52.266  1.00  0.00     0.005 C 
ENDBRANCH  25  26
ENDBRANCH   1  25
TORSDOF 5
ENDMDL
MODEL 6
REMARK VINA RESULT:      -6.2      8.517     10.333
REMARK  5 active torsions:
REMARK  status: ('A' for Active; 'I' for Inactive)
REMARK    1  A    between atoms: C_2  and  C_3 
REMARK    2  A    between atoms: C_3  and  C_4 
REMARK    3  A    between atoms: C_10  and  C_11 
REMARK    4  A    between atoms: C_12  and  O_13 
REMARK    5  A    between atoms: C_22  and  N_23 
ROOT
HETATM    1  C   UNL     1       3.073  33.807  59.985  1.00  0.00     0.066 A 
HETATM    2  N   UNL     1       2.838  34.006  58.676  1.00  0.00    -0.177 NA
HETATM    3  N   UNL     1       3.960  33.588  58.063  1.00  0.00    -0.256 N 
HETATM    4  H   UNL     1       4.014  33.637  57.052  1.00  0.00     0.191 HD
HETATM    5  C   UNL     1       4.901  33.154  58.937  1.00  0.00     0.175 A 
HETATM    6  C   UNL     1       4.375  33.280  60.199  1.00  0.00     0.035 A 
HETATM    7  C   UNL     1       5.188  32.858  61.379  1.00  0.00     0.107 A 
HETATM    8  C   UNL     1       6.594  32.446  60.932  1.00  0.00     0.067 A 
HETATM    9  C   UNL     1       7.613  32.178  62.029  1.00  0.00     0.020 C 
HETATM   10  N   UNL     1       8.458  31.954  62.938  1.00  0.00    -0.096 N 
HETATM   11  C   UNL     1       6.980  32.380  59.630  1.00  0.00     0.139 A 
HETATM   12  O   UNL     1       6.101  32.707  58.583  1.00  0.00    -0.279 OA
ENDROOT
BRANCH   7  13
HETATM   13  C   UNL     1       5.184  34.019  62.360  1.00  0.00    -0.010 A 
HETATM   14  C   UNL     1       4.932  33.819  63.727  1.00  0.00     0.073 A 
HETATM   15  C   UNL     1       5.033  34.861  64.649  1.00  0.00     0.038 A 
HETATM   16  C   UNL     1       5.364  36.143  64.218  1.00  0.00     0.022 A 
HETATM   17  C   UNL     1       5.600  36.371  62.867  1.00  0.00     0.011 A 
HETATM   18 BR   UNL     1       6.056  38.107  62.275  1.00  0.00    -0.051 Br
HETATM   19  C   UNL     1       5.520  35.325  61.944  1.00  0.00     0.030 A 
BRANCH  14  20
HETATM   20  O   UNL     1       4.590  32.601  64.238  1.00  0.00    -0.360 OA
HETATM   21  H   UNL     1       3.695  32.661  64.612  1.00  0.00     0.217 HD
ENDBRANCH  14  20
ENDBRANCH   7  13
BRANCH  11  22
HETATM   22  N   UNL     1       8.231  32.026  59.182  1.00  0.00    -0.282 NA
HETATM   23  H   UNL     1       8.373  32.070  58.175  1.00  0.00     0.126 HD
HETATM   24  H   UNL     1       8.554  31.154  59.592  1.00  0.00     0.126 HD
ENDBRANCH  11  22
BRANCH   1  25
HETATM   25  C   UNL     1       2.017  34.174  60.978  1.00  0.00     0.061 C 
BRANCH  25  26
HETATM   26  C   UNL     1       0.959  35.139  60.437  1.00  0.00     0.002 C 
HETATM   27  C   UNL     1      -0.464  34.652  60.674  1.00  0.00     0.005 C 
ENDBRANCH  25  26
ENDBRANCH   1  25
TORSDOF 5
ENDMDL
MODEL 7
REMARK VINA RESULT:      -6.2      8.093     10.768
REMARK  5 active torsions:
REMARK  status: ('A' for Active; 'I' for Inactive)
REMARK    1  A    between atoms: C_2  and  C_3 
REMARK    2  A    between atoms: C_3  and  C_4 
REMARK    3  A    between atoms: C_10  and  C_11 
REMARK    4  A    between atoms: C_12  and  O_13 
REMARK    5  A    between atoms: C_22  and  N_23 
ROOT
HETATM    1  C   UNL     1       6.383  34.481  63.604  1.00  0.00     0.066 A 
HETATM    2  N   UNL     1       6.736  34.246  64.880  1.00  0.00    -0.177 NA
HETATM    3  N   UNL     1       7.498  33.139  64.823  1.00  0.00    -0.256 N 
HETATM    4  H   UNL     1       7.891  32.768  65.681  1.00  0.00     0.191 HD
HETATM    5  C   UNL     1       7.622  32.655  63.562  1.00  0.00     0.175 A 
HETATM    6  C   UNL     1       6.911  33.490  62.735  1.00  0.00     0.035 A 
HETATM    7  C   UNL     1       6.880  33.214  61.267  1.00  0.00     0.107 A 
HETATM    8  C   UNL     1       7.597  31.895  60.961  1.00  0.00     0.067 A 
HETATM    9  C   UNL     1       7.485  31.366  59.539  1.00  0.00     0.020 C 
HETATM   10  N   UNL     1       7.394  30.927  58.361  1.00  0.00    -0.096 N 
HETATM   11  C   UNL     1       8.254  31.162  61.898  1.00  0.00     0.139 A 
HETATM   12  O   UNL     1       8.307  31.564  63.244  1.00  0.00    -0.279 OA
ENDROOT
BRANCH   7  13
HETATM   13  C   UNL     1       5.419  33.216  60.846  1.00  0.00    -0.010 A 
HETATM   14  C   UNL     1       4.487  32.349  61.438  1.00  0.00     0.073 A 
HETATM   15  C   UNL     1       3.127  32.418  61.136  1.00  0.00     0.038 A 
HETATM   16  C   UNL     1       2.668  33.347  60.207  1.00  0.00     0.022 A 
HETATM   17  C   UNL     1       3.572  34.207  59.593  1.00  0.00     0.011 A 
HETATM   18 BR   UNL     1       2.955  35.474  58.334  1.00  0.00    -0.051 Br
HETATM   19  C   UNL     1       4.932  34.152  59.908  1.00  0.00     0.030 A 
BRANCH  14  20
HETATM   20  O   UNL     1       4.848  31.399  62.350  1.00  0.00    -0.360 OA
HETATM   21  H   UNL     1       5.770  31.554  62.613  1.00  0.00     0.217 HD
ENDBRANCH  14  20
ENDBRANCH   7  13
BRANCH  11  22
HETATM   22  N   UNL     1       8.903  29.971  61.673  1.00  0.00    -0.282 NA
HETATM   23  H   UNL     1       9.096  29.745  60.700  1.00  0.00     0.126 HD
HETATM   24  H   UNL     1       8.482  29.200  62.184  1.00  0.00     0.126 HD
ENDBRANCH  11  22
BRANCH   1  25
HETATM   25  C   UNL     1       5.513  35.657  63.294  1.00  0.00     0.061 C 
BRANCH  25  26
HETATM   26  C   UNL     1       4.022  35.412  63.540  1.00  0.00     0.002 C 
HETATM   27  C   UNL     1       3.127  36.234  62.623  1.00  0.00     0.005 C 
ENDBRANCH  25  26
ENDBRANCH   1  25
TORSDOF 5
ENDMDL
MODEL 8
REMARK VINA RESULT:      -6.1     10.156     12.634
REMARK  5 active torsions:
REMARK  status: ('A' for Active; 'I' for Inactive)
REMARK    1  A    between atoms: C_2  and  C_3 
REMARK    2  A    between atoms: C_3  and  C_4 
REMARK    3  A    between atoms: C_10  and  C_11 
REMARK    4  A    between atoms: C_12  and  O_13 
REMARK    5  A    between atoms: C_22  and  N_23 
ROOT
HETATM    1  C   UNL     1       5.752  33.117  61.750  1.00  0.00     0.066 A 
HETATM    2  N   UNL     1       5.392  31.826  61.650  1.00  0.00    -0.177 NA
HETATM    3  N   UNL     1       4.191  31.856  61.045  1.00  0.00    -0.256 N 
HETATM    4  H   UNL     1       3.716  30.981  60.854  1.00  0.00     0.191 HD
HETATM    5  C   UNL     1       3.771  33.117  60.778  1.00  0.00     0.175 A 
HETATM    6  C   UNL     1       4.749  33.973  61.222  1.00  0.00     0.035 A 
HETATM    7  C   UNL     1       4.570  35.446  61.045  1.00  0.00     0.107 A 
HETATM    8  C   UNL     1       3.182  35.745  60.470  1.00  0.00     0.067 A 
HETATM    9  C   UNL     1       2.761  37.205  60.414  1.00  0.00     0.020 C 
HETATM   10  N   UNL     1       2.412  38.416  60.365  1.00  0.00    -0.096 N 
HETATM   11  C   UNL     1       2.305  34.780  60.084  1.00  0.00     0.139 A 
HETATM   12  O   UNL     1       2.612  33.414  60.202  1.00  0.00    -0.279 OA
ENDROOT
BRANCH   7  13
HETATM   13  C   UNL     1       4.811  36.089  62.402  1.00  0.00    -0.010 A 
HETATM   14  C   UNL     1       5.572  37.262  62.529  1.00  0.00     0.073 A 
HETATM   15  C   UNL     1       5.708  37.917  63.753  1.00  0.00     0.038 A 
HETATM   16  C   UNL     1       5.102  37.394  64.892  1.00  0.00     0.022 A 
HETATM   17  C   UNL     1       4.357  36.224  64.797  1.00  0.00     0.011 A 
HETATM   18 BR   UNL     1       3.527  35.512  66.338  1.00  0.00    -0.051 Br
HETATM   19  C   UNL     1       4.204  35.577  63.568  1.00  0.00     0.030 A 
BRANCH  14  20
HETATM   20  O   UNL     1       6.211  37.839  61.470  1.00  0.00    -0.360 OA
HETATM   21  H   UNL     1       7.103  37.459  61.400  1.00  0.00     0.217 HD
ENDBRANCH  14  20
ENDBRANCH   7  13
BRANCH  11  22
HETATM   22  N   UNL     1       1.048  34.999  59.572  1.00  0.00    -0.282 NA
HETATM   23  H   UNL     1       0.354  35.352  60.228  1.00  0.00     0.126 HD
HETATM   24  H   UNL     1       0.712  34.212  59.023  1.00  0.00     0.126 HD
ENDBRANCH  11  22
BRANCH   1  25
HETATM   25  C   UNL     1       7.059  33.461  62.390  1.00  0.00     0.061 C 
BRANCH  25  26
HETATM   26  C   UNL     1       7.282  32.795  63.751  1.00  0.00     0.002 C 
HETATM   27  C   UNL     1       7.279  33.787  64.905  1.00  0.00     0.005 C 
ENDBRANCH  25  26
ENDBRANCH   1  25
TORSDOF 5
ENDMDL
MODEL 9
REMARK VINA RESULT:      -6.1      1.920      2.984
REMARK  5 active torsions:
REMARK  status: ('A' for Active; 'I' for Inactive)
REMARK    1  A    between atoms: C_2  and  C_3 
REMARK    2  A    between atoms: C_3  and  C_4 
REMARK    3  A    between atoms: C_10  and  C_11 
REMARK    4  A    between atoms: C_12  and  O_13 
REMARK    5  A    between atoms: C_22  and  N_23 
ROOT
HETATM    1  C   UNL     1       4.042  29.160  54.802  1.00  0.00     0.066 A 
HETATM    2  N   UNL     1       3.662  30.140  53.964  1.00  0.00    -0.177 NA
HETATM    3  N   UNL     1       3.957  29.670  52.738  1.00  0.00    -0.256 N 
HETATM    4  H   UNL     1       3.749  30.245  51.929  1.00  0.00     0.191 HD
HETATM    5  C   UNL     1       4.527  28.441  52.773  1.00  0.00     0.175 A 
HETATM    6  C   UNL     1       4.608  28.067  54.092  1.00  0.00     0.035 A 
HETATM    7  C   UNL     1       5.185  26.735  54.443  1.00  0.00     0.107 A 
HETATM    8  C   UNL     1       5.720  26.042  53.185  1.00  0.00     0.067 A 
HETATM    9  C   UNL     1       6.518  24.764  53.391  1.00  0.00     0.020 C 
HETATM   10  N   UNL     1       7.179  23.704  53.561  1.00  0.00    -0.096 N 
HETATM   11  C   UNL     1       5.575  26.546  51.931  1.00  0.00     0.139 A 
HETATM   12  O   UNL     1       4.925  27.770  51.698  1.00  0.00    -0.279 OA
ENDROOT
BRANCH   7  13
HETATM   13  C   UNL     1       6.253  26.977  55.497  1.00  0.00    -0.010 A 
HETATM   14  C   UNL     1       6.325  26.190  56.658  1.00  0.00     0.073 A 
HETATM   15  C   UNL     1       7.364  26.334  57.577  1.00  0.00     0.038 A 
HETATM   16  C   UNL     1       8.350  27.295  57.367  1.00  0.00     0.022 A 
HETATM   17  C   UNL     1       8.293  28.098  56.233  1.00  0.00     0.011 A 
HETATM   18 BR   UNL     1       9.631  29.401  55.938  1.00  0.00    -0.051 Br
HETATM   19  C   UNL     1       7.264  27.942  55.302  1.00  0.00     0.030 A 
BRANCH  14  20
HETATM   20  O   UNL     1       5.397  25.234  56.953  1.00  0.00    -0.360 OA
HETATM   21  H   UNL     1       4.860  25.541  57.703  1.00  0.00     0.217 HD
ENDBRANCH  14  20
ENDBRANCH   7  13
BRANCH  11  22
HETATM   22  N   UNL     1       6.045  25.966  50.775  1.00  0.00    -0.282 NA
HETATM   23  H   UNL     1       5.399  25.951  49.989  1.00  0.00     0.126 HD
HETATM   24  H   UNL     1       6.483  25.065  50.947  1.00  0.00     0.126 HD
ENDBRANCH  11  22
BRANCH   1  25
HETATM   25  C   UNL     1       3.861  29.350  56.274  1.00  0.00     0.061 C 
BRANCH  25  26
HETATM   26  C   UNL     1       4.317  30.718  56.788  1.00  0.00     0.002 C 
HETATM   27  C   UNL     1       5.805  30.767  57.104  1.00  0.00     0.005 C 
ENDBRANCH  25  26
ENDBRANCH   1  25
TORSDOF 5
ENDMDL
MODEL 10
REMARK VINA RESULT:      -6.1      3.745      5.621
REMARK  5 active torsions:
REMARK  status: ('A' for Active; 'I' for Inactive)
REMARK    1  A    between atoms: C_2  and  C_3 
REMARK    2  A    between atoms: C_3  and  C_4 
REMARK    3  A    between atoms: C_10  and  C_11 
REMARK    4  A    between atoms: C_12  and  O_13 
REMARK    5  A    between atoms: C_22  and  N_23 
ROOT
HETATM    1  C   UNL     1       4.576  29.572  56.165  1.00  0.00     0.066 A 
HETATM    2  N   UNL     1       3.682  29.941  57.098  1.00  0.00    -0.177 NA
HETATM    3  N   UNL     1       4.428  30.367  58.134  1.00  0.00    -0.256 N 
HETATM    4  H   UNL     1       3.963  30.707  58.967  1.00  0.00     0.191 HD
HETATM    5  C   UNL     1       5.758  30.260  57.896  1.00  0.00     0.175 A 
HETATM    6  C   UNL     1       5.906  29.744  56.632  1.00  0.00     0.035 A 
HETATM    7  C   UNL     1       7.279  29.530  56.083  1.00  0.00     0.107 A 
HETATM    8  C   UNL     1       8.331  29.836  57.154  1.00  0.00     0.067 A 
HETATM    9  C   UNL     1       9.772  29.479  56.824  1.00  0.00     0.020 C 
HETATM   10  N   UNL     1      10.967  29.185  56.551  1.00  0.00    -0.096 N 
HETATM   11  C   UNL     1       8.029  30.337  58.381  1.00  0.00     0.139 A 
HETATM   12  O   UNL     1       6.703  30.598  58.766  1.00  0.00    -0.279 OA
ENDROOT
BRANCH   7  13
HETATM   13  C   UNL     1       7.336  28.097  55.577  1.00  0.00    -0.010 A 
HETATM   14  C   UNL     1       7.302  27.806  54.204  1.00  0.00     0.073 A 
HETATM   15  C   UNL     1       7.462  26.504  53.727  1.00  0.00     0.038 A 
HETATM   16  C   UNL     1       7.634  25.452  54.623  1.00  0.00     0.022 A 
HETATM   17  C   UNL     1       7.654  25.712  55.989  1.00  0.00     0.011 A 
HETATM   18 BR   UNL     1       7.894  24.289  57.210  1.00  0.00    -0.051 Br
HETATM   19  C   UNL     1       7.514  27.017  56.467  1.00  0.00     0.030 A 
BRANCH  14  20
HETATM   20  O   UNL     1       7.125  28.770  53.255  1.00  0.00    -0.360 OA
HETATM   21  H   UNL     1       7.234  29.642  53.671  1.00  0.00     0.217 HD
ENDBRANCH  14  20
ENDBRANCH   7  13
BRANCH  11  22
HETATM   22  N   UNL     1       8.936  30.620  59.376  1.00  0.00    -0.282 NA
HETATM   23  H   UNL     1       9.209  31.596  59.467  1.00  0.00     0.126 HD
HETATM   24  H   UNL     1       9.730  29.985  59.366  1.00  0.00     0.126 HD
ENDBRANCH  11  22
BRANCH   1  25
HETATM   25  C   UNL     1       4.085  29.033  54.860  1.00  0.00     0.061 C 
BRANCH  25  26
HETATM   26  C   UNL     1       4.089  30.056  53.721  1.00  0.00     0.002 C 
HETATM   27  C   UNL     1       3.186  31.251  53.994  1.00  0.00     0.005 C 
ENDBRANCH  25  26
ENDBRANCH   1  25
TORSDOF 5
ENDMDL
