MODEL 1
REMARK VINA RESULT:      -9.9      0.000      0.000
REMARK  3 active torsions:
REMARK  status: ('A' for Active; 'I' for Inactive)
REMARK    1  A    between atoms: C_8  and  C_9 
REMARK       I    between atoms: C_9  and  N_10 
REMARK    2  A    between atoms: N_10  and  C_11 
REMARK    3  A    between atoms: C_18  and  C_19 
REMARK       I    between atoms: C_19  and  N_20 
ROOT
HETATM    1  C   UNL     1       8.284  28.418  57.087  1.00  0.00     0.035 A 
HETATM    2  C   UNL     1       7.709  29.337  57.975  1.00  0.00     0.046 A 
HETATM    3  C   UNL     1       8.470  30.437  58.430  1.00  0.00     0.030 A 
HETATM    4  C   UNL     1       9.770  30.591  57.965  1.00  0.00     0.063 A 
HETATM    5  N   UNL     1      10.235  31.730  58.560  1.00  0.00    -0.277 N 
HETATM    6  H   UNL     1      11.150  32.152  58.445  1.00  0.00     0.189 HD
HETATM    7  N   UNL     1       9.362  32.321  59.391  1.00  0.00    -0.168 NA
HETATM    8  C   UNL     1       8.266  31.530  59.326  1.00  0.00     0.156 A 
HETATM    9  C   UNL     1      10.373  29.698  57.079  1.00  0.00     0.034 A 
HETATM   10  C   UNL     1       9.607  28.604  56.660  1.00  0.00     0.032 A 
ENDROOT
BRANCH   1  11
HETATM   11  N   UNL     1       7.618  27.271  56.605  1.00  0.00    -0.327 N 
HETATM   12  C   UNL     1       7.652  25.992  57.129  1.00  0.00     0.231 C 
HETATM   13  O   UNL     1       8.213  25.678  58.178  1.00  0.00    -0.272 OA
HETATM   14  H   UNL     1       7.009  27.429  55.811  1.00  0.00     0.169 HD
BRANCH  12  15
HETATM   15  C   UNL     1       6.959  24.897  56.298  1.00  0.00     0.116 C 
HETATM   16  C   UNL     1       7.006  25.072  54.799  1.00  0.00    -0.012 A 
HETATM   17  C   UNL     1       6.137  25.974  54.163  1.00  0.00     0.011 A 
HETATM   18  C   UNL     1       7.927  24.353  54.029  1.00  0.00     0.075 A 
HETATM   19  C   UNL     1       6.195  26.153  52.780  1.00  0.00     0.001 A 
HETATM   20  C   UNL     1       7.112  25.431  52.022  1.00  0.00     0.003 A 
HETATM   21  C   UNL     1       7.974  24.529  52.645  1.00  0.00     0.037 A 
HETATM   22  O   UNL     1       8.797  23.430  54.538  1.00  0.00    -0.351 OA
HETATM   23  C   UNL     1       8.904  23.387  55.964  1.00  0.00     0.176 C 
HETATM   24  C   UNL     1       7.561  23.537  56.659  1.00  0.00     0.045 C 
ENDBRANCH  12  15
ENDBRANCH   1  11
BRANCH   8  25
HETATM   25  C   UNL     1       7.068  31.824  60.125  1.00  0.00     0.270 C 
HETATM   26  N   UNL     1       7.060  31.230  61.358  1.00  0.00    -0.365 N 
HETATM   27  H   UNL     1       7.841  30.638  61.616  1.00  0.00     0.159 HD
HETATM   28  H   UNL     1       6.265  31.354  61.965  1.00  0.00     0.159 HD
HETATM   29  O   UNL     1       6.132  32.522  59.750  1.00  0.00    -0.266 OA
ENDBRANCH   8  25
TORSDOF 3
ENDMDL
MODEL 2
REMARK VINA RESULT:      -9.4      4.465      7.476
REMARK  3 active torsions:
REMARK  status: ('A' for Active; 'I' for Inactive)
REMARK    1  A    between atoms: C_8  and  C_9 
REMARK       I    between atoms: C_9  and  N_10 
REMARK    2  A    between atoms: N_10  and  C_11 
REMARK    3  A    between atoms: C_18  and  C_19 
REMARK       I    between atoms: C_19  and  N_20 
ROOT
HETATM    1  C   UNL     1       7.186  25.254  52.650  1.00  0.00     0.035 A 
HETATM    2  C   UNL     1       7.101  25.487  54.029  1.00  0.00     0.046 A 
HETATM    3  C   UNL     1       7.576  24.508  54.932  1.00  0.00     0.030 A 
HETATM    4  C   UNL     1       8.137  23.344  54.424  1.00  0.00     0.063 A 
HETATM    5  N   UNL     1       8.509  22.614  55.518  1.00  0.00    -0.277 N 
HETATM    6  H   UNL     1       8.959  21.705  55.525  1.00  0.00     0.189 HD
HETATM    7  N   UNL     1       8.218  23.188  56.696  1.00  0.00    -0.168 NA
HETATM    8  C   UNL     1       7.635  24.359  56.350  1.00  0.00     0.156 A 
HETATM    9  C   UNL     1       8.240  23.080  53.057  1.00  0.00     0.034 A 
HETATM   10  C   UNL     1       7.742  24.054  52.184  1.00  0.00     0.032 A 
ENDROOT
BRANCH   1  11
HETATM   11  N   UNL     1       6.708  26.152  51.672  1.00  0.00    -0.327 N 
HETATM   12  C   UNL     1       5.496  26.111  51.007  1.00  0.00     0.231 C 
HETATM   13  O   UNL     1       4.592  25.311  51.245  1.00  0.00    -0.272 OA
HETATM   14  H   UNL     1       7.313  26.942  51.481  1.00  0.00     0.169 HD
BRANCH  12  15
HETATM   15  C   UNL     1       5.310  27.129  49.869  1.00  0.00     0.116 C 
HETATM   16  C   UNL     1       4.075  26.955  49.017  1.00  0.00    -0.012 A 
HETATM   17  C   UNL     1       4.037  25.970  48.016  1.00  0.00     0.011 A 
HETATM   18  C   UNL     1       2.948  27.757  49.227  1.00  0.00     0.075 A 
HETATM   19  C   UNL     1       2.889  25.792  47.243  1.00  0.00     0.001 A 
HETATM   20  C   UNL     1       1.774  26.597  47.458  1.00  0.00     0.003 A 
HETATM   21  C   UNL     1       1.805  27.582  48.446  1.00  0.00     0.037 A 
HETATM   22  O   UNL     1       2.884  28.762  50.151  1.00  0.00    -0.351 OA
HETATM   23  C   UNL     1       3.960  28.821  51.092  1.00  0.00     0.176 C 
HETATM   24  C   UNL     1       5.313  28.543  50.455  1.00  0.00     0.045 C 
ENDBRANCH  12  15
ENDBRANCH   1  11
BRANCH   8  25
HETATM   25  C   UNL     1       7.139  25.292  57.372  1.00  0.00     0.270 C 
HETATM   26  N   UNL     1       5.778  25.434  57.385  1.00  0.00    -0.365 N 
HETATM   27  H   UNL     1       5.231  24.921  56.703  1.00  0.00     0.159 HD
HETATM   28  H   UNL     1       5.350  26.075  58.034  1.00  0.00     0.159 HD
HETATM   29  O   UNL     1       7.850  25.916  58.153  1.00  0.00    -0.266 OA
ENDBRANCH   8  25
TORSDOF 3
ENDMDL
MODEL 3
REMARK VINA RESULT:      -9.1      5.374      7.884
REMARK  3 active torsions:
REMARK  status: ('A' for Active; 'I' for Inactive)
REMARK    1  A    between atoms: C_8  and  C_9 
REMARK       I    between atoms: C_9  and  N_10 
REMARK    2  A    between atoms: N_10  and  C_11 
REMARK    3  A    between atoms: C_18  and  C_19 
REMARK       I    between atoms: C_19  and  N_20 
ROOT
HETATM    1  C   UNL     1       4.885  26.723  50.661  1.00  0.00     0.035 A 
HETATM    2  C   UNL     1       5.072  28.111  50.619  1.00  0.00     0.046 A 
HETATM    3  C   UNL     1       4.943  28.795  49.389  1.00  0.00     0.030 A 
HETATM    4  C   UNL     1       4.611  28.072  48.251  1.00  0.00     0.063 A 
HETATM    5  N   UNL     1       4.545  28.992  47.243  1.00  0.00    -0.277 N 
HETATM    6  H   UNL     1       4.321  28.820  46.270  1.00  0.00     0.189 HD
HETATM    7  N   UNL     1       4.829  30.250  47.617  1.00  0.00    -0.168 NA
HETATM    8  C   UNL     1       5.083  30.144  48.943  1.00  0.00     0.156 A 
HETATM    9  C   UNL     1       4.414  26.690  48.256  1.00  0.00     0.034 A 
HETATM   10  C   UNL     1       4.571  26.032  49.482  1.00  0.00     0.032 A 
ENDROOT
BRANCH   1  11
HETATM   11  N   UNL     1       5.027  25.947  51.831  1.00  0.00    -0.327 N 
HETATM   12  C   UNL     1       6.154  25.273  52.266  1.00  0.00     0.231 C 
HETATM   13  O   UNL     1       7.258  25.329  51.725  1.00  0.00    -0.272 OA
HETATM   14  H   UNL     1       4.217  25.932  52.438  1.00  0.00     0.169 HD
BRANCH  12  15
HETATM   15  C   UNL     1       5.973  24.368  53.497  1.00  0.00     0.116 C 
HETATM   16  C   UNL     1       7.162  23.520  53.880  1.00  0.00    -0.012 A 
HETATM   17  C   UNL     1       7.448  22.341  53.172  1.00  0.00     0.011 A 
HETATM   18  C   UNL     1       8.003  23.908  54.928  1.00  0.00     0.075 A 
HETATM   19  C   UNL     1       8.560  21.567  53.509  1.00  0.00     0.001 A 
HETATM   20  C   UNL     1       9.390  21.960  54.556  1.00  0.00     0.003 A 
HETATM   21  C   UNL     1       9.109  23.127  55.268  1.00  0.00     0.037 A 
HETATM   22  O   UNL     1       7.804  25.018  55.701  1.00  0.00    -0.351 OA
HETATM   23  C   UNL     1       6.805  25.932  55.241  1.00  0.00     0.176 C 
HETATM   24  C   UNL     1       5.571  25.230  54.697  1.00  0.00     0.045 C 
ENDBRANCH  12  15
ENDBRANCH   1  11
BRANCH   8  25
HETATM   25  C   UNL     1       5.464  31.319  49.739  1.00  0.00     0.270 C 
HETATM   26  N   UNL     1       4.437  31.855  50.468  1.00  0.00    -0.365 N 
HETATM   27  H   UNL     1       3.518  31.433  50.396  1.00  0.00     0.159 HD
HETATM   28  H   UNL     1       4.599  32.681  51.024  1.00  0.00     0.159 HD
HETATM   29  O   UNL     1       6.586  31.812  49.765  1.00  0.00    -0.266 OA
ENDBRANCH   8  25
TORSDOF 3
ENDMDL
MODEL 4
REMARK VINA RESULT:      -8.8      5.250      8.138
REMARK  3 active torsions:
REMARK  status: ('A' for Active; 'I' for Inactive)
REMARK    1  A    between atoms: C_8  and  C_9 
REMARK       I    between atoms: C_9  and  N_10 
REMARK    2  A    between atoms: N_10  and  C_11 
REMARK    3  A    between atoms: C_18  and  C_19 
REMARK       I    between atoms: C_19  and  N_20 
ROOT
HETATM    1  C   UNL     1       7.127  25.452  53.737  1.00  0.00     0.035 A 
HETATM    2  C   UNL     1       7.374  24.077  53.628  1.00  0.00     0.046 A 
HETATM    3  C   UNL     1       7.715  23.337  54.782  1.00  0.00     0.030 A 
HETATM    4  C   UNL     1       7.776  23.992  56.005  1.00  0.00     0.063 A 
HETATM    5  N   UNL     1       8.109  23.030  56.916  1.00  0.00    -0.277 N 
HETATM    6  H   UNL     1       8.236  23.148  57.915  1.00  0.00     0.189 HD
HETATM    7  N   UNL     1       8.294  21.807  56.393  1.00  0.00    -0.168 NA
HETATM    8  C   UNL     1       8.059  21.982  55.071  1.00  0.00     0.156 A 
HETATM    9  C   UNL     1       7.534  25.359  56.150  1.00  0.00     0.034 A 
HETATM   10  C   UNL     1       7.221  26.075  54.989  1.00  0.00     0.032 A 
ENDROOT
BRANCH   1  11
HETATM   11  N   UNL     1       6.815  26.282  52.639  1.00  0.00    -0.327 N 
HETATM   12  C   UNL     1       5.599  26.403  51.990  1.00  0.00     0.231 C 
HETATM   13  O   UNL     1       4.556  25.856  52.345  1.00  0.00    -0.272 OA
HETATM   14  H   UNL     1       7.564  26.890  52.332  1.00  0.00     0.169 HD
BRANCH  12  15
HETATM   15  C   UNL     1       5.592  27.264  50.714  1.00  0.00     0.116 C 
HETATM   16  C   UNL     1       4.395  27.098  49.808  1.00  0.00    -0.012 A 
HETATM   17  C   UNL     1       4.305  25.991  48.948  1.00  0.00     0.011 A 
HETATM   18  C   UNL     1       3.354  28.033  49.827  1.00  0.00     0.075 A 
HETATM   19  C   UNL     1       3.190  25.824  48.126  1.00  0.00     0.001 A 
HETATM   20  C   UNL     1       2.161  26.761  48.151  1.00  0.00     0.003 A 
HETATM   21  C   UNL     1       2.245  27.867  48.997  1.00  0.00     0.037 A 
HETATM   22  O   UNL     1       3.350  29.160  50.601  1.00  0.00    -0.351 OA
HETATM   23  C   UNL     1       4.371  29.241  51.600  1.00  0.00     0.176 C 
HETATM   24  C   UNL     1       5.718  28.739  51.105  1.00  0.00     0.045 C 
ENDBRANCH  12  15
ENDBRANCH   1  11
BRANCH   8  25
HETATM   25  C   UNL     1       8.182  20.865  54.124  1.00  0.00     0.270 C 
HETATM   26  N   UNL     1       8.932  19.819  54.589  1.00  0.00    -0.365 N 
HETATM   27  H   UNL     1       9.348  19.892  55.510  1.00  0.00     0.159 HD
HETATM   28  H   UNL     1       9.094  19.020  53.996  1.00  0.00     0.159 HD
HETATM   29  O   UNL     1       7.685  20.841  53.003  1.00  0.00    -0.266 OA
ENDBRANCH   8  25
TORSDOF 3
ENDMDL
MODEL 5
REMARK VINA RESULT:      -8.7      3.588      4.833
REMARK  3 active torsions:
REMARK  status: ('A' for Active; 'I' for Inactive)
REMARK    1  A    between atoms: C_8  and  C_9 
REMARK       I    between atoms: C_9  and  N_10 
REMARK    2  A    between atoms: N_10  and  C_11 
REMARK    3  A    between atoms: C_18  and  C_19 
REMARK       I    between atoms: C_19  and  N_20 
ROOT
HETATM    1  C   UNL     1       5.314  28.728  54.264  1.00  0.00     0.035 A 
HETATM    2  C   UNL     1       5.056  29.311  55.512  1.00  0.00     0.046 A 
HETATM    3  C   UNL     1       4.032  30.277  55.632  1.00  0.00     0.030 A 
HETATM    4  C   UNL     1       3.289  30.610  54.507  1.00  0.00     0.063 A 
HETATM    5  N   UNL     1       2.383  31.541  54.932  1.00  0.00    -0.277 N 
HETATM    6  H   UNL     1       1.672  32.003  54.377  1.00  0.00     0.189 HD
HETATM    7  N   UNL     1       2.484  31.863  56.231  1.00  0.00    -0.168 NA
HETATM    8  C   UNL     1       3.505  31.094  56.678  1.00  0.00     0.156 A 
HETATM    9  C   UNL     1       3.516  30.048  53.250  1.00  0.00     0.034 A 
HETATM   10  C   UNL     1       4.551  29.110  53.152  1.00  0.00     0.032 A 
ENDROOT
BRANCH   1  11
HETATM   11  N   UNL     1       6.336  27.782  54.036  1.00  0.00    -0.327 N 
HETATM   12  C   UNL     1       6.376  26.464  54.454  1.00  0.00     0.231 C 
HETATM   13  O   UNL     1       5.455  25.880  55.023  1.00  0.00    -0.272 OA
HETATM   14  H   UNL     1       7.101  28.107  53.457  1.00  0.00     0.169 HD
BRANCH  12  15
HETATM   15  C   UNL     1       7.694  25.711  54.204  1.00  0.00     0.116 C 
HETATM   16  C   UNL     1       7.860  24.401  54.936  1.00  0.00    -0.012 A 
HETATM   17  C   UNL     1       8.219  24.388  56.294  1.00  0.00     0.011 A 
HETATM   18  C   UNL     1       7.639  23.186  54.277  1.00  0.00     0.075 A 
HETATM   19  C   UNL     1       8.351  23.179  56.978  1.00  0.00     0.001 A 
HETATM   20  C   UNL     1       8.132  21.975  56.313  1.00  0.00     0.003 A 
HETATM   21  C   UNL     1       7.781  21.979  54.963  1.00  0.00     0.037 A 
HETATM   22  O   UNL     1       7.316  23.080  52.954  1.00  0.00    -0.351 OA
HETATM   23  C   UNL     1       6.967  24.299  52.292  1.00  0.00     0.176 C 
HETATM   24  C   UNL     1       7.854  25.464  52.702  1.00  0.00     0.045 C 
ENDBRANCH  12  15
ENDBRANCH   1  11
BRANCH   8  25
HETATM   25  C   UNL     1       3.957  31.167  58.074  1.00  0.00     0.270 C 
HETATM   26  N   UNL     1       3.345  30.268  58.906  1.00  0.00    -0.365 N 
HETATM   27  H   UNL     1       2.638  29.653  58.520  1.00  0.00     0.159 HD
HETATM   28  H   UNL     1       3.572  30.264  59.888  1.00  0.00     0.159 HD
HETATM   29  O   UNL     1       4.793  31.956  58.498  1.00  0.00    -0.266 OA
ENDBRANCH   8  25
TORSDOF 3
ENDMDL
MODEL 6
REMARK VINA RESULT:      -8.7      2.155      3.672
REMARK  3 active torsions:
REMARK  status: ('A' for Active; 'I' for Inactive)
REMARK    1  A    between atoms: C_8  and  C_9 
REMARK       I    between atoms: C_9  and  N_10 
REMARK    2  A    between atoms: N_10  and  C_11 
REMARK    3  A    between atoms: C_18  and  C_19 
REMARK       I    between atoms: C_19  and  N_20 
ROOT
HETATM    1  C   UNL     1       7.000  27.685  56.095  1.00  0.00     0.035 A 
HETATM    2  C   UNL     1       7.671  28.438  57.067  1.00  0.00     0.046 A 
HETATM    3  C   UNL     1       6.983  29.470  57.745  1.00  0.00     0.030 A 
HETATM    4  C   UNL     1       5.647  29.697  57.443  1.00  0.00     0.063 A 
HETATM    5  N   UNL     1       5.261  30.727  58.255  1.00  0.00    -0.277 N 
HETATM    6  H   UNL     1       4.344  31.155  58.308  1.00  0.00     0.189 HD
HETATM    7  N   UNL     1       6.234  31.208  59.044  1.00  0.00    -0.168 NA
HETATM    8  C   UNL     1       7.309  30.444  58.737  1.00  0.00     0.156 A 
HETATM    9  C   UNL     1       4.948  28.965  56.482  1.00  0.00     0.034 A 
HETATM   10  C   UNL     1       5.656  27.964  55.808  1.00  0.00     0.032 A 
ENDROOT
BRANCH   1  11
HETATM   11  N   UNL     1       7.609  26.659  55.340  1.00  0.00    -0.327 N 
HETATM   12  C   UNL     1       7.493  25.293  55.523  1.00  0.00     0.231 C 
HETATM   13  O   UNL     1       6.746  24.755  56.339  1.00  0.00    -0.272 OA
HETATM   14  H   UNL     1       8.151  26.974  54.545  1.00  0.00     0.169 HD
BRANCH  12  15
HETATM   15  C   UNL     1       8.403  24.410  54.651  1.00  0.00     0.116 C 
HETATM   16  C   UNL     1       8.352  22.926  54.928  1.00  0.00    -0.012 A 
HETATM   17  C   UNL     1       9.039  22.386  56.028  1.00  0.00     0.011 A 
HETATM   18  C   UNL     1       7.606  22.076  54.105  1.00  0.00     0.075 A 
HETATM   19  C   UNL     1       8.974  21.018  56.298  1.00  0.00     0.001 A 
HETATM   20  C   UNL     1       8.231  20.180  55.471  1.00  0.00     0.003 A 
HETATM   21  C   UNL     1       7.552  20.708  54.373  1.00  0.00     0.037 A 
HETATM   22  O   UNL     1       6.924  22.488  52.994  1.00  0.00    -0.351 OA
HETATM   23  C   UNL     1       6.799  23.903  52.821  1.00  0.00     0.176 C 
HETATM   24  C   UNL     1       8.073  24.652  53.176  1.00  0.00     0.045 C 
ENDBRANCH  12  15
ENDBRANCH   1  11
BRANCH   8  25
HETATM   25  C   UNL     1       8.610  30.671  59.380  1.00  0.00     0.270 C 
HETATM   26  N   UNL     1       9.492  31.389  58.618  1.00  0.00    -0.365 N 
HETATM   27  H   UNL     1       9.203  31.687  57.693  1.00  0.00     0.159 HD
HETATM   28  H   UNL     1      10.420  31.570  58.966  1.00  0.00     0.159 HD
HETATM   29  O   UNL     1       8.923  30.258  60.491  1.00  0.00    -0.266 OA
ENDBRANCH   8  25
TORSDOF 3
ENDMDL
MODEL 7
REMARK VINA RESULT:      -8.7      4.857      7.811
REMARK  3 active torsions:
REMARK  status: ('A' for Active; 'I' for Inactive)
REMARK    1  A    between atoms: C_8  and  C_9 
REMARK       I    between atoms: C_9  and  N_10 
REMARK    2  A    between atoms: N_10  and  C_11 
REMARK    3  A    between atoms: C_18  and  C_19 
REMARK       I    between atoms: C_19  and  N_20 
ROOT
HETATM    1  C   UNL     1       5.793  25.422  52.194  1.00  0.00     0.035 A 
HETATM    2  C   UNL     1       5.359  25.611  53.513  1.00  0.00     0.046 A 
HETATM    3  C   UNL     1       6.204  25.243  54.584  1.00  0.00     0.030 A 
HETATM    4  C   UNL     1       7.459  24.720  54.299  1.00  0.00     0.063 A 
HETATM    5  N   UNL     1       8.036  24.479  55.514  1.00  0.00    -0.277 N 
HETATM    6  H   UNL     1       8.960  24.100  55.689  1.00  0.00     0.189 HD
HETATM    7  N   UNL     1       7.260  24.777  56.568  1.00  0.00    -0.168 NA
HETATM    8  C   UNL     1       6.120  25.246  56.009  1.00  0.00     0.156 A 
HETATM    9  C   UNL     1       7.924  24.521  52.998  1.00  0.00     0.034 A 
HETATM   10  C   UNL     1       7.060  24.872  51.954  1.00  0.00     0.032 A 
ENDROOT
BRANCH   1  11
HETATM   11  N   UNL     1       5.009  25.724  51.060  1.00  0.00    -0.327 N 
HETATM   12  C   UNL     1       4.867  26.949  50.433  1.00  0.00     0.231 C 
HETATM   13  O   UNL     1       5.494  27.966  50.728  1.00  0.00    -0.272 OA
HETATM   14  H   UNL     1       4.541  24.932  50.637  1.00  0.00     0.169 HD
BRANCH  12  15
HETATM   15  C   UNL     1       3.814  27.023  49.313  1.00  0.00     0.116 C 
HETATM   16  C   UNL     1       3.128  28.356  49.132  1.00  0.00    -0.012 A 
HETATM   17  C   UNL     1       2.096  28.746  50.000  1.00  0.00     0.011 A 
HETATM   18  C   UNL     1       3.527  29.226  48.110  1.00  0.00     0.075 A 
HETATM   19  C   UNL     1       1.477  29.988  49.848  1.00  0.00     0.001 A 
HETATM   20  C   UNL     1       1.878  30.845  48.827  1.00  0.00     0.003 A 
HETATM   21  C   UNL     1       2.899  30.462  47.956  1.00  0.00     0.037 A 
HETATM   22  O   UNL     1       4.498  28.937  47.193  1.00  0.00    -0.351 OA
HETATM   23  C   UNL     1       5.287  27.774  47.458  1.00  0.00     0.176 C 
HETATM   24  C   UNL     1       4.462  26.613  47.989  1.00  0.00     0.045 C 
ENDBRANCH  12  15
ENDBRANCH   1  11
BRANCH   8  25
HETATM   25  C   UNL     1       4.983  25.666  56.840  1.00  0.00     0.270 C 
HETATM   26  N   UNL     1       4.600  26.966  56.645  1.00  0.00    -0.365 N 
HETATM   27  H   UNL     1       5.118  27.530  55.981  1.00  0.00     0.159 HD
HETATM   28  H   UNL     1       3.846  27.350  57.192  1.00  0.00     0.159 HD
HETATM   29  O   UNL     1       4.412  24.952  57.656  1.00  0.00    -0.266 OA
ENDBRANCH   8  25
TORSDOF 3
ENDMDL
MODEL 8
REMARK VINA RESULT:      -8.6      4.039      6.369
REMARK  3 active torsions:
REMARK  status: ('A' for Active; 'I' for Inactive)
REMARK    1  A    between atoms: C_8  and  C_9 
REMARK       I    between atoms: C_9  and  N_10 
REMARK    2  A    between atoms: N_10  and  C_11 
REMARK    3  A    between atoms: C_18  and  C_19 
REMARK       I    between atoms: C_19  and  N_20 
ROOT
HETATM    1  C   UNL     1       6.904  26.568  53.677  1.00  0.00     0.035 A 
HETATM    2  C   UNL     1       7.127  27.342  54.824  1.00  0.00     0.046 A 
HETATM    3  C   UNL     1       7.343  26.703  56.065  1.00  0.00     0.030 A 
HETATM    4  C   UNL     1       7.349  25.315  56.112  1.00  0.00     0.063 A 
HETATM    5  N   UNL     1       7.593  24.997  57.419  1.00  0.00    -0.277 N 
HETATM    6  H   UNL     1       7.672  24.070  57.820  1.00  0.00     0.189 HD
HETATM    7  N   UNL     1       7.722  26.056  58.235  1.00  0.00    -0.168 NA
HETATM    8  C   UNL     1       7.564  27.119  57.413  1.00  0.00     0.156 A 
HETATM    9  C   UNL     1       7.134  24.513  54.990  1.00  0.00     0.034 A 
HETATM   10  C   UNL     1       6.899  25.170  53.777  1.00  0.00     0.032 A 
ENDROOT
BRANCH   1  11
HETATM   11  N   UNL     1       6.644  27.113  52.402  1.00  0.00    -0.327 N 
HETATM   12  C   UNL     1       5.411  27.365  51.826  1.00  0.00     0.231 C 
HETATM   13  O   UNL     1       4.329  27.232  52.397  1.00  0.00    -0.272 OA
HETATM   14  H   UNL     1       7.464  27.392  51.878  1.00  0.00     0.169 HD
BRANCH  12  15
HETATM   15  C   UNL     1       5.427  27.810  50.353  1.00  0.00     0.116 C 
HETATM   16  C   UNL     1       4.275  27.329  49.502  1.00  0.00    -0.012 A 
HETATM   17  C   UNL     1       4.259  26.014  49.008  1.00  0.00     0.011 A 
HETATM   18  C   UNL     1       3.203  28.180  49.212  1.00  0.00     0.075 A 
HETATM   19  C   UNL     1       3.185  25.561  48.240  1.00  0.00     0.001 A 
HETATM   20  C   UNL     1       2.124  26.417  47.955  1.00  0.00     0.003 A 
HETATM   21  C   UNL     1       2.136  27.726  48.437  1.00  0.00     0.037 A 
HETATM   22  O   UNL     1       3.128  29.484  49.616  1.00  0.00    -0.351 OA
HETATM   23  C   UNL     1       4.103  29.902  50.575  1.00  0.00     0.176 C 
HETATM   24  C   UNL     1       5.486  29.338  50.291  1.00  0.00     0.045 C 
ENDBRANCH  12  15
ENDBRANCH   1  11
BRANCH   8  25
HETATM   25  C   UNL     1       7.613  28.494  57.931  1.00  0.00     0.270 C 
HETATM   26  N   UNL     1       6.407  29.142  57.907  1.00  0.00    -0.365 N 
HETATM   27  H   UNL     1       5.602  28.655  57.531  1.00  0.00     0.159 HD
HETATM   28  H   UNL     1       6.350  30.099  58.217  1.00  0.00     0.159 HD
HETATM   29  O   UNL     1       8.624  29.050  58.343  1.00  0.00    -0.266 OA
ENDBRANCH   8  25
TORSDOF 3
ENDMDL
MODEL 9
REMARK VINA RESULT:      -8.4      5.285      8.383
REMARK  3 active torsions:
REMARK  status: ('A' for Active; 'I' for Inactive)
REMARK    1  A    between atoms: C_8  and  C_9 
REMARK       I    between atoms: C_9  and  N_10 
REMARK    2  A    between atoms: N_10  and  C_11 
REMARK    3  A    between atoms: C_18  and  C_19 
REMARK       I    between atoms: C_19  and  N_20 
ROOT
HETATM    1  C   UNL     1       4.794  26.817  50.154  1.00  0.00     0.035 A 
HETATM    2  C   UNL     1       4.117  28.029  50.342  1.00  0.00     0.046 A 
HETATM    3  C   UNL     1       3.017  28.349  49.514  1.00  0.00     0.030 A 
HETATM    4  C   UNL     1       2.622  27.438  48.543  1.00  0.00     0.063 A 
HETATM    5  N   UNL     1       1.546  28.011  47.925  1.00  0.00    -0.277 N 
HETATM    6  H   UNL     1       0.996  27.623  47.167  1.00  0.00     0.189 HD
HETATM    7  N   UNL     1       1.218  29.227  48.391  1.00  0.00    -0.168 NA
HETATM    8  C   UNL     1       2.124  29.453  49.371  1.00  0.00     0.156 A 
HETATM    9  C   UNL     1       3.271  26.221  48.330  1.00  0.00     0.034 A 
HETATM   10  C   UNL     1       4.371  25.937  49.147  1.00  0.00     0.032 A 
ENDROOT
BRANCH   1  11
HETATM   11  N   UNL     1       5.922  26.424  50.905  1.00  0.00    -0.327 N 
HETATM   12  C   UNL     1       5.943  25.886  52.179  1.00  0.00     0.231 C 
HETATM   13  O   UNL     1       4.944  25.577  52.827  1.00  0.00    -0.272 OA
HETATM   14  H   UNL     1       6.809  26.505  50.423  1.00  0.00     0.169 HD
BRANCH  12  15
HETATM   15  C   UNL     1       7.331  25.706  52.818  1.00  0.00     0.116 C 
HETATM   16  C   UNL     1       7.366  25.656  54.328  1.00  0.00    -0.012 A 
HETATM   17  C   UNL     1       7.278  26.841  55.078  1.00  0.00     0.011 A 
HETATM   18  C   UNL     1       7.467  24.431  54.996  1.00  0.00     0.075 A 
HETATM   19  C   UNL     1       7.288  26.795  56.473  1.00  0.00     0.001 A 
HETATM   20  C   UNL     1       7.391  25.571  57.128  1.00  0.00     0.003 A 
HETATM   21  C   UNL     1       7.486  24.391  56.390  1.00  0.00     0.037 A 
HETATM   22  O   UNL     1       7.588  23.223  54.368  1.00  0.00    -0.351 OA
HETATM   23  C   UNL     1       7.366  23.224  52.955  1.00  0.00     0.176 C 
HETATM   24  C   UNL     1       7.977  24.433  52.265  1.00  0.00     0.045 C 
ENDBRANCH  12  15
ENDBRANCH   1  11
BRANCH   8  25
HETATM   25  C   UNL     1       2.123  30.712  50.130  1.00  0.00     0.270 C 
HETATM   26  N   UNL     1       0.908  31.037  50.670  1.00  0.00    -0.365 N 
HETATM   27  H   UNL     1       0.121  30.421  50.500  1.00  0.00     0.159 HD
HETATM   28  H   UNL     1       0.806  31.897  51.184  1.00  0.00     0.159 HD
HETATM   29  O   UNL     1       3.098  31.440  50.277  1.00  0.00    -0.266 OA
ENDBRANCH   8  25
TORSDOF 3
ENDMDL
MODEL 10
REMARK VINA RESULT:      -8.2      3.808      4.773
REMARK  3 active torsions:
REMARK  status: ('A' for Active; 'I' for Inactive)
REMARK    1  A    between atoms: C_8  and  C_9 
REMARK       I    between atoms: C_9  and  N_10 
REMARK    2  A    between atoms: N_10  and  C_11 
REMARK    3  A    between atoms: C_18  and  C_19 
REMARK       I    between atoms: C_19  and  N_20 
ROOT
HETATM    1  C   UNL     1       4.280  28.618  54.720  1.00  0.00     0.035 A 
HETATM    2  C   UNL     1       4.420  29.796  55.466  1.00  0.00     0.046 A 
HETATM    3  C   UNL     1       4.117  31.040  54.866  1.00  0.00     0.030 A 
HETATM    4  C   UNL     1       3.666  31.059  53.553  1.00  0.00     0.063 A 
HETATM    5  N   UNL     1       3.448  32.377  53.264  1.00  0.00    -0.277 N 
HETATM    6  H   UNL     1       3.108  32.766  52.391  1.00  0.00     0.189 HD
HETATM    7  N   UNL     1       3.739  33.223  54.265  1.00  0.00    -0.168 NA
HETATM    8  C   UNL     1       4.161  32.411  55.263  1.00  0.00     0.156 A 
HETATM    9  C   UNL     1       3.512  29.906  52.782  1.00  0.00     0.034 A 
HETATM   10  C   UNL     1       3.841  28.689  53.391  1.00  0.00     0.032 A 
ENDROOT
BRANCH   1  11
HETATM   11  N   UNL     1       4.591  27.334  55.217  1.00  0.00    -0.327 N 
HETATM   12  C   UNL     1       5.751  26.609  55.016  1.00  0.00     0.231 C 
HETATM   13  O   UNL     1       6.750  27.029  54.433  1.00  0.00    -0.272 OA
HETATM   14  H   UNL     1       3.894  26.930  55.831  1.00  0.00     0.169 HD
BRANCH  12  15
HETATM   15  C   UNL     1       5.749  25.163  55.543  1.00  0.00     0.116 C 
HETATM   16  C   UNL     1       6.820  24.252  54.989  1.00  0.00    -0.012 A 
HETATM   17  C   UNL     1       6.679  23.688  53.711  1.00  0.00     0.011 A 
HETATM   18  C   UNL     1       7.972  23.977  55.734  1.00  0.00     0.075 A 
HETATM   19  C   UNL     1       7.678  22.865  53.189  1.00  0.00     0.001 A 
HETATM   20  C   UNL     1       8.819  22.595  53.939  1.00  0.00     0.003 A 
HETATM   21  C   UNL     1       8.964  23.146  55.212  1.00  0.00     0.037 A 
HETATM   22  O   UNL     1       8.199  24.447  56.997  1.00  0.00    -0.351 OA
HETATM   23  C   UNL     1       7.299  25.457  57.463  1.00  0.00     0.176 C 
HETATM   24  C   UNL     1       5.856  25.185  57.069  1.00  0.00     0.045 C 
ENDBRANCH  12  15
ENDBRANCH   1  11
BRANCH   8  25
HETATM   25  C   UNL     1       4.604  32.959  56.552  1.00  0.00     0.270 C 
HETATM   26  N   UNL     1       4.103  32.299  57.641  1.00  0.00    -0.365 N 
HETATM   27  H   UNL     1       3.471  31.521  57.488  1.00  0.00     0.159 HD
HETATM   28  H   UNL     1       4.331  32.622  58.568  1.00  0.00     0.159 HD
HETATM   29  O   UNL     1       5.345  33.927  56.683  1.00  0.00    -0.266 OA
ENDBRANCH   8  25
TORSDOF 3
ENDMDL
