MODEL 1
REMARK VINA RESULT:      -7.9      0.000      0.000
REMARK  6 active torsions:
REMARK  status: ('A' for Active; 'I' for Inactive)
REMARK    1  A    between atoms: O_2  and  C_3 
REMARK    2  A    between atoms: C_3  and  C_4 
REMARK    3  A    between atoms: C_4  and  N_5 
REMARK       I    between atoms: N_5  and  C_6 
REMARK    4  A    between atoms: C_6  and  C_7 
REMARK    5  A    between atoms: C_12  and  C_13 
REMARK    6  A    between atoms: C_20  and  C_21 
ROOT
HETATM    1  C   UNL     1       4.764  27.448  50.738  1.00  0.00     0.165 A 
HETATM    2  N   UNL     1       5.465  26.325  51.040  1.00  0.00    -0.163 NA
HETATM    3  N   UNL     1       5.462  26.292  52.385  1.00  0.00    -0.238 N 
HETATM    4  C   UNL     1       4.750  27.305  52.965  1.00  0.00     0.141 A 
HETATM    5  N   UNL     1       4.611  27.392  54.310  1.00  0.00    -0.365 N 
HETATM    6  C   UNL     1       5.371  26.544  55.222  1.00  0.00     0.118 C 
HETATM    7  C   UNL     1       5.619  25.170  54.573  1.00  0.00     0.066 C 
HETATM    8  C   UNL     1       6.128  25.234  53.119  1.00  0.00     0.221 C 
HETATM    9  C   UNL     1       4.298  28.071  51.923  1.00  0.00     0.092 A 
HETATM   10 BR   UNL     1       3.277  29.636  52.061  1.00  0.00    -0.044 Br
HETATM   11  H   UNL     1       4.208  28.230  54.729  1.00  0.00     0.162 HD
ENDROOT
BRANCH   1  12
HETATM   12  C   UNL     1       4.587  27.870  49.339  1.00  0.00     0.273 C 
HETATM   13  N   UNL     1       3.268  27.908  48.941  1.00  0.00    -0.353 N 
HETATM   14  H   UNL     1       2.603  27.504  49.597  1.00  0.00     0.162 HD
HETATM   15  O   UNL     1       5.516  28.138  48.580  1.00  0.00    -0.266 OA
BRANCH  13  16
HETATM   16  C   UNL     1       2.883  28.089  47.558  1.00  0.00     0.149 C 
BRANCH  16  17
HETATM   17  C   UNL     1       2.287  26.818  46.947  1.00  0.00     0.186 C 
BRANCH  17  18
HETATM   18  O   UNL     1       3.295  25.802  46.905  1.00  0.00    -0.394 OA
HETATM   19  C   UNL     1       2.974  24.714  47.762  1.00  0.00     0.201 C 
ENDBRANCH  17  18
ENDBRANCH  16  17
ENDBRANCH  13  16
ENDBRANCH   1  12
BRANCH   8  20
HETATM   20  C   UNL     1       7.631  25.372  53.002  1.00  0.00     0.409 C 
HETATM   21  F   UNL     1       8.062  26.646  52.976  1.00  0.00    -0.169 F 
HETATM   22  F   UNL     1       8.239  24.763  54.053  1.00  0.00    -0.169 F 
HETATM   23  F   UNL     1       8.107  24.762  51.891  1.00  0.00    -0.169 F 
ENDBRANCH   8  20
BRANCH   6  24
HETATM   24  C   UNL     1       6.608  27.225  55.782  1.00  0.00    -0.035 A 
HETATM   25  C   UNL     1       7.384  26.547  56.740  1.00  0.00     0.009 A 
HETATM   26  C   UNL     1       8.523  27.137  57.293  1.00  0.00     0.001 A 
HETATM   27  C   UNL     1       8.907  28.416  56.902  1.00  0.00     0.000 A 
HETATM   28  C   UNL     1       8.148  29.107  55.962  1.00  0.00     0.001 A 
HETATM   29  C   UNL     1       7.006  28.520  55.411  1.00  0.00     0.009 A 
ENDBRANCH   6  24
TORSDOF 6
ENDMDL
MODEL 2
REMARK VINA RESULT:      -7.3      1.771      2.197
REMARK  6 active torsions:
REMARK  status: ('A' for Active; 'I' for Inactive)
REMARK    1  A    between atoms: O_2  and  C_3 
REMARK    2  A    between atoms: C_3  and  C_4 
REMARK    3  A    between atoms: C_4  and  N_5 
REMARK       I    between atoms: N_5  and  C_6 
REMARK    4  A    between atoms: C_6  and  C_7 
REMARK    5  A    between atoms: C_12  and  C_13 
REMARK    6  A    between atoms: C_20  and  C_21 
ROOT
HETATM    1  C   UNL     1       5.254  28.637  51.617  1.00  0.00     0.165 A 
HETATM    2  N   UNL     1       5.693  27.389  51.309  1.00  0.00    -0.163 NA
HETATM    3  N   UNL     1       5.529  26.697  52.451  1.00  0.00    -0.238 N 
HETATM    4  C   UNL     1       4.957  27.418  53.462  1.00  0.00     0.141 A 
HETATM    5  N   UNL     1       4.683  26.856  54.664  1.00  0.00    -0.365 N 
HETATM    6  C   UNL     1       5.160  25.525  55.022  1.00  0.00     0.118 C 
HETATM    7  C   UNL     1       5.220  24.637  53.766  1.00  0.00     0.066 C 
HETATM    8  C   UNL     1       5.895  25.297  52.548  1.00  0.00     0.221 C 
HETATM    9  C   UNL     1       4.779  28.677  52.952  1.00  0.00     0.092 A 
HETATM   10 BR   UNL     1       4.061  30.150  53.861  1.00  0.00    -0.044 Br
HETATM   11  H   UNL     1       4.398  27.442  55.449  1.00  0.00     0.162 HD
ENDROOT
BRANCH   1  12
HETATM   12  C   UNL     1       5.321  29.723  50.625  1.00  0.00     0.273 C 
HETATM   13  N   UNL     1       4.160  29.872  49.897  1.00  0.00    -0.353 N 
HETATM   14  H   UNL     1       3.470  29.136  50.022  1.00  0.00     0.162 HD
HETATM   15  O   UNL     1       6.317  30.418  50.435  1.00  0.00    -0.266 OA
BRANCH  13  16
HETATM   16  C   UNL     1       4.083  30.732  48.735  1.00  0.00     0.149 C 
BRANCH  16  17
HETATM   17  C   UNL     1       4.357  29.976  47.432  1.00  0.00     0.186 C 
BRANCH  17  18
HETATM   18  O   UNL     1       4.207  28.571  47.665  1.00  0.00    -0.394 OA
HETATM   19  C   UNL     1       5.384  27.857  47.312  1.00  0.00     0.201 C 
ENDBRANCH  17  18
ENDBRANCH  16  17
ENDBRANCH  13  16
ENDBRANCH   1  12
BRANCH   8  20
HETATM   20  C   UNL     1       7.401  25.142  52.524  1.00  0.00     0.409 C 
HETATM   21  F   UNL     1       7.917  25.011  51.289  1.00  0.00    -0.169 F 
HETATM   22  F   UNL     1       7.992  26.224  53.094  1.00  0.00    -0.169 F 
HETATM   23  F   UNL     1       7.808  24.072  53.247  1.00  0.00    -0.169 F 
ENDBRANCH   8  20
BRANCH   6  24
HETATM   24  C   UNL     1       6.430  25.549  55.856  1.00  0.00    -0.035 A 
HETATM   25  C   UNL     1       7.019  24.328  56.234  1.00  0.00     0.009 A 
HETATM   26  C   UNL     1       8.181  24.299  57.010  1.00  0.00     0.001 A 
HETATM   27  C   UNL     1       8.773  25.488  57.425  1.00  0.00     0.000 A 
HETATM   28  C   UNL     1       8.201  26.705  57.069  1.00  0.00     0.001 A 
HETATM   29  C   UNL     1       7.037  26.735  56.297  1.00  0.00     0.009 A 
ENDBRANCH   6  24
TORSDOF 6
ENDMDL
MODEL 3
REMARK VINA RESULT:      -7.3      9.181     11.601
REMARK  6 active torsions:
REMARK  status: ('A' for Active; 'I' for Inactive)
REMARK    1  A    between atoms: O_2  and  C_3 
REMARK    2  A    between atoms: C_3  and  C_4 
REMARK    3  A    between atoms: C_4  and  N_5 
REMARK       I    between atoms: N_5  and  C_6 
REMARK    4  A    between atoms: C_6  and  C_7 
REMARK    5  A    between atoms: C_12  and  C_13 
REMARK    6  A    between atoms: C_20  and  C_21 
ROOT
HETATM    1  C   UNL     1       6.891  31.773  60.022  1.00  0.00     0.165 A 
HETATM    2  N   UNL     1       7.092  31.587  61.352  1.00  0.00    -0.163 NA
HETATM    3  N   UNL     1       6.126  32.322  61.932  1.00  0.00    -0.238 N 
HETATM    4  C   UNL     1       5.280  32.928  61.046  1.00  0.00     0.141 A 
HETATM    5  N   UNL     1       4.227  33.669  61.467  1.00  0.00    -0.365 N 
HETATM    6  C   UNL     1       4.050  34.034  62.868  1.00  0.00     0.118 C 
HETATM    7  C   UNL     1       4.600  32.915  63.772  1.00  0.00     0.066 C 
HETATM    8  C   UNL     1       5.997  32.402  63.374  1.00  0.00     0.221 C 
HETATM    9  C   UNL     1       5.759  32.598  59.805  1.00  0.00     0.092 A 
HETATM   10 BR   UNL     1       5.050  33.150  58.161  1.00  0.00    -0.044 Br
HETATM   11  H   UNL     1       3.700  34.234  60.800  1.00  0.00     0.162 HD
ENDROOT
BRANCH   1  12
HETATM   12  C   UNL     1       7.796  31.164  59.032  1.00  0.00     0.273 C 
HETATM   13  N   UNL     1       7.441  29.878  58.685  1.00  0.00    -0.353 N 
HETATM   14  H   UNL     1       6.707  29.460  59.252  1.00  0.00     0.162 HD
HETATM   15  O   UNL     1       8.789  31.724  58.573  1.00  0.00    -0.266 OA
BRANCH  13  16
HETATM   16  C   UNL     1       8.304  29.025  57.896  1.00  0.00     0.149 C 
BRANCH  16  17
HETATM   17  C   UNL     1       7.567  27.802  57.344  1.00  0.00     0.186 C 
BRANCH  17  18
HETATM   18  O   UNL     1       7.841  26.672  58.180  1.00  0.00    -0.394 OA
HETATM   19  C   UNL     1       8.220  25.538  57.412  1.00  0.00     0.201 C 
ENDBRANCH  17  18
ENDBRANCH  16  17
ENDBRANCH  13  16
ENDBRANCH   1  12
BRANCH   8  20
HETATM   20  C   UNL     1       7.136  33.206  63.963  1.00  0.00     0.409 C 
HETATM   21  F   UNL     1       8.299  32.534  64.037  1.00  0.00    -0.169 F 
HETATM   22  F   UNL     1       7.360  34.317  63.214  1.00  0.00    -0.169 F 
HETATM   23  F   UNL     1       6.846  33.649  65.209  1.00  0.00    -0.169 F 
ENDBRANCH   8  20
BRANCH   6  24
HETATM   24  C   UNL     1       4.553  35.430  63.192  1.00  0.00    -0.035 A 
HETATM   25  C   UNL     1       5.063  36.229  62.152  1.00  0.00     0.009 A 
HETATM   26  C   UNL     1       5.547  37.515  62.404  1.00  0.00     0.001 A 
HETATM   27  C   UNL     1       5.535  38.026  63.698  1.00  0.00     0.000 A 
HETATM   28  C   UNL     1       5.043  37.248  64.742  1.00  0.00     0.001 A 
HETATM   29  C   UNL     1       4.562  35.960  64.493  1.00  0.00     0.009 A 
ENDBRANCH   6  24
TORSDOF 6
ENDMDL
MODEL 4
REMARK VINA RESULT:      -7.1      4.018      7.574
REMARK  6 active torsions:
REMARK  status: ('A' for Active; 'I' for Inactive)
REMARK    1  A    between atoms: O_2  and  C_3 
REMARK    2  A    between atoms: C_3  and  C_4 
REMARK    3  A    between atoms: C_4  and  N_5 
REMARK       I    between atoms: N_5  and  C_6 
REMARK    4  A    between atoms: C_6  and  C_7 
REMARK    5  A    between atoms: C_12  and  C_13 
REMARK    6  A    between atoms: C_20  and  C_21 
ROOT
HETATM    1  C   UNL     1       5.208  26.112  51.511  1.00  0.00     0.165 A 
HETATM    2  N   UNL     1       5.011  25.626  50.259  1.00  0.00    -0.163 NA
HETATM    3  N   UNL     1       4.914  26.728  49.495  1.00  0.00    -0.238 N 
HETATM    4  C   UNL     1       5.094  27.898  50.179  1.00  0.00     0.141 A 
HETATM    5  N   UNL     1       5.072  29.097  49.548  1.00  0.00    -0.365 N 
HETATM    6  C   UNL     1       4.656  29.231  48.157  1.00  0.00     0.118 C 
HETATM    7  C   UNL     1       5.052  27.968  47.370  1.00  0.00     0.066 C 
HETATM    8  C   UNL     1       4.686  26.642  48.065  1.00  0.00     0.221 C 
HETATM    9  C   UNL     1       5.275  27.528  51.486  1.00  0.00     0.092 A 
HETATM   10 BR   UNL     1       5.544  28.682  52.937  1.00  0.00    -0.044 Br
HETATM   11  H   UNL     1       5.056  29.960  50.092  1.00  0.00     0.162 HD
ENDROOT
BRANCH   1  12
HETATM   12  C   UNL     1       5.312  25.201  52.663  1.00  0.00     0.273 C 
HETATM   13  N   UNL     1       6.606  24.815  52.941  1.00  0.00    -0.353 N 
HETATM   14  H   UNL     1       7.298  25.076  52.244  1.00  0.00     0.162 HD
HETATM   15  O   UNL     1       4.347  24.794  53.306  1.00  0.00    -0.266 OA
BRANCH  13  16
HETATM   16  C   UNL     1       6.912  23.765  53.891  1.00  0.00     0.149 C 
BRANCH  16  17
HETATM   17  C   UNL     1       8.112  22.920  53.457  1.00  0.00     0.186 C 
BRANCH  17  18
HETATM   18  O   UNL     1       7.639  21.711  52.853  1.00  0.00    -0.394 OA
HETATM   19  C   UNL     1       8.408  20.589  53.265  1.00  0.00     0.201 C 
ENDBRANCH  17  18
ENDBRANCH  16  17
ENDBRANCH  13  16
ENDBRANCH   1  12
BRANCH   8  20
HETATM   20  C   UNL     1       3.275  26.171  47.782  1.00  0.00     0.409 C 
HETATM   21  F   UNL     1       2.366  26.599  48.676  1.00  0.00    -0.169 F 
HETATM   22  F   UNL     1       2.873  26.609  46.560  1.00  0.00    -0.169 F 
HETATM   23  F   UNL     1       3.195  24.820  47.739  1.00  0.00    -0.169 F 
ENDBRANCH   8  20
BRANCH   6  24
HETATM   24  C   UNL     1       3.206  29.658  48.003  1.00  0.00    -0.035 A 
HETATM   25  C   UNL     1       2.677  29.820  46.710  1.00  0.00     0.009 A 
HETATM   26  C   UNL     1       1.352  30.222  46.518  1.00  0.00     0.001 A 
HETATM   27  C   UNL     1       0.534  30.473  47.615  1.00  0.00     0.000 A 
HETATM   28  C   UNL     1       1.040  30.327  48.902  1.00  0.00     0.001 A 
HETATM   29  C   UNL     1       2.366  29.929  49.095  1.00  0.00     0.009 A 
ENDBRANCH   6  24
TORSDOF 6
ENDMDL
MODEL 5
REMARK VINA RESULT:      -7.1      9.682     12.016
REMARK  6 active torsions:
REMARK  status: ('A' for Active; 'I' for Inactive)
REMARK    1  A    between atoms: O_2  and  C_3 
REMARK    2  A    between atoms: C_3  and  C_4 
REMARK    3  A    between atoms: C_4  and  N_5 
REMARK       I    between atoms: N_5  and  C_6 
REMARK    4  A    between atoms: C_6  and  C_7 
REMARK    5  A    between atoms: C_12  and  C_13 
REMARK    6  A    between atoms: C_20  and  C_21 
ROOT
HETATM    1  C   UNL     1       6.157  32.321  60.226  1.00  0.00     0.165 A 
HETATM    2  N   UNL     1       6.514  32.027  61.503  1.00  0.00    -0.163 NA
HETATM    3  N   UNL     1       5.670  32.758  62.253  1.00  0.00    -0.238 N 
HETATM    4  C   UNL     1       4.751  33.465  61.528  1.00  0.00     0.141 A 
HETATM    5  N   UNL     1       3.800  34.217  62.133  1.00  0.00    -0.365 N 
HETATM    6  C   UNL     1       3.822  34.483  63.567  1.00  0.00     0.118 C 
HETATM    7  C   UNL     1       4.422  33.277  64.312  1.00  0.00     0.066 C 
HETATM    8  C   UNL     1       5.729  32.735  63.701  1.00  0.00     0.221 C 
HETATM    9  C   UNL     1       5.051  33.208  60.216  1.00  0.00     0.092 A 
HETATM   10 BR   UNL     1       4.170  33.912  58.720  1.00  0.00    -0.044 Br
HETATM   11  H   UNL     1       3.224  34.853  61.581  1.00  0.00     0.162 HD
ENDROOT
BRANCH   1  12
HETATM   12  C   UNL     1       6.895  31.749  59.088  1.00  0.00     0.273 C 
HETATM   13  N   UNL     1       6.144  30.874  58.332  1.00  0.00    -0.353 N 
HETATM   14  H   UNL     1       5.243  30.618  58.728  1.00  0.00     0.162 HD
HETATM   15  O   UNL     1       8.073  31.995  58.840  1.00  0.00    -0.266 OA
BRANCH  13  16
HETATM   16  C   UNL     1       6.730  30.044  57.302  1.00  0.00     0.149 C 
BRANCH  16  17
HETATM   17  C   UNL     1       7.068  28.639  57.808  1.00  0.00     0.186 C 
BRANCH  17  18
HETATM   18  O   UNL     1       8.445  28.601  58.198  1.00  0.00    -0.394 OA
HETATM   19  C   UNL     1       9.294  29.064  57.157  1.00  0.00     0.201 C 
ENDBRANCH  17  18
ENDBRANCH  16  17
ENDBRANCH  13  16
ENDBRANCH   1  12
BRANCH   8  20
HETATM   20  C   UNL     1       6.974  33.442  64.192  1.00  0.00     0.409 C 
HETATM   21  F   UNL     1       7.261  34.571  63.520  1.00  0.00    -0.169 F 
HETATM   22  F   UNL     1       6.835  33.778  65.501  1.00  0.00    -0.169 F 
HETATM   23  F   UNL     1       8.065  32.644  64.126  1.00  0.00    -0.169 F 
ENDBRANCH   8  20
BRANCH   6  24
HETATM   24  C   UNL     1       4.435  35.828  63.918  1.00  0.00    -0.035 A 
HETATM   25  C   UNL     1       4.858  36.676  62.878  1.00  0.00     0.009 A 
HETATM   26  C   UNL     1       5.438  37.918  63.152  1.00  0.00     0.001 A 
HETATM   27  C   UNL     1       5.609  38.333  64.469  1.00  0.00     0.000 A 
HETATM   28  C   UNL     1       5.205  37.505  65.512  1.00  0.00     0.001 A 
HETATM   29  C   UNL     1       4.628  36.262  65.239  1.00  0.00     0.009 A 
ENDBRANCH   6  24
TORSDOF 6
ENDMDL
MODEL 6
REMARK VINA RESULT:      -6.9      4.302      6.245
REMARK  6 active torsions:
REMARK  status: ('A' for Active; 'I' for Inactive)
REMARK    1  A    between atoms: O_2  and  C_3 
REMARK    2  A    between atoms: C_3  and  C_4 
REMARK    3  A    between atoms: C_4  and  N_5 
REMARK       I    between atoms: N_5  and  C_6 
REMARK    4  A    between atoms: C_6  and  C_7 
REMARK    5  A    between atoms: C_12  and  C_13 
REMARK    6  A    between atoms: C_20  and  C_21 
ROOT
HETATM    1  C   UNL     1       7.072  25.377  54.488  1.00  0.00     0.165 A 
HETATM    2  N   UNL     1       7.581  26.146  55.485  1.00  0.00    -0.163 NA
HETATM    3  N   UNL     1       6.566  26.966  55.812  1.00  0.00    -0.238 N 
HETATM    4  C   UNL     1       5.413  26.730  55.117  1.00  0.00     0.141 A 
HETATM    5  N   UNL     1       4.284  27.440  55.357  1.00  0.00    -0.365 N 
HETATM    6  C   UNL     1       4.281  28.620  56.213  1.00  0.00     0.118 C 
HETATM    7  C   UNL     1       5.326  28.456  57.332  1.00  0.00     0.066 C 
HETATM    8  C   UNL     1       6.706  27.969  56.850  1.00  0.00     0.221 C 
HETATM    9  C   UNL     1       5.717  25.715  54.247  1.00  0.00     0.092 A 
HETATM   10 BR   UNL     1       4.559  24.950  52.989  1.00  0.00    -0.044 Br
HETATM   11  H   UNL     1       3.484  27.354  54.729  1.00  0.00     0.162 HD
ENDROOT
BRANCH   1  12
HETATM   12  C   UNL     1       7.909  24.371  53.814  1.00  0.00     0.273 C 
HETATM   13  N   UNL     1       8.170  23.264  54.593  1.00  0.00    -0.353 N 
HETATM   14  H   UNL     1       7.888  23.340  55.567  1.00  0.00     0.162 HD
HETATM   15  O   UNL     1       8.363  24.503  52.679  1.00  0.00    -0.266 OA
BRANCH  13  16
HETATM   16  C   UNL     1       9.138  22.259  54.209  1.00  0.00     0.149 C 
BRANCH  16  17
HETATM   17  C   UNL     1       8.996  20.971  55.025  1.00  0.00     0.186 C 
BRANCH  17  18
HETATM   18  O   UNL     1       8.564  19.914  54.161  1.00  0.00    -0.394 OA
HETATM   19  C   UNL     1       8.419  20.365  52.821  1.00  0.00     0.201 C 
ENDBRANCH  17  18
ENDBRANCH  16  17
ENDBRANCH  13  16
ENDBRANCH   1  12
BRANCH   8  20
HETATM   20  C   UNL     1       7.622  29.083  56.389  1.00  0.00     0.409 C 
HETATM   21  F   UNL     1       8.931  28.812  56.540  1.00  0.00    -0.169 F 
HETATM   22  F   UNL     1       7.415  29.343  55.072  1.00  0.00    -0.169 F 
HETATM   23  F   UNL     1       7.372  30.242  57.042  1.00  0.00    -0.169 F 
ENDBRANCH   8  20
BRANCH   6  24
HETATM   24  C   UNL     1       4.366  29.923  55.437  1.00  0.00    -0.035 A 
HETATM   25  C   UNL     1       4.618  31.118  56.136  1.00  0.00     0.009 A 
HETATM   26  C   UNL     1       4.694  32.342  55.467  1.00  0.00     0.001 A 
HETATM   27  C   UNL     1       4.517  32.396  54.088  1.00  0.00     0.000 A 
HETATM   28  C   UNL     1       4.259  31.227  53.379  1.00  0.00     0.001 A 
HETATM   29  C   UNL     1       4.179  30.003  54.047  1.00  0.00     0.009 A 
ENDBRANCH   6  24
TORSDOF 6
ENDMDL
MODEL 7
REMARK VINA RESULT:      -6.5      9.344     11.691
REMARK  6 active torsions:
REMARK  status: ('A' for Active; 'I' for Inactive)
REMARK    1  A    between atoms: O_2  and  C_3 
REMARK    2  A    between atoms: C_3  and  C_4 
REMARK    3  A    between atoms: C_4  and  N_5 
REMARK       I    between atoms: N_5  and  C_6 
REMARK    4  A    between atoms: C_6  and  C_7 
REMARK    5  A    between atoms: C_12  and  C_13 
REMARK    6  A    between atoms: C_20  and  C_21 
ROOT
HETATM    1  C   UNL     1       4.130  32.239  59.161  1.00  0.00     0.165 A 
HETATM    2  N   UNL     1       3.992  31.948  60.480  1.00  0.00    -0.163 NA
HETATM    3  N   UNL     1       3.580  33.106  61.027  1.00  0.00    -0.238 N 
HETATM    4  C   UNL     1       3.392  34.113  60.122  1.00  0.00     0.141 A 
HETATM    5  N   UNL     1       2.937  35.331  60.504  1.00  0.00    -0.365 N 
HETATM    6  C   UNL     1       2.817  35.706  61.908  1.00  0.00     0.118 C 
HETATM    7  C   UNL     1       2.463  34.466  62.750  1.00  0.00     0.066 C 
HETATM    8  C   UNL     1       3.323  33.223  62.449  1.00  0.00     0.221 C 
HETATM    9  C   UNL     1       3.751  33.582  58.910  1.00  0.00     0.092 A 
HETATM   10 BR   UNL     1       3.746  34.476  57.264  1.00  0.00    -0.044 Br
HETATM   11  H   UNL     1       2.948  36.110  59.844  1.00  0.00     0.162 HD
ENDROOT
BRANCH   1  12
HETATM   12  C   UNL     1       4.625  31.226  58.215  1.00  0.00     0.273 C 
HETATM   13  N   UNL     1       5.926  30.840  58.457  1.00  0.00    -0.353 N 
HETATM   14  H   UNL     1       6.425  31.397  59.147  1.00  0.00     0.162 HD
HETATM   15  O   UNL     1       3.966  30.779  57.279  1.00  0.00    -0.266 OA
BRANCH  13  16
HETATM   16  C   UNL     1       6.675  30.019  57.529  1.00  0.00     0.149 C 
BRANCH  16  17
HETATM   17  C   UNL     1       8.160  29.939  57.890  1.00  0.00     0.186 C 
BRANCH  17  18
HETATM   18  O   UNL     1       8.288  29.686  59.294  1.00  0.00    -0.394 OA
HETATM   19  C   UNL     1       9.097  30.667  59.928  1.00  0.00     0.201 C 
ENDBRANCH  17  18
ENDBRANCH  16  17
ENDBRANCH  13  16
ENDBRANCH   1  12
BRANCH   8  20
HETATM   20  C   UNL     1       4.621  33.173  63.227  1.00  0.00     0.409 C 
HETATM   21  F   UNL     1       5.072  31.927  63.457  1.00  0.00    -0.169 F 
HETATM   22  F   UNL     1       5.596  33.836  62.553  1.00  0.00    -0.169 F 
HETATM   23  F   UNL     1       4.512  33.791  64.427  1.00  0.00    -0.169 F 
ENDBRANCH   8  20
BRANCH   6  24
HETATM   24  C   UNL     1       3.998  36.514  62.416  1.00  0.00    -0.035 A 
HETATM   25  C   UNL     1       4.084  36.807  63.790  1.00  0.00     0.009 A 
HETATM   26  C   UNL     1       5.145  37.557  64.302  1.00  0.00     0.001 A 
HETATM   27  C   UNL     1       6.139  38.032  63.451  1.00  0.00     0.000 A 
HETATM   28  C   UNL     1       6.068  37.761  62.088  1.00  0.00     0.001 A 
HETATM   29  C   UNL     1       5.005  37.014  61.574  1.00  0.00     0.009 A 
ENDBRANCH   6  24
TORSDOF 6
ENDMDL
MODEL 8
REMARK VINA RESULT:      -6.3      4.110      6.397
REMARK  6 active torsions:
REMARK  status: ('A' for Active; 'I' for Inactive)
REMARK    1  A    between atoms: O_2  and  C_3 
REMARK    2  A    between atoms: C_3  and  C_4 
REMARK    3  A    between atoms: C_4  and  N_5 
REMARK       I    between atoms: N_5  and  C_6 
REMARK    4  A    between atoms: C_6  and  C_7 
REMARK    5  A    between atoms: C_12  and  C_13 
REMARK    6  A    between atoms: C_20  and  C_21 
ROOT
HETATM    1  C   UNL     1       6.256  25.040  54.637  1.00  0.00     0.165 A 
HETATM    2  N   UNL     1       6.301  26.104  55.480  1.00  0.00    -0.163 NA
HETATM    3  N   UNL     1       5.397  26.960  54.970  1.00  0.00    -0.238 N 
HETATM    4  C   UNL     1       4.733  26.482  53.875  1.00  0.00     0.141 A 
HETATM    5  N   UNL     1       3.759  27.202  53.268  1.00  0.00    -0.365 N 
HETATM    6  C   UNL     1       3.502  28.596  53.610  1.00  0.00     0.118 C 
HETATM    7  C   UNL     1       3.800  28.832  55.102  1.00  0.00     0.066 C 
HETATM    8  C   UNL     1       5.144  28.249  55.584  1.00  0.00     0.221 C 
HETATM    9  C   UNL     1       5.277  25.247  53.634  1.00  0.00     0.092 A 
HETATM   10 BR   UNL     1       4.813  24.086  52.239  1.00  0.00    -0.044 Br
HETATM   11  H   UNL     1       3.383  26.897  52.370  1.00  0.00     0.162 HD
ENDROOT
BRANCH   1  12
HETATM   12  C   UNL     1       7.157  23.891  54.829  1.00  0.00     0.273 C 
HETATM   13  N   UNL     1       7.925  23.608  53.720  1.00  0.00    -0.353 N 
HETATM   14  H   UNL     1       7.676  24.116  52.875  1.00  0.00     0.162 HD
HETATM   15  O   UNL     1       7.209  23.224  55.859  1.00  0.00    -0.266 OA
BRANCH  13  16
HETATM   16  C   UNL     1       8.718  22.400  53.618  1.00  0.00     0.149 C 
BRANCH  16  17
HETATM   17  C   UNL     1       7.952  21.257  52.947  1.00  0.00     0.186 C 
BRANCH  17  18
HETATM   18  O   UNL     1       8.420  20.009  53.471  1.00  0.00    -0.394 OA
HETATM   19  C   UNL     1       8.804  20.129  54.834  1.00  0.00     0.201 C 
ENDBRANCH  17  18
ENDBRANCH  16  17
ENDBRANCH  13  16
ENDBRANCH   1  12
BRANCH   8  20
HETATM   20  C   UNL     1       6.323  29.176  55.376  1.00  0.00     0.409 C 
HETATM   21  F   UNL     1       6.990  28.961  54.228  1.00  0.00    -0.169 F 
HETATM   22  F   UNL     1       5.904  30.468  55.362  1.00  0.00    -0.169 F 
HETATM   23  F   UNL     1       7.219  29.085  56.387  1.00  0.00    -0.169 F 
ENDBRANCH   8  20
BRANCH   6  24
HETATM   24  C   UNL     1       4.163  29.578  52.658  1.00  0.00    -0.035 A 
HETATM   25  C   UNL     1       3.914  30.954  52.816  1.00  0.00     0.009 A 
HETATM   26  C   UNL     1       4.491  31.894  51.958  1.00  0.00     0.001 A 
HETATM   27  C   UNL     1       5.323  31.477  50.924  1.00  0.00     0.000 A 
HETATM   28  C   UNL     1       5.575  30.120  50.745  1.00  0.00     0.001 A 
HETATM   29  C   UNL     1       4.996  29.179  51.600  1.00  0.00     0.009 A 
ENDBRANCH   6  24
TORSDOF 6
ENDMDL
MODEL 9
REMARK VINA RESULT:      -6.0      3.905      6.993
REMARK  6 active torsions:
REMARK  status: ('A' for Active; 'I' for Inactive)
REMARK    1  A    between atoms: O_2  and  C_3 
REMARK    2  A    between atoms: C_3  and  C_4 
REMARK    3  A    between atoms: C_4  and  N_5 
REMARK       I    between atoms: N_5  and  C_6 
REMARK    4  A    between atoms: C_6  and  C_7 
REMARK    5  A    between atoms: C_12  and  C_13 
REMARK    6  A    between atoms: C_20  and  C_21 
ROOT
HETATM    1  C   UNL     1       5.833  26.533  54.135  1.00  0.00     0.165 A 
HETATM    2  N   UNL     1       4.818  27.383  54.438  1.00  0.00    -0.163 NA
HETATM    3  N   UNL     1       4.326  27.741  53.239  1.00  0.00    -0.238 N 
HETATM    4  C   UNL     1       4.933  27.124  52.181  1.00  0.00     0.141 A 
HETATM    5  N   UNL     1       4.526  27.341  50.907  1.00  0.00    -0.365 N 
HETATM    6  C   UNL     1       3.567  28.386  50.569  1.00  0.00     0.118 C 
HETATM    7  C   UNL     1       2.567  28.570  51.726  1.00  0.00     0.066 C 
HETATM    8  C   UNL     1       3.216  28.666  53.121  1.00  0.00     0.221 C 
HETATM    9  C   UNL     1       5.918  26.347  52.732  1.00  0.00     0.092 A 
HETATM   10 BR   UNL     1       7.133  25.269  51.797  1.00  0.00    -0.044 Br
HETATM   11  H   UNL     1       5.084  26.994  50.126  1.00  0.00     0.162 HD
ENDROOT
BRANCH   1  12
HETATM   12  C   UNL     1       6.672  25.954  55.198  1.00  0.00     0.273 C 
HETATM   13  N   UNL     1       6.670  24.575  55.207  1.00  0.00    -0.353 N 
HETATM   14  H   UNL     1       5.988  24.136  54.594  1.00  0.00     0.162 HD
HETATM   15  O   UNL     1       7.296  26.621  56.020  1.00  0.00    -0.266 OA
BRANCH  13  16
HETATM   16  C   UNL     1       7.252  23.809  56.289  1.00  0.00     0.149 C 
BRANCH  16  17
HETATM   17  C   UNL     1       7.835  22.477  55.811  1.00  0.00     0.186 C 
BRANCH  17  18
HETATM   18  O   UNL     1       7.578  22.329  54.410  1.00  0.00    -0.394 OA
HETATM   19  C   UNL     1       8.772  22.064  53.687  1.00  0.00     0.201 C 
ENDBRANCH  17  18
ENDBRANCH  16  17
ENDBRANCH  13  16
ENDBRANCH   1  12
BRANCH   8  20
HETATM   20  C   UNL     1       3.651  30.065  53.499  1.00  0.00     0.409 C 
HETATM   21  F   UNL     1       3.512  30.347  54.807  1.00  0.00    -0.169 F 
HETATM   22  F   UNL     1       4.960  30.248  53.185  1.00  0.00    -0.169 F 
HETATM   23  F   UNL     1       2.967  31.008  52.808  1.00  0.00    -0.169 F 
ENDBRANCH   8  20
BRANCH   6  24
HETATM   24  C   UNL     1       4.222  29.664  50.075  1.00  0.00    -0.035 A 
HETATM   25  C   UNL     1       3.409  30.695  49.568  1.00  0.00     0.009 A 
HETATM   26  C   UNL     1       3.966  31.884  49.091  1.00  0.00     0.001 A 
HETATM   27  C   UNL     1       5.346  32.065  49.109  1.00  0.00     0.000 A 
HETATM   28  C   UNL     1       6.168  31.054  49.598  1.00  0.00     0.001 A 
HETATM   29  C   UNL     1       5.612  29.863  50.072  1.00  0.00     0.009 A 
ENDBRANCH   6  24
TORSDOF 6
ENDMDL
MODEL 10
REMARK VINA RESULT:      -5.9     11.547     15.044
REMARK  6 active torsions:
REMARK  status: ('A' for Active; 'I' for Inactive)
REMARK    1  A    between atoms: O_2  and  C_3 
REMARK    2  A    between atoms: C_3  and  C_4 
REMARK    3  A    between atoms: C_4  and  N_5 
REMARK       I    between atoms: N_5  and  C_6 
REMARK    4  A    between atoms: C_6  and  C_7 
REMARK    5  A    between atoms: C_12  and  C_13 
REMARK    6  A    between atoms: C_20  and  C_21 
ROOT
HETATM    1  C   UNL     1       6.068  34.115  65.397  1.00  0.00     0.165 A 
HETATM    2  N   UNL     1       7.011  33.325  64.822  1.00  0.00    -0.163 NA
HETATM    3  N   UNL     1       6.825  33.506  63.502  1.00  0.00    -0.238 N 
HETATM    4  C   UNL     1       5.849  34.413  63.196  1.00  0.00     0.141 A 
HETATM    5  N   UNL     1       5.567  34.743  61.913  1.00  0.00    -0.365 N 
HETATM    6  C   UNL     1       6.133  34.013  60.785  1.00  0.00     0.118 C 
HETATM    7  C   UNL     1       7.542  33.507  61.145  1.00  0.00     0.066 C 
HETATM    8  C   UNL     1       7.641  32.818  62.520  1.00  0.00     0.221 C 
HETATM    9  C   UNL     1       5.337  34.813  64.403  1.00  0.00     0.092 A 
HETATM   10 BR   UNL     1       3.939  36.033  64.664  1.00  0.00    -0.044 Br
HETATM   11  H   UNL     1       4.740  35.302  61.699  1.00  0.00     0.162 HD
ENDROOT
BRANCH   1  12
HETATM   12  C   UNL     1       5.909  34.152  66.860  1.00  0.00     0.273 C 
HETATM   13  N   UNL     1       7.036  34.592  67.522  1.00  0.00    -0.353 N 
HETATM   14  H   UNL     1       7.869  34.690  66.947  1.00  0.00     0.162 HD
HETATM   15  O   UNL     1       4.890  33.802  67.450  1.00  0.00    -0.266 OA
BRANCH  13  16
HETATM   16  C   UNL     1       7.170  34.506  68.961  1.00  0.00     0.149 C 
BRANCH  16  17
HETATM   17  C   UNL     1       7.530  35.853  69.594  1.00  0.00     0.186 C 
BRANCH  17  18
HETATM   18  O   UNL     1       8.259  35.621  70.804  1.00  0.00    -0.394 OA
HETATM   19  C   UNL     1       8.459  34.233  71.034  1.00  0.00     0.201 C 
ENDBRANCH  17  18
ENDBRANCH  16  17
ENDBRANCH  13  16
ENDBRANCH   1  12
BRANCH   8  20
HETATM   20  C   UNL     1       7.302  31.343  62.492  1.00  0.00     0.409 C 
HETATM   21  F   UNL     1       8.079  30.588  63.289  1.00  0.00    -0.169 F 
HETATM   22  F   UNL     1       6.016  31.151  62.886  1.00  0.00    -0.169 F 
HETATM   23  F   UNL     1       7.389  30.831  61.241  1.00  0.00    -0.169 F 
ENDBRANCH   8  20
BRANCH   6  24
HETATM   24  C   UNL     1       5.195  32.960  60.221  1.00  0.00    -0.035 A 
HETATM   25  C   UNL     1       5.527  32.332  59.006  1.00  0.00     0.009 A 
HETATM   26  C   UNL     1       4.690  31.366  58.442  1.00  0.00     0.001 A 
HETATM   27  C   UNL     1       3.505  31.011  59.079  1.00  0.00     0.000 A 
HETATM   28  C   UNL     1       3.154  31.627  60.277  1.00  0.00     0.001 A 
HETATM   29  C   UNL     1       3.988  32.597  60.840  1.00  0.00     0.009 A 
ENDBRANCH   6  24
TORSDOF 6
ENDMDL
