MODEL 1
REMARK VINA RESULT:      -9.3      0.000      0.000
REMARK  6 active torsions:
REMARK  status: ('A' for Active; 'I' for Inactive)
REMARK    1  A    between atoms: C_4  and  C_5 
REMARK    2  A    between atoms: C_9  and  N_10 
REMARK       I    between atoms: N_10  and  C_11 
REMARK    3  A    between atoms: C_11  and  C_12 
REMARK    4  A    between atoms: C_12  and  C_13 
REMARK    5  A    between atoms: C_13  and  C_14 
REMARK    6  A    between atoms: C_13  and  C_20 
ROOT
HETATM    1  N   UNL     1       7.686  27.672  55.351  1.00  0.00    -0.312 N 
HETATM    2  C   UNL     1       7.374  26.332  55.441  1.00  0.00     0.224 C 
HETATM    3  O   UNL     1       6.935  25.807  56.468  1.00  0.00    -0.273 OA
HETATM    4  H   UNL     1       8.001  28.070  54.476  1.00  0.00     0.170 HD
ENDROOT
BRANCH   1   5
HETATM    5  C   UNL     1       7.554  28.540  56.418  1.00  0.00     0.132 A 
HETATM    6  N   UNL     1       6.352  28.939  56.938  1.00  0.00    -0.261 N 
HETATM    7  N   UNL     1       6.465  29.792  57.969  1.00  0.00    -0.170 NA
HETATM    8  H   UNL     1       5.431  28.655  56.613  1.00  0.00     0.191 HD
HETATM    9  C   UNL     1       7.789  29.924  58.130  1.00  0.00     0.120 A 
HETATM   10  C   UNL     1       8.526  29.161  57.175  1.00  0.00     0.017 A 
HETATM   11  C   UNL     1      10.001  29.055  57.052  1.00  0.00     0.055 C 
BRANCH   9  12
HETATM   12  C   UNL     1       8.375  30.776  59.210  1.00  0.00     0.106 A 
HETATM   13  O   UNL     1       7.967  30.773  60.518  1.00  0.00    -0.313 OA
HETATM   14  C   UNL     1       8.719  31.692  61.184  1.00  0.00     0.050 A 
HETATM   15  C   UNL     1       8.426  31.859  62.621  1.00  0.00     0.076 C 
HETATM   16  C   UNL     1       9.621  32.280  60.326  1.00  0.00     0.035 A 
HETATM   17  C   UNL     1       9.398  31.692  59.058  1.00  0.00     0.042 A 
ENDBRANCH   9  12
ENDBRANCH   1   5
BRANCH   2  18
HETATM   18  C   UNL     1       7.680  25.470  54.218  1.00  0.00     0.116 C 
BRANCH  18  19
HETATM   19  C   UNL     1       6.741  24.291  53.877  1.00  0.00     0.049 C 
BRANCH  19  20
HETATM   20  C   UNL     1       7.346  22.882  54.036  1.00  0.00    -0.050 A 
HETATM   21  C   UNL     1       7.846  22.122  52.963  1.00  0.00     0.008 A 
HETATM   22  C   UNL     1       8.372  20.840  53.162  1.00  0.00     0.001 A 
HETATM   23  C   UNL     1       8.437  20.299  54.441  1.00  0.00     0.000 A 
HETATM   24  C   UNL     1       7.995  21.048  55.526  1.00  0.00     0.001 A 
HETATM   25  C   UNL     1       7.470  22.327  55.326  1.00  0.00     0.008 A 
ENDBRANCH  19  20
BRANCH  19  26
HETATM   26  C   UNL     1       5.984  24.463  52.559  1.00  0.00    -0.027 C 
HETATM   27  C   UNL     1       4.982  25.314  52.292  1.00  0.00     0.007 C 
ENDBRANCH  19  26
ENDBRANCH  18  19
ENDBRANCH   2  18
TORSDOF 6
ENDMDL
MODEL 2
REMARK VINA RESULT:      -9.1      1.943      9.149
REMARK  6 active torsions:
REMARK  status: ('A' for Active; 'I' for Inactive)
REMARK    1  A    between atoms: C_4  and  C_5 
REMARK    2  A    between atoms: C_9  and  N_10 
REMARK       I    between atoms: N_10  and  C_11 
REMARK    3  A    between atoms: C_11  and  C_12 
REMARK    4  A    between atoms: C_12  and  C_13 
REMARK    5  A    between atoms: C_13  and  C_14 
REMARK    6  A    between atoms: C_13  and  C_20 
ROOT
HETATM    1  N   UNL     1       6.653  27.659  57.332  1.00  0.00    -0.312 N 
HETATM    2  C   UNL     1       6.762  28.956  56.877  1.00  0.00     0.224 C 
HETATM    3  O   UNL     1       6.751  29.256  55.680  1.00  0.00    -0.273 OA
HETATM    4  H   UNL     1       6.621  27.462  58.324  1.00  0.00     0.170 HD
ENDROOT
BRANCH   1   5
HETATM    5  C   UNL     1       6.545  26.578  56.479  1.00  0.00     0.132 A 
HETATM    6  N   UNL     1       5.562  26.441  55.535  1.00  0.00    -0.261 N 
HETATM    7  N   UNL     1       5.650  25.305  54.824  1.00  0.00    -0.170 NA
HETATM    8  H   UNL     1       4.810  27.099  55.348  1.00  0.00     0.191 HD
HETATM    9  C   UNL     1       6.744  24.705  55.315  1.00  0.00     0.120 A 
HETATM   10  C   UNL     1       7.346  25.460  56.366  1.00  0.00     0.017 A 
HETATM   11  C   UNL     1       8.567  25.117  57.137  1.00  0.00     0.055 C 
BRANCH   9  12
HETATM   12  C   UNL     1       7.240  23.400  54.778  1.00  0.00     0.106 A 
HETATM   13  O   UNL     1       7.541  22.303  55.541  1.00  0.00    -0.313 OA
HETATM   14  C   UNL     1       7.978  21.326  54.699  1.00  0.00     0.050 A 
HETATM   15  C   UNL     1       8.374  20.050  55.327  1.00  0.00     0.076 C 
HETATM   16  C   UNL     1       7.948  21.773  53.397  1.00  0.00     0.035 A 
HETATM   17  C   UNL     1       7.475  23.106  53.449  1.00  0.00     0.042 A 
ENDBRANCH   9  12
ENDBRANCH   1   5
BRANCH   2  18
HETATM   18  C   UNL     1       6.993  30.039  57.929  1.00  0.00     0.116 C 
BRANCH  18  19
HETATM   19  C   UNL     1       8.314  30.038  58.730  1.00  0.00     0.049 C 
BRANCH  19  20
HETATM   20  C   UNL     1       8.296  30.820  60.059  1.00  0.00    -0.050 A 
HETATM   21  C   UNL     1       9.138  30.529  61.147  1.00  0.00     0.008 A 
HETATM   22  C   UNL     1       9.070  31.263  62.337  1.00  0.00     0.001 A 
HETATM   23  C   UNL     1       8.179  32.323  62.457  1.00  0.00     0.000 A 
HETATM   24  C   UNL     1       7.369  32.664  61.380  1.00  0.00     0.001 A 
HETATM   25  C   UNL     1       7.438  31.930  60.193  1.00  0.00     0.008 A 
ENDBRANCH  19  20
BRANCH  19  26
HETATM   26  C   UNL     1       9.552  30.340  57.884  1.00  0.00    -0.027 C 
HETATM   27  C   UNL     1      10.309  29.473  57.196  1.00  0.00     0.007 C 
ENDBRANCH  19  26
ENDBRANCH  18  19
ENDBRANCH   2  18
TORSDOF 6
ENDMDL
MODEL 3
REMARK VINA RESULT:      -8.8      4.871      9.337
REMARK  6 active torsions:
REMARK  status: ('A' for Active; 'I' for Inactive)
REMARK    1  A    between atoms: C_4  and  C_5 
REMARK    2  A    between atoms: C_9  and  N_10 
REMARK       I    between atoms: N_10  and  C_11 
REMARK    3  A    between atoms: C_11  and  C_12 
REMARK    4  A    between atoms: C_12  and  C_13 
REMARK    5  A    between atoms: C_13  and  C_14 
REMARK    6  A    between atoms: C_13  and  C_20 
ROOT
HETATM    1  N   UNL     1       6.101  26.310  50.757  1.00  0.00    -0.312 N 
HETATM    2  C   UNL     1       6.074  25.396  51.790  1.00  0.00     0.224 C 
HETATM    3  O   UNL     1       5.046  25.101  52.406  1.00  0.00    -0.273 OA
HETATM    4  H   UNL     1       6.958  26.488  50.249  1.00  0.00     0.170 HD
ENDROOT
BRANCH   1   5
HETATM    5  C   UNL     1       4.975  26.992  50.338  1.00  0.00     0.132 A 
HETATM    6  N   UNL     1       4.216  27.792  51.150  1.00  0.00    -0.261 N 
HETATM    7  N   UNL     1       3.164  28.349  50.529  1.00  0.00    -0.170 NA
HETATM    8  H   UNL     1       4.381  27.979  52.135  1.00  0.00     0.191 HD
HETATM    9  C   UNL     1       3.267  27.908  49.268  1.00  0.00     0.120 A 
HETATM   10  C   UNL     1       4.389  27.043  49.090  1.00  0.00     0.017 A 
HETATM   11  C   UNL     1       4.823  26.376  47.837  1.00  0.00     0.055 C 
BRANCH   9  12
HETATM   12  C   UNL     1       2.299  28.317  48.204  1.00  0.00     0.106 A 
HETATM   13  O   UNL     1       1.444  27.467  47.554  1.00  0.00    -0.313 OA
HETATM   14  C   UNL     1       0.744  28.203  46.648  1.00  0.00     0.050 A 
HETATM   15  C   UNL     1      -0.233  27.467  45.822  1.00  0.00     0.076 C 
HETATM   16  C   UNL     1       1.125  29.525  46.714  1.00  0.00     0.035 A 
HETATM   17  C   UNL     1       2.125  29.597  47.712  1.00  0.00     0.042 A 
ENDBRANCH   9  12
ENDBRANCH   1   5
BRANCH   2  18
HETATM   18  C   UNL     1       7.415  24.805  52.222  1.00  0.00     0.116 C 
BRANCH  18  19
HETATM   19  C   UNL     1       7.446  23.790  53.386  1.00  0.00     0.049 C 
BRANCH  19  20
HETATM   20  C   UNL     1       7.781  24.370  54.776  1.00  0.00    -0.050 A 
HETATM   21  C   UNL     1       8.533  23.684  55.746  1.00  0.00     0.008 A 
HETATM   22  C   UNL     1       8.797  24.253  56.998  1.00  0.00     0.001 A 
HETATM   23  C   UNL     1       8.340  25.531  57.298  1.00  0.00     0.000 A 
HETATM   24  C   UNL     1       7.637  26.251  56.340  1.00  0.00     0.001 A 
HETATM   25  C   UNL     1       7.374  25.682  55.091  1.00  0.00     0.008 A 
ENDBRANCH  19  20
BRANCH  19  26
HETATM   26  C   UNL     1       8.229  22.514  53.075  1.00  0.00    -0.027 C 
HETATM   27  C   UNL     1       7.785  21.249  53.107  1.00  0.00     0.007 C 
ENDBRANCH  19  26
ENDBRANCH  18  19
ENDBRANCH   2  18
TORSDOF 6
ENDMDL
MODEL 4
REMARK VINA RESULT:      -8.8      2.094      9.734
REMARK  6 active torsions:
REMARK  status: ('A' for Active; 'I' for Inactive)
REMARK    1  A    between atoms: C_4  and  C_5 
REMARK    2  A    between atoms: C_9  and  N_10 
REMARK       I    between atoms: N_10  and  C_11 
REMARK    3  A    between atoms: C_11  and  C_12 
REMARK    4  A    between atoms: C_12  and  C_13 
REMARK    5  A    between atoms: C_13  and  C_14 
REMARK    6  A    between atoms: C_13  and  C_20 
ROOT
HETATM    1  N   UNL     1       6.770  29.983  58.560  1.00  0.00    -0.312 N 
HETATM    2  C   UNL     1       6.323  31.260  58.292  1.00  0.00     0.224 C 
HETATM    3  O   UNL     1       5.604  31.538  57.328  1.00  0.00    -0.273 OA
HETATM    4  H   UNL     1       7.321  29.793  59.387  1.00  0.00     0.170 HD
ENDROOT
BRANCH   1   5
HETATM    5  C   UNL     1       6.465  28.904  57.752  1.00  0.00     0.132 A 
HETATM    6  N   UNL     1       5.190  28.484  57.483  1.00  0.00    -0.261 N 
HETATM    7  N   UNL     1       5.133  27.410  56.679  1.00  0.00    -0.170 NA
HETATM    8  H   UNL     1       4.331  28.900  57.834  1.00  0.00     0.191 HD
HETATM    9  C   UNL     1       6.419  27.149  56.404  1.00  0.00     0.120 A 
HETATM   10  C   UNL     1       7.304  28.057  57.059  1.00  0.00     0.017 A 
HETATM   11  C   UNL     1       8.786  28.082  56.985  1.00  0.00     0.055 C 
BRANCH   9  12
HETATM   12  C   UNL     1       6.824  26.030  55.498  1.00  0.00     0.106 A 
HETATM   13  O   UNL     1       7.252  26.184  54.205  1.00  0.00    -0.313 OA
HETATM   14  C   UNL     1       7.505  24.943  53.707  1.00  0.00     0.050 A 
HETATM   15  C   UNL     1       7.967  24.883  52.306  1.00  0.00     0.076 C 
HETATM   16  C   UNL     1       7.261  23.987  54.667  1.00  0.00     0.035 A 
HETATM   17  C   UNL     1       6.822  24.685  55.816  1.00  0.00     0.042 A 
ENDBRANCH   9  12
ENDBRANCH   1   5
BRANCH   2  18
HETATM   18  C   UNL     1       6.834  32.374  59.204  1.00  0.00     0.116 C 
BRANCH  18  19
HETATM   19  C   UNL     1       7.736  32.007  60.404  1.00  0.00     0.049 C 
BRANCH  19  20
HETATM   20  C   UNL     1       7.386  32.692  61.741  1.00  0.00    -0.050 A 
HETATM   21  C   UNL     1       6.349  33.630  61.889  1.00  0.00     0.008 A 
HETATM   22  C   UNL     1       6.083  34.232  63.124  1.00  0.00     0.001 A 
HETATM   23  C   UNL     1       6.829  33.891  64.246  1.00  0.00     0.000 A 
HETATM   24  C   UNL     1       7.829  32.931  64.139  1.00  0.00     0.001 A 
HETATM   25  C   UNL     1       8.093  32.331  62.906  1.00  0.00     0.008 A 
ENDBRANCH  19  20
BRANCH  19  26
HETATM   26  C   UNL     1       9.232  32.050  60.092  1.00  0.00    -0.027 C 
HETATM   27  C   UNL     1       9.840  31.733  58.939  1.00  0.00     0.007 C 
ENDBRANCH  19  26
ENDBRANCH  18  19
ENDBRANCH   2  18
TORSDOF 6
ENDMDL
MODEL 5
REMARK VINA RESULT:      -8.7      2.035      2.545
REMARK  6 active torsions:
REMARK  status: ('A' for Active; 'I' for Inactive)
REMARK    1  A    between atoms: C_4  and  C_5 
REMARK    2  A    between atoms: C_9  and  N_10 
REMARK       I    between atoms: N_10  and  C_11 
REMARK    3  A    between atoms: C_11  and  C_12 
REMARK    4  A    between atoms: C_12  and  C_13 
REMARK    5  A    between atoms: C_13  and  C_14 
REMARK    6  A    between atoms: C_13  and  C_20 
ROOT
HETATM    1  N   UNL     1       8.346  27.236  56.662  1.00  0.00    -0.312 N 
HETATM    2  C   UNL     1       8.107  26.038  57.301  1.00  0.00     0.224 C 
HETATM    3  O   UNL     1       7.711  25.960  58.467  1.00  0.00    -0.273 OA
HETATM    4  H   UNL     1       8.628  27.254  55.690  1.00  0.00     0.170 HD
ENDROOT
BRANCH   1   5
HETATM    5  C   UNL     1       8.182  28.458  57.286  1.00  0.00     0.132 A 
HETATM    6  N   UNL     1       9.217  29.254  57.698  1.00  0.00    -0.261 N 
HETATM    7  N   UNL     1       8.821  30.394  58.288  1.00  0.00    -0.170 NA
HETATM    8  H   UNL     1      10.208  29.053  57.599  1.00  0.00     0.191 HD
HETATM    9  C   UNL     1       7.483  30.334  58.229  1.00  0.00     0.120 A 
HETATM   10  C   UNL     1       7.023  29.132  57.612  1.00  0.00     0.017 A 
HETATM   11  C   UNL     1       5.617  28.725  57.367  1.00  0.00     0.055 C 
BRANCH   9  12
HETATM   12  C   UNL     1       6.617  31.436  58.753  1.00  0.00     0.106 A 
HETATM   13  O   UNL     1       6.614  31.881  60.049  1.00  0.00    -0.313 OA
HETATM   14  C   UNL     1       5.684  32.871  60.139  1.00  0.00     0.050 A 
HETATM   15  C   UNL     1       5.508  33.483  61.471  1.00  0.00     0.076 C 
HETATM   16  C   UNL     1       5.095  33.084  58.913  1.00  0.00     0.035 A 
HETATM   17  C   UNL     1       5.694  32.161  58.023  1.00  0.00     0.042 A 
ENDBRANCH   9  12
ENDBRANCH   1   5
BRANCH   2  18
HETATM   18  C   UNL     1       8.443  24.765  56.526  1.00  0.00     0.116 C 
BRANCH  18  19
HETATM   19  C   UNL     1       7.359  24.123  55.632  1.00  0.00     0.049 C 
BRANCH  19  20
HETATM   20  C   UNL     1       7.706  22.741  55.042  1.00  0.00    -0.050 A 
HETATM   21  C   UNL     1       7.920  21.591  55.824  1.00  0.00     0.008 A 
HETATM   22  C   UNL     1       8.246  20.363  55.237  1.00  0.00     0.001 A 
HETATM   23  C   UNL     1       8.338  20.248  53.855  1.00  0.00     0.000 A 
HETATM   24  C   UNL     1       8.084  21.357  53.056  1.00  0.00     0.001 A 
HETATM   25  C   UNL     1       7.759  22.582  53.643  1.00  0.00     0.008 A 
ENDBRANCH  19  20
BRANCH  19  26
HETATM   26  C   UNL     1       6.768  25.077  54.592  1.00  0.00    -0.027 C 
HETATM   27  C   UNL     1       5.475  25.377  54.394  1.00  0.00     0.007 C 
ENDBRANCH  19  26
ENDBRANCH  18  19
ENDBRANCH   2  18
TORSDOF 6
ENDMDL
MODEL 6
REMARK VINA RESULT:      -8.6      4.346      7.410
REMARK  6 active torsions:
REMARK  status: ('A' for Active; 'I' for Inactive)
REMARK    1  A    between atoms: C_4  and  C_5 
REMARK    2  A    between atoms: C_9  and  N_10 
REMARK       I    between atoms: N_10  and  C_11 
REMARK    3  A    between atoms: C_11  and  C_12 
REMARK    4  A    between atoms: C_12  and  C_13 
REMARK    5  A    between atoms: C_13  and  C_14 
REMARK    6  A    between atoms: C_13  and  C_20 
ROOT
HETATM    1  N   UNL     1       4.920  25.694  54.022  1.00  0.00    -0.312 N 
HETATM    2  C   UNL     1       5.841  25.859  55.036  1.00  0.00     0.224 C 
HETATM    3  O   UNL     1       6.389  26.937  55.282  1.00  0.00    -0.273 OA
HETATM    4  H   UNL     1       4.461  24.803  53.884  1.00  0.00     0.170 HD
ENDROOT
BRANCH   1   5
HETATM    5  C   UNL     1       4.550  26.723  53.179  1.00  0.00     0.132 A 
HETATM    6  N   UNL     1       3.777  27.787  53.560  1.00  0.00    -0.261 N 
HETATM    7  N   UNL     1       3.537  28.663  52.571  1.00  0.00    -0.170 NA
HETATM    8  H   UNL     1       3.389  27.949  54.485  1.00  0.00     0.191 HD
HETATM    9  C   UNL     1       4.201  28.152  51.524  1.00  0.00     0.120 A 
HETATM   10  C   UNL     1       4.854  26.925  51.848  1.00  0.00     0.017 A 
HETATM   11  C   UNL     1       5.685  26.083  50.952  1.00  0.00     0.055 C 
BRANCH   9  12
HETATM   12  C   UNL     1       4.233  28.837  50.195  1.00  0.00     0.106 A 
HETATM   13  O   UNL     1       3.284  28.695  49.217  1.00  0.00    -0.313 OA
HETATM   14  C   UNL     1       3.672  29.454  48.156  1.00  0.00     0.050 A 
HETATM   15  C   UNL     1       2.785  29.430  46.976  1.00  0.00     0.076 C 
HETATM   16  C   UNL     1       4.854  30.099  48.440  1.00  0.00     0.035 A 
HETATM   17  C   UNL     1       5.215  29.701  49.750  1.00  0.00     0.042 A 
ENDBRANCH   9  12
ENDBRANCH   1   5
BRANCH   2  18
HETATM   18  C   UNL     1       6.241  24.608  55.815  1.00  0.00     0.116 C 
BRANCH  18  19
HETATM   19  C   UNL     1       7.679  24.062  55.669  1.00  0.00     0.049 C 
BRANCH  19  20
HETATM   20  C   UNL     1       7.827  22.772  54.836  1.00  0.00    -0.050 A 
HETATM   21  C   UNL     1       7.850  22.751  53.430  1.00  0.00     0.008 A 
HETATM   22  C   UNL     1       7.973  21.549  52.723  1.00  0.00     0.001 A 
HETATM   23  C   UNL     1       8.106  20.345  53.404  1.00  0.00     0.000 A 
HETATM   24  C   UNL     1       8.136  20.342  54.793  1.00  0.00     0.001 A 
HETATM   25  C   UNL     1       8.012  21.542  55.498  1.00  0.00     0.008 A 
ENDBRANCH  19  20
BRANCH  19  26
HETATM   26  C   UNL     1       8.458  24.008  56.984  1.00  0.00    -0.027 C 
HETATM   27  C   UNL     1       8.768  25.029  57.798  1.00  0.00     0.007 C 
ENDBRANCH  19  26
ENDBRANCH  18  19
ENDBRANCH   2  18
TORSDOF 6
ENDMDL
MODEL 7
REMARK VINA RESULT:      -8.5      2.059     10.204
REMARK  6 active torsions:
REMARK  status: ('A' for Active; 'I' for Inactive)
REMARK    1  A    between atoms: C_4  and  C_5 
REMARK    2  A    between atoms: C_9  and  N_10 
REMARK       I    between atoms: N_10  and  C_11 
REMARK    3  A    between atoms: C_11  and  C_12 
REMARK    4  A    between atoms: C_12  and  C_13 
REMARK    5  A    between atoms: C_13  and  C_14 
REMARK    6  A    between atoms: C_13  and  C_20 
ROOT
HETATM    1  N   UNL     1       7.030  30.023  58.751  1.00  0.00    -0.312 N 
HETATM    2  C   UNL     1       7.855  31.111  58.946  1.00  0.00     0.224 C 
HETATM    3  O   UNL     1       8.916  31.273  58.338  1.00  0.00    -0.273 OA
HETATM    4  H   UNL     1       6.146  29.953  59.239  1.00  0.00     0.170 HD
ENDROOT
BRANCH   1   5
HETATM    5  C   UNL     1       7.338  29.006  57.869  1.00  0.00     0.132 A 
HETATM    6  N   UNL     1       8.614  28.612  57.567  1.00  0.00    -0.261 N 
HETATM    7  N   UNL     1       8.674  27.607  56.678  1.00  0.00    -0.170 NA
HETATM    8  H   UNL     1       9.472  29.007  57.943  1.00  0.00     0.191 HD
HETATM    9  C   UNL     1       7.387  27.333  56.420  1.00  0.00     0.120 A 
HETATM   10  C   UNL     1       6.500  28.188  57.139  1.00  0.00     0.017 A 
HETATM   11  C   UNL     1       5.016  28.174  57.112  1.00  0.00     0.055 C 
BRANCH   9  12
HETATM   12  C   UNL     1       6.983  26.237  55.486  1.00  0.00     0.106 A 
HETATM   13  O   UNL     1       5.978  26.327  54.560  1.00  0.00    -0.313 OA
HETATM   14  C   UNL     1       5.899  25.127  53.922  1.00  0.00     0.050 A 
HETATM   15  C   UNL     1       4.858  25.005  52.883  1.00  0.00     0.076 C 
HETATM   16  C   UNL     1       6.853  24.264  54.414  1.00  0.00     0.035 A 
HETATM   17  C   UNL     1       7.548  24.977  55.420  1.00  0.00     0.042 A 
ENDBRANCH   9  12
ENDBRANCH   1   5
BRANCH   2  18
HETATM   18  C   UNL     1       7.446  32.099  60.037  1.00  0.00     0.116 C 
BRANCH  18  19
HETATM   19  C   UNL     1       7.798  31.782  61.507  1.00  0.00     0.049 C 
BRANCH  19  20
HETATM   20  C   UNL     1       7.315  32.809  62.551  1.00  0.00    -0.050 A 
HETATM   21  C   UNL     1       7.719  32.801  63.898  1.00  0.00     0.008 A 
HETATM   22  C   UNL     1       7.239  33.750  64.808  1.00  0.00     0.001 A 
HETATM   23  C   UNL     1       6.366  34.746  64.387  1.00  0.00     0.000 A 
HETATM   24  C   UNL     1       5.987  34.808  63.051  1.00  0.00     0.001 A 
HETATM   25  C   UNL     1       6.467  33.859  62.144  1.00  0.00     0.008 A 
ENDBRANCH  19  20
BRANCH  19  26
HETATM   26  C   UNL     1       9.253  31.364  61.720  1.00  0.00    -0.027 C 
HETATM   27  C   UNL     1       9.712  30.193  62.187  1.00  0.00     0.007 C 
ENDBRANCH  19  26
ENDBRANCH  18  19
ENDBRANCH   2  18
TORSDOF 6
ENDMDL
MODEL 8
REMARK VINA RESULT:      -8.5      5.075      7.385
REMARK  6 active torsions:
REMARK  status: ('A' for Active; 'I' for Inactive)
REMARK    1  A    between atoms: C_4  and  C_5 
REMARK    2  A    between atoms: C_9  and  N_10 
REMARK       I    between atoms: N_10  and  C_11 
REMARK    3  A    between atoms: C_11  and  C_12 
REMARK    4  A    between atoms: C_12  and  C_13 
REMARK    5  A    between atoms: C_13  and  C_14 
REMARK    6  A    between atoms: C_13  and  C_20 
ROOT
HETATM    1  N   UNL     1       4.822  25.891  53.524  1.00  0.00    -0.312 N 
HETATM    2  C   UNL     1       5.742  26.009  54.545  1.00  0.00     0.224 C 
HETATM    3  O   UNL     1       6.161  27.095  54.955  1.00  0.00    -0.273 OA
HETATM    4  H   UNL     1       4.472  24.982  53.249  1.00  0.00     0.170 HD
ENDROOT
BRANCH   1   5
HETATM    5  C   UNL     1       4.308  26.985  52.855  1.00  0.00     0.132 A 
HETATM    6  N   UNL     1       3.413  27.866  53.401  1.00  0.00    -0.261 N 
HETATM    7  N   UNL     1       3.045  28.850  52.565  1.00  0.00    -0.170 NA
HETATM    8  H   UNL     1       3.026  27.827  54.340  1.00  0.00     0.191 HD
HETATM    9  C   UNL     1       3.749  28.602  51.451  1.00  0.00     0.120 A 
HETATM   10  C   UNL     1       4.559  27.434  51.575  1.00  0.00     0.017 A 
HETATM   11  C   UNL     1       5.473  26.859  50.557  1.00  0.00     0.055 C 
BRANCH   9  12
HETATM   12  C   UNL     1       3.668  29.488  50.249  1.00  0.00     0.106 A 
HETATM   13  O   UNL     1       3.146  29.119  49.037  1.00  0.00    -0.313 OA
HETATM   14  C   UNL     1       3.269  30.184  48.197  1.00  0.00     0.050 A 
HETATM   15  C   UNL     1       2.776  29.990  46.819  1.00  0.00     0.076 C 
HETATM   16  C   UNL     1       3.849  31.244  48.855  1.00  0.00     0.035 A 
HETATM   17  C   UNL     1       4.107  30.797  50.173  1.00  0.00     0.042 A 
ENDBRANCH   9  12
ENDBRANCH   1   5
BRANCH   2  18
HETATM   18  C   UNL     1       6.311  24.711  55.113  1.00  0.00     0.116 C 
BRANCH  18  19
HETATM   19  C   UNL     1       7.062  23.745  54.170  1.00  0.00     0.049 C 
BRANCH  19  20
HETATM   20  C   UNL     1       7.652  22.482  54.832  1.00  0.00    -0.050 A 
HETATM   21  C   UNL     1       7.922  22.378  56.209  1.00  0.00     0.008 A 
HETATM   22  C   UNL     1       8.472  21.212  56.756  1.00  0.00     0.001 A 
HETATM   23  C   UNL     1       8.737  20.115  55.946  1.00  0.00     0.000 A 
HETATM   24  C   UNL     1       8.434  20.173  54.590  1.00  0.00     0.001 A 
HETATM   25  C   UNL     1       7.886  21.337  54.045  1.00  0.00     0.008 A 
ENDBRANCH  19  20
BRANCH  19  26
HETATM   26  C   UNL     1       8.052  24.437  53.233  1.00  0.00    -0.027 C 
HETATM   27  C   UNL     1       7.902  24.696  51.925  1.00  0.00     0.007 C 
ENDBRANCH  19  26
ENDBRANCH  18  19
ENDBRANCH   2  18
TORSDOF 6
ENDMDL
MODEL 9
REMARK VINA RESULT:      -8.4      4.553      8.502
REMARK  6 active torsions:
REMARK  status: ('A' for Active; 'I' for Inactive)
REMARK    1  A    between atoms: C_4  and  C_5 
REMARK    2  A    between atoms: C_9  and  N_10 
REMARK       I    between atoms: N_10  and  C_11 
REMARK    3  A    between atoms: C_11  and  C_12 
REMARK    4  A    between atoms: C_12  and  C_13 
REMARK    5  A    between atoms: C_13  and  C_14 
REMARK    6  A    between atoms: C_13  and  C_20 
ROOT
HETATM    1  N   UNL     1       5.636  26.662  52.637  1.00  0.00    -0.312 N 
HETATM    2  C   UNL     1       5.288  25.556  53.384  1.00  0.00     0.224 C 
HETATM    3  O   UNL     1       4.497  24.694  52.990  1.00  0.00    -0.273 OA
HETATM    4  H   UNL     1       6.323  27.320  52.981  1.00  0.00     0.170 HD
ENDROOT
BRANCH   1   5
HETATM    5  C   UNL     1       5.107  26.909  51.385  1.00  0.00     0.132 A 
HETATM    6  N   UNL     1       5.381  26.157  50.274  1.00  0.00    -0.261 N 
HETATM    7  N   UNL     1       4.760  26.587  49.163  1.00  0.00    -0.170 NA
HETATM    8  H   UNL     1       5.990  25.345  50.232  1.00  0.00     0.191 HD
HETATM    9  C   UNL     1       4.044  27.639  49.585  1.00  0.00     0.120 A 
HETATM   10  C   UNL     1       4.229  27.892  50.977  1.00  0.00     0.017 A 
HETATM   11  C   UNL     1       3.596  28.961  51.790  1.00  0.00     0.055 C 
BRANCH   9  12
HETATM   12  C   UNL     1       3.159  28.416  48.663  1.00  0.00     0.106 A 
HETATM   13  O   UNL     1       3.576  29.440  47.855  1.00  0.00    -0.313 OA
HETATM   14  C   UNL     1       2.485  29.906  47.188  1.00  0.00     0.050 A 
HETATM   15  C   UNL     1       2.715  31.034  46.264  1.00  0.00     0.076 C 
HETATM   16  C   UNL     1       1.367  29.184  47.542  1.00  0.00     0.035 A 
HETATM   17  C   UNL     1       1.801  28.228  48.492  1.00  0.00     0.042 A 
ENDBRANCH   9  12
ENDBRANCH   1   5
BRANCH   2  18
HETATM   18  C   UNL     1       5.861  25.471  54.798  1.00  0.00     0.116 C 
BRANCH  18  19
HETATM   19  C   UNL     1       7.305  24.957  54.993  1.00  0.00     0.049 C 
BRANCH  19  20
HETATM   20  C   UNL     1       7.535  23.465  54.677  1.00  0.00    -0.050 A 
HETATM   21  C   UNL     1       7.492  22.447  55.646  1.00  0.00     0.008 A 
HETATM   22  C   UNL     1       7.723  21.109  55.307  1.00  0.00     0.001 A 
HETATM   23  C   UNL     1       7.973  20.753  53.987  1.00  0.00     0.000 A 
HETATM   24  C   UNL     1       7.973  21.732  53.000  1.00  0.00     0.001 A 
HETATM   25  C   UNL     1       7.743  23.068  53.341  1.00  0.00     0.008 A 
ENDBRANCH  19  20
BRANCH  19  26
HETATM   26  C   UNL     1       7.943  25.386  56.315  1.00  0.00    -0.027 C 
HETATM   27  C   UNL     1       7.323  25.701  57.462  1.00  0.00     0.007 C 
ENDBRANCH  19  26
ENDBRANCH  18  19
ENDBRANCH   2  18
TORSDOF 6
ENDMDL
MODEL 10
REMARK VINA RESULT:      -8.4      3.846      4.770
REMARK  6 active torsions:
REMARK  status: ('A' for Active; 'I' for Inactive)
REMARK    1  A    between atoms: C_4  and  C_5 
REMARK    2  A    between atoms: C_9  and  N_10 
REMARK       I    between atoms: N_10  and  C_11 
REMARK    3  A    between atoms: C_11  and  C_12 
REMARK    4  A    between atoms: C_12  and  C_13 
REMARK    5  A    between atoms: C_13  and  C_14 
REMARK    6  A    between atoms: C_13  and  C_20 
ROOT
HETATM    1  N   UNL     1       5.084  26.376  56.196  1.00  0.00    -0.312 N 
HETATM    2  C   UNL     1       6.385  25.931  56.293  1.00  0.00     0.224 C 
HETATM    3  O   UNL     1       7.341  26.678  56.518  1.00  0.00    -0.273 OA
HETATM    4  H   UNL     1       4.325  25.721  56.055  1.00  0.00     0.170 HD
ENDROOT
BRANCH   1   5
HETATM    5  C   UNL     1       4.742  27.708  56.320  1.00  0.00     0.132 A 
HETATM    6  N   UNL     1       4.858  28.425  57.481  1.00  0.00    -0.261 N 
HETATM    7  N   UNL     1       4.460  29.703  57.370  1.00  0.00    -0.170 NA
HETATM    8  H   UNL     1       5.200  28.076  58.373  1.00  0.00     0.191 HD
HETATM    9  C   UNL     1       4.098  29.813  56.084  1.00  0.00     0.120 A 
HETATM   10  C   UNL     1       4.250  28.584  55.375  1.00  0.00     0.017 A 
HETATM   11  C   UNL     1       3.960  28.329  53.942  1.00  0.00     0.055 C 
BRANCH   9  12
HETATM   12  C   UNL     1       3.611  31.104  55.507  1.00  0.00     0.106 A 
HETATM   13  O   UNL     1       2.297  31.485  55.438  1.00  0.00    -0.313 OA
HETATM   14  C   UNL     1       2.255  32.703  54.831  1.00  0.00     0.050 A 
HETATM   15  C   UNL     1       0.915  33.294  54.643  1.00  0.00     0.076 C 
HETATM   16  C   UNL     1       3.529  33.124  54.521  1.00  0.00     0.035 A 
HETATM   17  C   UNL     1       4.399  32.095  54.953  1.00  0.00     0.042 A 
ENDBRANCH   9  12
ENDBRANCH   1   5
BRANCH   2  18
HETATM   18  C   UNL     1       6.629  24.448  56.019  1.00  0.00     0.116 C 
BRANCH  18  19
HETATM   19  C   UNL     1       6.953  23.995  54.577  1.00  0.00     0.049 C 
BRANCH  19  20
HETATM   20  C   UNL     1       7.553  22.581  54.436  1.00  0.00    -0.050 A 
HETATM   21  C   UNL     1       7.844  21.745  55.528  1.00  0.00     0.008 A 
HETATM   22  C   UNL     1       8.401  20.474  55.343  1.00  0.00     0.001 A 
HETATM   23  C   UNL     1       8.654  19.998  54.062  1.00  0.00     0.000 A 
HETATM   24  C   UNL     1       8.330  20.784  52.962  1.00  0.00     0.001 A 
HETATM   25  C   UNL     1       7.775  22.053  53.148  1.00  0.00     0.008 A 
ENDBRANCH  19  20
BRANCH  19  26
HETATM   26  C   UNL     1       7.705  25.041  53.753  1.00  0.00    -0.027 C 
HETATM   27  C   UNL     1       7.472  25.409  52.483  1.00  0.00     0.007 C 
ENDBRANCH  19  26
ENDBRANCH  18  19
ENDBRANCH   2  18
TORSDOF 6
ENDMDL
