MODEL 1
REMARK VINA RESULT:     -11.2      0.000      0.000
REMARK  4 active torsions:
REMARK  status: ('A' for Active; 'I' for Inactive)
REMARK    1  A    between atoms: C_4  and  N_5 
REMARK       I    between atoms: N_5  and  C_6 
REMARK    2  A    between atoms: C_6  and  C_7 
REMARK    3  A    between atoms: C_7  and  N_8 
REMARK    4  A    between atoms: C_12  and  C_13 
ROOT
HETATM    1  N   UNL     1       6.647  27.935  55.488  1.00  0.00    -0.304 N 
HETATM    2  C   UNL     1       6.720  28.668  56.664  1.00  0.00     0.261 C 
HETATM    3  O   UNL     1       7.343  28.338  57.658  1.00  0.00    -0.267 OA
HETATM    4  C   UNL     1       5.796  29.849  56.454  1.00  0.00     0.068 C 
HETATM    5  C   UNL     1       5.788  30.961  57.217  1.00  0.00     0.093 C 
HETATM    6  C   UNL     1       4.915  32.155  56.867  1.00  0.00     0.025 C 
HETATM    7  N   UNL     1       4.190  33.145  56.577  1.00  0.00    -0.096 N 
HETATM    8  C   UNL     1       5.047  29.563  55.210  1.00  0.00     0.008 A 
HETATM    9  C   UNL     1       5.626  28.410  54.655  1.00  0.00     0.049 A 
HETATM   10  C   UNL     1       3.981  30.174  54.566  1.00  0.00     0.015 A 
HETATM   11  C   UNL     1       3.520  29.628  53.362  1.00  0.00     0.001 A 
HETATM   12  C   UNL     1       4.115  28.483  52.815  1.00  0.00     0.002 A 
HETATM   13  C   UNL     1       5.180  27.860  53.464  1.00  0.00     0.030 A 
ENDROOT
BRANCH   5  14
HETATM   14  C   UNL     1       6.698  31.165  58.294  1.00  0.00     0.149 A 
HETATM   15  N   UNL     1       7.997  31.383  58.292  1.00  0.00    -0.228 NA
HETATM   16  C   UNL     1       8.351  31.602  59.600  1.00  0.00     0.086 A 
HETATM   17  C   UNL     1       7.236  31.554  60.426  1.00  0.00     0.062 A 
HETATM   18  C   UNL     1       9.608  31.868  60.161  1.00  0.00     0.034 A 
HETATM   19  N   UNL     1       6.201  31.263  59.577  1.00  0.00    -0.338 N 
HETATM   20  C   UNL     1       7.289  31.777  61.804  1.00  0.00     0.032 A 
HETATM   21  H   UNL     1       5.236  31.161  59.857  1.00  0.00     0.167 HD
HETATM   22  C   UNL     1       8.550  32.050  62.346  1.00  0.00     0.002 A 
HETATM   23  C   UNL     1       9.693  32.089  61.542  1.00  0.00     0.002 A 
ENDBRANCH   5  14
BRANCH   1  24
HETATM   24  C   UNL     1       7.600  26.908  55.134  1.00  0.00     0.235 C 
BRANCH  24  25
HETATM   25  C   UNL     1       7.187  25.485  55.494  1.00  0.00     0.240 C 
HETATM   26  N   UNL     1       8.245  24.594  55.491  1.00  0.00    -0.326 N 
HETATM   27  H   UNL     1       9.183  24.996  55.534  1.00  0.00     0.169 HD
HETATM   28  O   UNL     1       6.002  25.210  55.675  1.00  0.00    -0.271 OA
BRANCH  26  29
HETATM   29  C   UNL     1       8.165  23.190  55.395  1.00  0.00     0.035 A 
HETATM   30  C   UNL     1       8.105  22.502  54.178  1.00  0.00     0.036 A 
HETATM   31  C   UNL     1       8.118  21.098  54.138  1.00  0.00    -0.060 A 
HETATM   32  C   UNL     1       8.151  20.377  52.822  1.00  0.00     0.048 C 
HETATM   33  C   UNL     1       8.186  20.382  55.338  1.00  0.00     0.007 A 
HETATM   34  C   UNL     1       8.234  21.058  56.556  1.00  0.00     0.003 A 
HETATM   35  C   UNL     1       8.234  22.455  56.584  1.00  0.00     0.029 A 
ENDBRANCH  26  29
ENDBRANCH  24  25
ENDBRANCH   1  24
TORSDOF 4
ENDMDL
MODEL 2
REMARK VINA RESULT:     -10.6      2.427      6.656
REMARK  4 active torsions:
REMARK  status: ('A' for Active; 'I' for Inactive)
REMARK    1  A    between atoms: C_4  and  N_5 
REMARK       I    between atoms: N_5  and  C_6 
REMARK    2  A    between atoms: C_6  and  C_7 
REMARK    3  A    between atoms: C_7  and  N_8 
REMARK    4  A    between atoms: C_12  and  C_13 
ROOT
HETATM    1  N   UNL     1       6.124  26.158  55.602  1.00  0.00    -0.304 N 
HETATM    2  C   UNL     1       5.303  27.229  55.279  1.00  0.00     0.261 C 
HETATM    3  O   UNL     1       4.535  27.781  56.047  1.00  0.00    -0.267 OA
HETATM    4  C   UNL     1       5.504  27.450  53.794  1.00  0.00     0.068 C 
HETATM    5  C   UNL     1       5.132  28.561  53.127  1.00  0.00     0.093 C 
HETATM    6  C   UNL     1       5.479  28.758  51.661  1.00  0.00     0.025 C 
HETATM    7  N   UNL     1       5.767  28.921  50.444  1.00  0.00    -0.096 N 
HETATM    8  C   UNL     1       6.279  26.284  53.311  1.00  0.00     0.008 A 
HETATM    9  C   UNL     1       6.651  25.556  54.452  1.00  0.00     0.049 A 
HETATM   10  C   UNL     1       6.659  25.836  52.055  1.00  0.00     0.015 A 
HETATM   11  C   UNL     1       7.424  24.666  51.962  1.00  0.00     0.001 A 
HETATM   12  C   UNL     1       7.797  23.955  53.111  1.00  0.00     0.002 A 
HETATM   13  C   UNL     1       7.408  24.398  54.375  1.00  0.00     0.030 A 
ENDROOT
BRANCH   5  14
HETATM   14  C   UNL     1       4.539  29.686  53.770  1.00  0.00     0.149 A 
HETATM   15  N   UNL     1       3.300  30.133  53.750  1.00  0.00    -0.228 NA
HETATM   16  C   UNL     1       3.261  31.195  54.619  1.00  0.00     0.086 A 
HETATM   17  C   UNL     1       4.499  31.385  55.219  1.00  0.00     0.062 A 
HETATM   18  C   UNL     1       2.197  32.038  54.965  1.00  0.00     0.034 A 
HETATM   19  N   UNL     1       5.297  30.424  54.655  1.00  0.00    -0.338 N 
HETATM   20  C   UNL     1       4.748  32.370  56.177  1.00  0.00     0.032 A 
HETATM   21  H   UNL     1       6.272  30.279  54.877  1.00  0.00     0.167 HD
HETATM   22  C   UNL     1       3.671  33.197  56.517  1.00  0.00     0.002 A 
HETATM   23  C   UNL     1       2.417  33.041  55.919  1.00  0.00     0.002 A 
ENDBRANCH   5  14
BRANCH   1  24
HETATM   24  C   UNL     1       6.481  25.815  56.959  1.00  0.00     0.235 C 
BRANCH  24  25
HETATM   25  C   UNL     1       7.641  26.612  57.548  1.00  0.00     0.240 C 
HETATM   26  N   UNL     1       7.399  27.973  57.593  1.00  0.00    -0.326 N 
HETATM   27  H   UNL     1       6.425  28.268  57.509  1.00  0.00     0.169 HD
HETATM   28  O   UNL     1       8.690  26.046  57.852  1.00  0.00    -0.271 OA
BRANCH  26  29
HETATM   29  C   UNL     1       8.361  28.997  57.704  1.00  0.00     0.035 A 
HETATM   30  C   UNL     1       8.385  29.923  58.753  1.00  0.00     0.036 A 
HETATM   31  C   UNL     1       9.420  30.866  58.863  1.00  0.00    -0.060 A 
HETATM   32  C   UNL     1       9.483  31.789  60.045  1.00  0.00     0.048 C 
HETATM   33  C   UNL     1      10.437  30.878  57.903  1.00  0.00     0.007 A 
HETATM   34  C   UNL     1      10.416  29.967  56.848  1.00  0.00     0.003 A 
HETATM   35  C   UNL     1       9.389  29.025  56.755  1.00  0.00     0.029 A 
ENDBRANCH  26  29
ENDBRANCH  24  25
ENDBRANCH   1  24
TORSDOF 4
ENDMDL
MODEL 3
REMARK VINA RESULT:     -10.5      1.771      2.646
REMARK  4 active torsions:
REMARK  status: ('A' for Active; 'I' for Inactive)
REMARK    1  A    between atoms: C_4  and  N_5 
REMARK       I    between atoms: N_5  and  C_6 
REMARK    2  A    between atoms: C_6  and  C_7 
REMARK    3  A    between atoms: C_7  and  N_8 
REMARK    4  A    between atoms: C_12  and  C_13 
ROOT
HETATM    1  N   UNL     1       6.274  27.377  55.387  1.00  0.00    -0.304 N 
HETATM    2  C   UNL     1       5.522  28.256  56.153  1.00  0.00     0.261 C 
HETATM    3  O   UNL     1       5.485  28.269  57.371  1.00  0.00    -0.267 OA
HETATM    4  C   UNL     1       4.721  29.066  55.156  1.00  0.00     0.068 C 
HETATM    5  C   UNL     1       4.085  30.221  55.441  1.00  0.00     0.093 C 
HETATM    6  C   UNL     1       3.405  31.038  54.355  1.00  0.00     0.025 C 
HETATM    7  N   UNL     1       2.840  31.716  53.455  1.00  0.00    -0.096 N 
HETATM    8  C   UNL     1       4.906  28.398  53.847  1.00  0.00     0.008 A 
HETATM    9  C   UNL     1       5.878  27.405  54.044  1.00  0.00     0.049 A 
HETATM   10  C   UNL     1       4.341  28.567  52.593  1.00  0.00     0.015 A 
HETATM   11  C   UNL     1       4.772  27.745  51.544  1.00  0.00     0.001 A 
HETATM   12  C   UNL     1       5.751  26.765  51.753  1.00  0.00     0.002 A 
HETATM   13  C   UNL     1       6.315  26.585  53.016  1.00  0.00     0.030 A 
ENDROOT
BRANCH   5  14
HETATM   14  C   UNL     1       4.139  30.836  56.724  1.00  0.00     0.149 A 
HETATM   15  N   UNL     1       3.233  30.916  57.678  1.00  0.00    -0.228 NA
HETATM   16  C   UNL     1       3.846  31.539  58.737  1.00  0.00     0.086 A 
HETATM   17  C   UNL     1       5.174  31.817  58.443  1.00  0.00     0.062 A 
HETATM   18  C   UNL     1       3.337  31.886  59.995  1.00  0.00     0.034 A 
HETATM   19  N   UNL     1       5.334  31.373  57.156  1.00  0.00    -0.338 N 
HETATM   20  C   UNL     1       6.055  32.414  59.348  1.00  0.00     0.032 A 
HETATM   21  H   UNL     1       6.196  31.420  56.632  1.00  0.00     0.167 HD
HETATM   22  C   UNL     1       5.531  32.746  60.603  1.00  0.00     0.002 A 
HETATM   23  C   UNL     1       4.194  32.493  60.923  1.00  0.00     0.002 A 
ENDBRANCH   5  14
BRANCH   1  24
HETATM   24  C   UNL     1       7.405  26.642  55.906  1.00  0.00     0.235 C 
BRANCH  24  25
HETATM   25  C   UNL     1       7.151  25.163  56.177  1.00  0.00     0.240 C 
HETATM   26  N   UNL     1       8.230  24.357  55.859  1.00  0.00    -0.326 N 
HETATM   27  H   UNL     1       9.134  24.822  55.759  1.00  0.00     0.169 HD
HETATM   28  O   UNL     1       6.045  24.783  56.558  1.00  0.00    -0.271 OA
BRANCH  26  29
HETATM   29  C   UNL     1       8.205  22.968  55.621  1.00  0.00     0.035 A 
HETATM   30  C   UNL     1       8.121  22.406  54.343  1.00  0.00     0.036 A 
HETATM   31  C   UNL     1       8.191  21.016  54.157  1.00  0.00    -0.060 A 
HETATM   32  C   UNL     1       8.196  20.435  52.773  1.00  0.00     0.048 C 
HETATM   33  C   UNL     1       8.341  20.185  55.272  1.00  0.00     0.007 A 
HETATM   34  C   UNL     1       8.414  20.735  56.551  1.00  0.00     0.003 A 
HETATM   35  C   UNL     1       8.356  22.120  56.723  1.00  0.00     0.029 A 
ENDBRANCH  26  29
ENDBRANCH  24  25
ENDBRANCH   1  24
TORSDOF 4
ENDMDL
MODEL 4
REMARK VINA RESULT:     -10.4      3.139      6.384
REMARK  4 active torsions:
REMARK  status: ('A' for Active; 'I' for Inactive)
REMARK    1  A    between atoms: C_4  and  N_5 
REMARK       I    between atoms: N_5  and  C_6 
REMARK    2  A    between atoms: C_6  and  C_7 
REMARK    3  A    between atoms: C_7  and  N_8 
REMARK    4  A    between atoms: C_12  and  C_13 
ROOT
HETATM    1  N   UNL     1       5.725  27.797  53.969  1.00  0.00    -0.304 N 
HETATM    2  C   UNL     1       6.656  28.295  54.869  1.00  0.00     0.261 C 
HETATM    3  O   UNL     1       6.903  29.475  55.042  1.00  0.00    -0.267 OA
HETATM    4  C   UNL     1       7.328  27.074  55.461  1.00  0.00     0.068 C 
HETATM    5  C   UNL     1       8.082  27.079  56.579  1.00  0.00     0.093 C 
HETATM    6  C   UNL     1       8.621  25.791  57.177  1.00  0.00     0.025 C 
HETATM    7  N   UNL     1       9.068  24.721  57.674  1.00  0.00    -0.096 N 
HETATM    8  C   UNL     1       6.876  25.925  54.643  1.00  0.00     0.008 A 
HETATM    9  C   UNL     1       5.885  26.418  53.780  1.00  0.00     0.049 A 
HETATM   10  C   UNL     1       7.228  24.584  54.591  1.00  0.00     0.015 A 
HETATM   11  C   UNL     1       6.567  23.750  53.679  1.00  0.00     0.001 A 
HETATM   12  C   UNL     1       5.572  24.256  52.830  1.00  0.00     0.002 A 
HETATM   13  C   UNL     1       5.223  25.605  52.875  1.00  0.00     0.030 A 
ENDROOT
BRANCH   5  14
HETATM   14  C   UNL     1       8.291  28.250  57.363  1.00  0.00     0.149 A 
HETATM   15  N   UNL     1       7.696  28.667  58.462  1.00  0.00    -0.228 NA
HETATM   16  C   UNL     1       8.354  29.810  58.844  1.00  0.00     0.086 A 
HETATM   17  C   UNL     1       9.405  30.085  57.980  1.00  0.00     0.062 A 
HETATM   18  C   UNL     1       8.122  30.661  59.933  1.00  0.00     0.034 A 
HETATM   19  N   UNL     1       9.338  29.090  57.041  1.00  0.00    -0.338 N 
HETATM   20  C   UNL     1      10.273  31.167  58.144  1.00  0.00     0.032 A 
HETATM   21  H   UNL     1       9.971  28.989  56.260  1.00  0.00     0.167 HD
HETATM   22  C   UNL     1      10.032  32.001  59.242  1.00  0.00     0.002 A 
HETATM   23  C   UNL     1       8.972  31.759  60.120  1.00  0.00     0.002 A 
ENDBRANCH   5  14
BRANCH   1  24
HETATM   24  C   UNL     1       4.652  28.593  53.418  1.00  0.00     0.235 C 
BRANCH  24  25
HETATM   25  C   UNL     1       4.681  28.764  51.903  1.00  0.00     0.240 C 
HETATM   26  N   UNL     1       3.561  28.248  51.275  1.00  0.00    -0.326 N 
HETATM   27  H   UNL     1       2.744  28.077  51.863  1.00  0.00     0.169 HD
HETATM   28  O   UNL     1       5.670  29.245  51.352  1.00  0.00    -0.271 OA
BRANCH  26  29
HETATM   29  C   UNL     1       3.444  27.895  49.915  1.00  0.00     0.035 A 
HETATM   30  C   UNL     1       2.521  28.482  49.043  1.00  0.00     0.036 A 
HETATM   31  C   UNL     1       2.509  28.159  47.677  1.00  0.00    -0.060 A 
HETATM   32  C   UNL     1       1.577  28.868  46.737  1.00  0.00     0.048 C 
HETATM   33  C   UNL     1       3.433  27.231  47.187  1.00  0.00     0.007 A 
HETATM   34  C   UNL     1       4.349  26.632  48.050  1.00  0.00     0.003 A 
HETATM   35  C   UNL     1       4.361  26.970  49.405  1.00  0.00     0.029 A 
ENDBRANCH  26  29
ENDBRANCH  24  25
ENDBRANCH   1  24
TORSDOF 4
ENDMDL
MODEL 5
REMARK VINA RESULT:     -10.1      2.270      8.303
REMARK  4 active torsions:
REMARK  status: ('A' for Active; 'I' for Inactive)
REMARK    1  A    between atoms: C_4  and  N_5 
REMARK       I    between atoms: N_5  and  C_6 
REMARK    2  A    between atoms: C_6  and  C_7 
REMARK    3  A    between atoms: C_7  and  N_8 
REMARK    4  A    between atoms: C_12  and  C_13 
ROOT
HETATM    1  N   UNL     1       4.504  30.638  56.121  1.00  0.00    -0.304 N 
HETATM    2  C   UNL     1       5.097  29.739  55.247  1.00  0.00     0.261 C 
HETATM    3  O   UNL     1       6.080  29.063  55.496  1.00  0.00    -0.267 OA
HETATM    4  C   UNL     1       4.334  29.885  53.948  1.00  0.00     0.068 C 
HETATM    5  C   UNL     1       4.380  29.004  52.928  1.00  0.00     0.093 C 
HETATM    6  C   UNL     1       3.489  29.160  51.706  1.00  0.00     0.025 C 
HETATM    7  N   UNL     1       2.750  29.289  50.693  1.00  0.00    -0.096 N 
HETATM    8  C   UNL     1       3.477  31.081  54.113  1.00  0.00     0.008 A 
HETATM    9  C   UNL     1       3.598  31.473  55.455  1.00  0.00     0.049 A 
HETATM   10  C   UNL     1       2.660  31.805  53.257  1.00  0.00     0.015 A 
HETATM   11  C   UNL     1       1.962  32.908  53.765  1.00  0.00     0.001 A 
HETATM   12  C   UNL     1       2.085  33.281  55.111  1.00  0.00     0.002 A 
HETATM   13  C   UNL     1       2.913  32.561  55.972  1.00  0.00     0.030 A 
ENDROOT
BRANCH   5  14
HETATM   14  C   UNL     1       5.132  27.796  52.985  1.00  0.00     0.149 A 
HETATM   15  N   UNL     1       6.198  27.414  52.312  1.00  0.00    -0.228 NA
HETATM   16  C   UNL     1       6.564  26.197  52.830  1.00  0.00     0.086 A 
HETATM   17  C   UNL     1       5.723  25.834  53.874  1.00  0.00     0.062 A 
HETATM   18  C   UNL     1       7.617  25.344  52.473  1.00  0.00     0.034 A 
HETATM   19  N   UNL     1       4.815  26.858  53.945  1.00  0.00    -0.338 N 
HETATM   20  C   UNL     1       5.878  24.660  54.616  1.00  0.00     0.032 A 
HETATM   21  H   UNL     1       4.057  26.912  54.611  1.00  0.00     0.167 HD
HETATM   22  C   UNL     1       6.941  23.826  54.250  1.00  0.00     0.002 A 
HETATM   23  C   UNL     1       7.794  24.156  53.194  1.00  0.00     0.002 A 
ENDBRANCH   5  14
BRANCH   1  24
HETATM   24  C   UNL     1       4.708  30.604  57.552  1.00  0.00     0.235 C 
BRANCH  24  25
HETATM   25  C   UNL     1       5.861  31.460  58.065  1.00  0.00     0.240 C 
HETATM   26  N   UNL     1       6.775  30.748  58.819  1.00  0.00    -0.326 N 
HETATM   27  H   UNL     1       6.754  29.731  58.724  1.00  0.00     0.169 HD
HETATM   28  O   UNL     1       5.869  32.674  57.863  1.00  0.00    -0.271 OA
BRANCH  26  29
HETATM   29  C   UNL     1       7.707  31.276  59.735  1.00  0.00     0.035 A 
HETATM   30  C   UNL     1       7.373  31.665  61.037  1.00  0.00     0.036 A 
HETATM   31  C   UNL     1       8.359  32.099  61.938  1.00  0.00    -0.060 A 
HETATM   32  C   UNL     1       7.998  32.420  63.360  1.00  0.00     0.048 C 
HETATM   33  C   UNL     1       9.692  32.148  61.520  1.00  0.00     0.007 A 
HETATM   34  C   UNL     1      10.033  31.774  60.221  1.00  0.00     0.003 A 
HETATM   35  C   UNL     1       9.047  31.331  59.336  1.00  0.00     0.029 A 
ENDBRANCH  26  29
ENDBRANCH  24  25
ENDBRANCH   1  24
TORSDOF 4
ENDMDL
MODEL 6
REMARK VINA RESULT:     -10.0      4.396      5.977
REMARK  4 active torsions:
REMARK  status: ('A' for Active; 'I' for Inactive)
REMARK    1  A    between atoms: C_4  and  N_5 
REMARK       I    between atoms: N_5  and  C_6 
REMARK    2  A    between atoms: C_6  and  C_7 
REMARK    3  A    between atoms: C_7  and  N_8 
REMARK    4  A    between atoms: C_12  and  C_13 
ROOT
HETATM    1  N   UNL     1       4.667  27.146  50.586  1.00  0.00    -0.304 N 
HETATM    2  C   UNL     1       4.224  28.197  51.376  1.00  0.00     0.261 C 
HETATM    3  O   UNL     1       4.549  28.389  52.535  1.00  0.00    -0.267 OA
HETATM    4  C   UNL     1       3.209  28.933  50.526  1.00  0.00     0.068 C 
HETATM    5  C   UNL     1       2.750  30.174  50.783  1.00  0.00     0.093 C 
HETATM    6  C   UNL     1       1.824  30.892  49.815  1.00  0.00     0.025 C 
HETATM    7  N   UNL     1       1.056  31.488  49.011  1.00  0.00    -0.096 N 
HETATM    8  C   UNL     1       2.962  28.069  49.349  1.00  0.00     0.008 A 
HETATM    9  C   UNL     1       3.894  27.021  49.424  1.00  0.00     0.049 A 
HETATM   10  C   UNL     1       2.062  28.113  48.296  1.00  0.00     0.015 A 
HETATM   11  C   UNL     1       2.118  27.110  47.319  1.00  0.00     0.001 A 
HETATM   12  C   UNL     1       3.061  26.076  47.403  1.00  0.00     0.002 A 
HETATM   13  C   UNL     1       3.962  26.023  48.466  1.00  0.00     0.030 A 
ENDROOT
BRANCH   5  14
HETATM   14  C   UNL     1       3.214  30.958  51.878  1.00  0.00     0.149 A 
HETATM   15  N   UNL     1       4.028  31.994  51.909  1.00  0.00    -0.228 NA
HETATM   16  C   UNL     1       4.058  32.419  53.214  1.00  0.00     0.086 A 
HETATM   17  C   UNL     1       3.212  31.649  54.002  1.00  0.00     0.062 A 
HETATM   18  C   UNL     1       4.771  33.472  53.803  1.00  0.00     0.034 A 
HETATM   19  N   UNL     1       2.698  30.721  53.135  1.00  0.00    -0.338 N 
HETATM   20  C   UNL     1       3.011  31.876  55.365  1.00  0.00     0.032 A 
HETATM   21  H   UNL     1       2.035  30.001  53.386  1.00  0.00     0.167 HD
HETATM   22  C   UNL     1       3.725  32.937  55.934  1.00  0.00     0.002 A 
HETATM   23  C   UNL     1       4.595  33.720  55.171  1.00  0.00     0.002 A 
ENDBRANCH   5  14
BRANCH   1  24
HETATM   24  C   UNL     1       5.859  26.383  50.878  1.00  0.00     0.235 C 
BRANCH  24  25
HETATM   25  C   UNL     1       5.700  25.317  51.956  1.00  0.00     0.240 C 
HETATM   26  N   UNL     1       6.874  25.054  52.640  1.00  0.00    -0.326 N 
HETATM   27  H   UNL     1       7.614  25.755  52.566  1.00  0.00     0.169 HD
HETATM   28  O   UNL     1       4.629  24.728  52.094  1.00  0.00    -0.271 OA
BRANCH  26  29
HETATM   29  C   UNL     1       7.171  23.901  53.395  1.00  0.00     0.035 A 
HETATM   30  C   UNL     1       7.676  22.722  52.836  1.00  0.00     0.036 A 
HETATM   31  C   UNL     1       8.040  21.635  53.647  1.00  0.00    -0.060 A 
HETATM   32  C   UNL     1       8.670  20.415  53.041  1.00  0.00     0.048 C 
HETATM   33  C   UNL     1       7.887  21.736  55.033  1.00  0.00     0.007 A 
HETATM   34  C   UNL     1       7.373  22.903  55.598  1.00  0.00     0.003 A 
HETATM   35  C   UNL     1       7.026  23.983  54.784  1.00  0.00     0.029 A 
ENDBRANCH  26  29
ENDBRANCH  24  25
ENDBRANCH   1  24
TORSDOF 4
ENDMDL
MODEL 7
REMARK VINA RESULT:     -10.0      2.914      7.297
REMARK  4 active torsions:
REMARK  status: ('A' for Active; 'I' for Inactive)
REMARK    1  A    between atoms: C_4  and  N_5 
REMARK       I    between atoms: N_5  and  C_6 
REMARK    2  A    between atoms: C_6  and  C_7 
REMARK    3  A    between atoms: C_7  and  N_8 
REMARK    4  A    between atoms: C_12  and  C_13 
ROOT
HETATM    1  N   UNL     1       4.968  28.046  55.087  1.00  0.00    -0.304 N 
HETATM    2  C   UNL     1       4.744  28.232  53.730  1.00  0.00     0.261 C 
HETATM    3  O   UNL     1       4.929  27.391  52.868  1.00  0.00    -0.267 OA
HETATM    4  C   UNL     1       4.348  29.686  53.588  1.00  0.00     0.068 C 
HETATM    5  C   UNL     1       3.763  30.219  52.497  1.00  0.00     0.093 C 
HETATM    6  C   UNL     1       3.284  31.661  52.479  1.00  0.00     0.025 C 
HETATM    7  N   UNL     1       2.887  32.857  52.464  1.00  0.00    -0.096 N 
HETATM    8  C   UNL     1       4.619  30.311  54.903  1.00  0.00     0.008 A 
HETATM    9  C   UNL     1       4.961  29.266  55.776  1.00  0.00     0.049 A 
HETATM   10  C   UNL     1       4.596  31.617  55.371  1.00  0.00     0.015 A 
HETATM   11  C   UNL     1       4.901  31.855  56.717  1.00  0.00     0.001 A 
HETATM   12  C   UNL     1       5.231  30.799  57.579  1.00  0.00     0.002 A 
HETATM   13  C   UNL     1       5.265  29.487  57.109  1.00  0.00     0.030 A 
ENDROOT
BRANCH   5  14
HETATM   14  C   UNL     1       3.406  29.443  51.356  1.00  0.00     0.149 A 
HETATM   15  N   UNL     1       2.224  29.110  50.879  1.00  0.00    -0.228 NA
HETATM   16  C   UNL     1       2.461  28.434  49.707  1.00  0.00     0.086 A 
HETATM   17  C   UNL     1       3.821  28.379  49.437  1.00  0.00     0.062 A 
HETATM   18  C   UNL     1       1.560  27.849  48.807  1.00  0.00     0.034 A 
HETATM   19  N   UNL     1       4.402  29.015  50.503  1.00  0.00    -0.338 N 
HETATM   20  C   UNL     1       4.356  27.784  48.292  1.00  0.00     0.032 A 
HETATM   21  H   UNL     1       5.395  29.157  50.620  1.00  0.00     0.167 HD
HETATM   22  C   UNL     1       3.441  27.213  47.399  1.00  0.00     0.002 A 
HETATM   23  C   UNL     1       2.066  27.238  47.652  1.00  0.00     0.002 A 
ENDBRANCH   5  14
BRANCH   1  24
HETATM   24  C   UNL     1       5.057  26.743  55.704  1.00  0.00     0.235 C 
BRANCH  24  25
HETATM   25  C   UNL     1       6.317  25.950  55.372  1.00  0.00     0.240 C 
HETATM   26  N   UNL     1       6.073  24.847  54.573  1.00  0.00    -0.326 N 
HETATM   27  H   UNL     1       5.183  24.833  54.073  1.00  0.00     0.169 HD
HETATM   28  O   UNL     1       7.398  26.267  55.868  1.00  0.00    -0.271 OA
BRANCH  26  29
HETATM   29  C   UNL     1       6.908  23.723  54.409  1.00  0.00     0.035 A 
HETATM   30  C   UNL     1       7.287  22.884  55.462  1.00  0.00     0.036 A 
HETATM   31  C   UNL     1       8.046  21.726  55.228  1.00  0.00    -0.060 A 
HETATM   32  C   UNL     1       8.362  20.785  56.354  1.00  0.00     0.048 C 
HETATM   33  C   UNL     1       8.430  21.415  53.920  1.00  0.00     0.007 A 
HETATM   34  C   UNL     1       8.067  22.252  52.865  1.00  0.00     0.003 A 
HETATM   35  C   UNL     1       7.302  23.395  53.108  1.00  0.00     0.029 A 
ENDBRANCH  26  29
ENDBRANCH  24  25
ENDBRANCH   1  24
TORSDOF 4
ENDMDL
MODEL 8
REMARK VINA RESULT:     -10.0      2.486      8.954
REMARK  4 active torsions:
REMARK  status: ('A' for Active; 'I' for Inactive)
REMARK    1  A    between atoms: C_4  and  N_5 
REMARK       I    between atoms: N_5  and  C_6 
REMARK    2  A    between atoms: C_6  and  C_7 
REMARK    3  A    between atoms: C_7  and  N_8 
REMARK    4  A    between atoms: C_12  and  C_13 
ROOT
HETATM    1  N   UNL     1       5.706  27.377  56.215  1.00  0.00    -0.304 N 
HETATM    2  C   UNL     1       5.246  27.450  54.908  1.00  0.00     0.261 C 
HETATM    3  O   UNL     1       4.304  28.125  54.533  1.00  0.00    -0.267 OA
HETATM    4  C   UNL     1       6.084  26.453  54.136  1.00  0.00     0.068 C 
HETATM    5  C   UNL     1       6.177  26.409  52.791  1.00  0.00     0.093 C 
HETATM    6  C   UNL     1       7.136  25.456  52.095  1.00  0.00     0.025 C 
HETATM    7  N   UNL     1       7.931  24.666  51.518  1.00  0.00    -0.096 N 
HETATM    8  C   UNL     1       6.832  25.678  55.152  1.00  0.00     0.008 A 
HETATM    9  C   UNL     1       6.588  26.302  56.385  1.00  0.00     0.049 A 
HETATM   10  C   UNL     1       7.647  24.557  55.098  1.00  0.00     0.015 A 
HETATM   11  C   UNL     1       8.221  24.085  56.285  1.00  0.00     0.001 A 
HETATM   12  C   UNL     1       7.976  24.725  57.508  1.00  0.00     0.002 A 
HETATM   13  C   UNL     1       7.149  25.847  57.567  1.00  0.00     0.030 A 
ENDROOT
BRANCH   5  14
HETATM   14  C   UNL     1       5.520  27.342  51.940  1.00  0.00     0.149 A 
HETATM   15  N   UNL     1       5.767  28.616  51.708  1.00  0.00    -0.228 NA
HETATM   16  C   UNL     1       4.883  29.006  50.732  1.00  0.00     0.086 A 
HETATM   17  C   UNL     1       4.095  27.937  50.326  1.00  0.00     0.062 A 
HETATM   18  C   UNL     1       4.705  30.257  50.126  1.00  0.00     0.034 A 
HETATM   19  N   UNL     1       4.508  26.896  51.115  1.00  0.00    -0.338 N 
HETATM   20  C   UNL     1       3.132  28.030  49.319  1.00  0.00     0.032 A 
HETATM   21  H   UNL     1       4.138  25.957  51.073  1.00  0.00     0.167 HD
HETATM   22  C   UNL     1       2.974  29.284  48.719  1.00  0.00     0.002 A 
HETATM   23  C   UNL     1       3.741  30.382  49.116  1.00  0.00     0.002 A 
ENDBRANCH   5  14
BRANCH   1  24
HETATM   24  C   UNL     1       5.407  28.374  57.217  1.00  0.00     0.235 C 
BRANCH  24  25
HETATM   25  C   UNL     1       6.421  29.507  57.331  1.00  0.00     0.240 C 
HETATM   26  N   UNL     1       7.333  29.321  58.355  1.00  0.00    -0.326 N 
HETATM   27  H   UNL     1       7.420  28.373  58.724  1.00  0.00     0.169 HD
HETATM   28  O   UNL     1       6.328  30.498  56.609  1.00  0.00    -0.271 OA
BRANCH  26  29
HETATM   29  C   UNL     1       8.125  30.312  58.969  1.00  0.00     0.035 A 
HETATM   30  C   UNL     1       7.888  30.799  60.260  1.00  0.00     0.036 A 
HETATM   31  C   UNL     1       8.763  31.721  60.857  1.00  0.00    -0.060 A 
HETATM   32  C   UNL     1       8.548  32.160  62.276  1.00  0.00     0.048 C 
HETATM   33  C   UNL     1       9.883  32.160  60.145  1.00  0.00     0.007 A 
HETATM   34  C   UNL     1      10.121  31.689  58.854  1.00  0.00     0.003 A 
HETATM   35  C   UNL     1       9.252  30.763  58.273  1.00  0.00     0.029 A 
ENDBRANCH  26  29
ENDBRANCH  24  25
ENDBRANCH   1  24
TORSDOF 4
ENDMDL
MODEL 9
REMARK VINA RESULT:      -9.6      3.112      7.531
REMARK  4 active torsions:
REMARK  status: ('A' for Active; 'I' for Inactive)
REMARK    1  A    between atoms: C_4  and  N_5 
REMARK       I    between atoms: N_5  and  C_6 
REMARK    2  A    between atoms: C_6  and  C_7 
REMARK    3  A    between atoms: C_7  and  N_8 
REMARK    4  A    between atoms: C_12  and  C_13 
ROOT
HETATM    1  N   UNL     1       4.093  29.752  54.019  1.00  0.00    -0.304 N 
HETATM    2  C   UNL     1       4.676  28.556  54.409  1.00  0.00     0.261 C 
HETATM    3  O   UNL     1       4.418  27.462  53.937  1.00  0.00    -0.267 OA
HETATM    4  C   UNL     1       5.572  28.913  55.576  1.00  0.00     0.068 C 
HETATM    5  C   UNL     1       6.543  28.117  56.069  1.00  0.00     0.093 C 
HETATM    6  C   UNL     1       7.481  28.598  57.164  1.00  0.00     0.025 C 
HETATM    7  N   UNL     1       8.259  28.997  58.072  1.00  0.00    -0.096 N 
HETATM    8  C   UNL     1       5.236  30.310  55.933  1.00  0.00     0.008 A 
HETATM    9  C   UNL     1       4.361  30.774  54.938  1.00  0.00     0.049 A 
HETATM   10  C   UNL     1       5.600  31.151  56.974  1.00  0.00     0.015 A 
HETATM   11  C   UNL     1       5.092  32.456  56.995  1.00  0.00     0.001 A 
HETATM   12  C   UNL     1       4.227  32.908  55.989  1.00  0.00     0.002 A 
HETATM   13  C   UNL     1       3.851  32.062  54.946  1.00  0.00     0.030 A 
ENDROOT
BRANCH   5  14
HETATM   14  C   UNL     1       6.864  26.850  55.504  1.00  0.00     0.149 A 
HETATM   15  N   UNL     1       6.660  25.630  55.958  1.00  0.00    -0.228 NA
HETATM   16  C   UNL     1       7.083  24.777  54.968  1.00  0.00     0.086 A 
HETATM   17  C   UNL     1       7.525  25.489  53.861  1.00  0.00     0.062 A 
HETATM   18  C   UNL     1       7.103  23.376  54.933  1.00  0.00     0.034 A 
HETATM   19  N   UNL     1       7.389  26.802  54.229  1.00  0.00    -0.338 N 
HETATM   20  C   UNL     1       7.979  24.884  52.687  1.00  0.00     0.032 A 
HETATM   21  H   UNL     1       7.619  27.593  53.645  1.00  0.00     0.167 HD
HETATM   22  C   UNL     1       7.985  23.484  52.667  1.00  0.00     0.002 A 
HETATM   23  C   UNL     1       7.560  22.740  53.772  1.00  0.00     0.002 A 
ENDBRANCH   5  14
BRANCH   1  24
HETATM   24  C   UNL     1       3.417  29.928  52.753  1.00  0.00     0.235 C 
BRANCH  24  25
HETATM   25  C   UNL     1       4.226  29.530  51.523  1.00  0.00     0.240 C 
HETATM   26  N   UNL     1       3.455  28.960  50.525  1.00  0.00    -0.326 N 
HETATM   27  H   UNL     1       2.447  29.116  50.580  1.00  0.00     0.169 HD
HETATM   28  O   UNL     1       5.450  29.654  51.519  1.00  0.00    -0.271 OA
BRANCH  26  29
HETATM   29  C   UNL     1       3.912  28.153  49.464  1.00  0.00     0.035 A 
HETATM   30  C   UNL     1       3.357  26.909  49.146  1.00  0.00     0.036 A 
HETATM   31  C   UNL     1       3.790  26.188  48.022  1.00  0.00    -0.060 A 
HETATM   32  C   UNL     1       3.119  24.902  47.640  1.00  0.00     0.048 C 
HETATM   33  C   UNL     1       4.798  26.725  47.214  1.00  0.00     0.007 A 
HETATM   34  C   UNL     1       5.366  27.959  47.529  1.00  0.00     0.003 A 
HETATM   35  C   UNL     1       4.919  28.673  48.643  1.00  0.00     0.029 A 
ENDBRANCH  26  29
ENDBRANCH  24  25
ENDBRANCH   1  24
TORSDOF 4
ENDMDL
MODEL 10
REMARK VINA RESULT:      -9.6      3.153      6.969
REMARK  4 active torsions:
REMARK  status: ('A' for Active; 'I' for Inactive)
REMARK    1  A    between atoms: C_4  and  N_5 
REMARK       I    between atoms: N_5  and  C_6 
REMARK    2  A    between atoms: C_6  and  C_7 
REMARK    3  A    between atoms: C_7  and  N_8 
REMARK    4  A    between atoms: C_12  and  C_13 
ROOT
HETATM    1  N   UNL     1       5.400  28.055  54.137  1.00  0.00    -0.304 N 
HETATM    2  C   UNL     1       6.394  28.513  54.991  1.00  0.00     0.261 C 
HETATM    3  O   UNL     1       6.643  29.685  55.212  1.00  0.00    -0.267 OA
HETATM    4  C   UNL     1       7.119  27.269  55.459  1.00  0.00     0.068 C 
HETATM    5  C   UNL     1       7.956  27.221  56.515  1.00  0.00     0.093 C 
HETATM    6  C   UNL     1       8.550  25.907  56.996  1.00  0.00     0.025 C 
HETATM    7  N   UNL     1       9.042  24.817  57.395  1.00  0.00    -0.096 N 
HETATM    8  C   UNL     1       6.615  26.162  54.614  1.00  0.00     0.008 A 
HETATM    9  C   UNL     1       5.557  26.691  53.858  1.00  0.00     0.049 A 
HETATM   10  C   UNL     1       6.973  24.832  54.457  1.00  0.00     0.015 A 
HETATM   11  C   UNL     1       6.251  24.043  53.552  1.00  0.00     0.001 A 
HETATM   12  C   UNL     1       5.191  24.583  52.812  1.00  0.00     0.002 A 
HETATM   13  C   UNL     1       4.835  25.923  52.960  1.00  0.00     0.030 A 
ENDROOT
BRANCH   5  14
HETATM   14  C   UNL     1       8.215  28.348  57.347  1.00  0.00     0.149 A 
HETATM   15  N   UNL     1       7.706  28.691  58.513  1.00  0.00    -0.228 NA
HETATM   16  C   UNL     1       8.380  29.820  58.908  1.00  0.00     0.086 A 
HETATM   17  C   UNL     1       9.353  30.162  57.979  1.00  0.00     0.062 A 
HETATM   18  C   UNL     1       8.228  30.604  60.060  1.00  0.00     0.034 A 
HETATM   19  N   UNL     1       9.222  29.221  56.991  1.00  0.00    -0.338 N 
HETATM   20  C   UNL     1      10.220  31.247  58.135  1.00  0.00     0.032 A 
HETATM   21  H   UNL     1       9.790  29.176  56.157  1.00  0.00     0.167 HD
HETATM   22  C   UNL     1      10.059  32.013  59.296  1.00  0.00     0.002 A 
HETATM   23  C   UNL     1       9.078  31.703  60.242  1.00  0.00     0.002 A 
ENDBRANCH   5  14
BRANCH   1  24
HETATM   24  C   UNL     1       4.282  28.867  53.716  1.00  0.00     0.235 C 
BRANCH  24  25
HETATM   25  C   UNL     1       4.220  29.164  52.221  1.00  0.00     0.240 C 
HETATM   26  N   UNL     1       5.235  29.998  51.788  1.00  0.00    -0.326 N 
HETATM   27  H   UNL     1       6.044  30.093  52.405  1.00  0.00     0.169 HD
HETATM   28  O   UNL     1       3.284  28.741  51.543  1.00  0.00    -0.271 OA
BRANCH  26  29
HETATM   29  C   UNL     1       5.252  30.761  50.603  1.00  0.00     0.035 A 
HETATM   30  C   UNL     1       5.628  32.108  50.558  1.00  0.00     0.036 A 
HETATM   31  C   UNL     1       5.715  32.794  49.336  1.00  0.00    -0.060 A 
HETATM   32  C   UNL     1       6.212  34.210  49.295  1.00  0.00     0.048 C 
HETATM   33  C   UNL     1       5.414  32.118  48.150  1.00  0.00     0.007 A 
HETATM   34  C   UNL     1       5.027  30.779  48.185  1.00  0.00     0.003 A 
HETATM   35  C   UNL     1       4.957  30.101  49.405  1.00  0.00     0.029 A 
ENDBRANCH  26  29
ENDBRANCH  24  25
ENDBRANCH   1  24
TORSDOF 4
ENDMDL
