MODEL 1
REMARK VINA RESULT:      -9.5      0.000      0.000
REMARK  5 active torsions:
REMARK  status: ('A' for Active; 'I' for Inactive)
REMARK    1  A    between atoms: C_4  and  N_5 
REMARK       I    between atoms: N_5  and  C_6 
REMARK       I    between atoms: C_6  and  N_7 
REMARK    2  A    between atoms: N_7  and  C_8 
REMARK    3  A    between atoms: C_8  and  C_9 
REMARK    4  A    between atoms: C_9  and  N_10 
REMARK    5  A    between atoms: C_9  and  C_14 
ROOT
HETATM    1  N   UNL     1       7.883  24.528  56.808  1.00  0.00    -0.307 N 
HETATM    2  C   UNL     1       7.506  25.711  57.339  1.00  0.00     0.320 C 
HETATM    3  N   UNL     1       6.550  26.420  56.692  1.00  0.00    -0.340 N 
HETATM    4  O   UNL     1       7.964  26.111  58.408  1.00  0.00    -0.247 OA
HETATM    5  H   UNL     1       8.398  23.917  57.444  1.00  0.00     0.170 HD
HETATM    6  H   UNL     1       5.928  25.878  56.102  1.00  0.00     0.164 HD
ENDROOT
BRANCH   1   7
HETATM    7  C   UNL     1       7.821  23.993  55.494  1.00  0.00     0.066 A 
HETATM    8  C   UNL     1       7.663  24.775  54.343  1.00  0.00     0.038 A 
HETATM    9  C   UNL     1       7.623  24.182  53.076  1.00  0.00    -0.059 A 
HETATM   10  C   UNL     1       7.481  25.025  51.842  1.00  0.00     0.048 C 
HETATM   11  C   UNL     1       7.800  22.801  52.969  1.00  0.00     0.020 A 
HETATM   12  C   UNL     1       8.004  22.014  54.114  1.00  0.00    -0.005 A 
HETATM   13  C   UNL     1       8.018  22.606  55.395  1.00  0.00     0.093 A 
HETATM   14  C   UNL     1       8.213  20.631  54.019  1.00  0.00     0.015 A 
HETATM   15  N   UNL     1       8.225  21.874  56.516  1.00  0.00    -0.258 NA
HETATM   16  C   UNL     1       8.426  20.543  56.382  1.00  0.00     0.117 A 
HETATM   17  C   UNL     1       8.429  19.883  55.169  1.00  0.00     0.020 A 
ENDBRANCH   1   7
BRANCH   3  18
HETATM   18  C   UNL     1       6.239  27.825  56.936  1.00  0.00     0.164 C 
BRANCH  18  19
HETATM   19  C   UNL     1       6.882  28.877  55.975  1.00  0.00     0.261 C 
BRANCH  19  20
HETATM   20  N   UNL     1       5.976  30.089  55.760  1.00  0.00    -0.067 N 
HETATM   21  H   UNL     1       6.600  30.819  55.361  1.00  0.00     0.280 HD
HETATM   22  C   UNL     1       4.890  29.925  54.742  1.00  0.00     0.270 C 
HETATM   23  C   UNL     1       5.452  30.660  57.042  1.00  0.00     0.270 C 
ENDBRANCH  19  20
BRANCH  19  24
HETATM   24  C   UNL     1       8.258  29.258  56.432  1.00  0.00     0.085 A 
HETATM   25  O   UNL     1       9.177  29.460  55.442  1.00  0.00    -0.325 OA
HETATM   26  C   UNL     1      10.345  29.800  56.042  1.00  0.00     0.142 A 
HETATM   27  C   UNL     1      10.193  29.832  57.407  1.00  0.00     0.027 A 
HETATM   28  C   UNL     1       8.844  29.486  57.664  1.00  0.00     0.037 A 
ENDBRANCH  19  24
ENDBRANCH  18  19
ENDBRANCH   3  18
TORSDOF 5
ENDMDL
MODEL 2
REMARK VINA RESULT:      -9.2      1.634      2.943
REMARK  5 active torsions:
REMARK  status: ('A' for Active; 'I' for Inactive)
REMARK    1  A    between atoms: C_4  and  N_5 
REMARK       I    between atoms: N_5  and  C_6 
REMARK       I    between atoms: C_6  and  N_7 
REMARK    2  A    between atoms: N_7  and  C_8 
REMARK    3  A    between atoms: C_8  and  C_9 
REMARK    4  A    between atoms: C_9  and  N_10 
REMARK    5  A    between atoms: C_9  and  C_14 
ROOT
HETATM    1  N   UNL     1       8.000  24.867  56.789  1.00  0.00    -0.307 N 
HETATM    2  C   UNL     1       7.432  25.993  57.272  1.00  0.00     0.320 C 
HETATM    3  N   UNL     1       6.286  26.425  56.693  1.00  0.00    -0.340 N 
HETATM    4  O   UNL     1       7.898  26.580  58.248  1.00  0.00    -0.247 OA
HETATM    5  H   UNL     1       8.695  24.440  57.402  1.00  0.00     0.170 HD
HETATM    6  H   UNL     1       5.739  25.712  56.222  1.00  0.00     0.164 HD
ENDROOT
BRANCH   1   7
HETATM    7  C   UNL     1       7.923  24.208  55.534  1.00  0.00     0.066 A 
HETATM    8  C   UNL     1       7.789  24.876  54.310  1.00  0.00     0.038 A 
HETATM    9  C   UNL     1       7.734  24.162  53.108  1.00  0.00    -0.059 A 
HETATM   10  C   UNL     1       7.618  24.883  51.796  1.00  0.00     0.048 C 
HETATM   11  C   UNL     1       7.869  22.773  53.139  1.00  0.00     0.020 A 
HETATM   12  C   UNL     1       8.049  22.097  54.356  1.00  0.00    -0.005 A 
HETATM   13  C   UNL     1       8.079  22.812  55.573  1.00  0.00     0.093 A 
HETATM   14  C   UNL     1       8.217  20.706  54.399  1.00  0.00     0.015 A 
HETATM   15  N   UNL     1       8.263  22.189  56.762  1.00  0.00    -0.258 NA
HETATM   16  C   UNL     1       8.424  20.846  56.760  1.00  0.00     0.117 A 
HETATM   17  C   UNL     1       8.408  20.070  55.619  1.00  0.00     0.020 A 
ENDBRANCH   1   7
BRANCH   3  18
HETATM   18  C   UNL     1       5.706  27.753  56.869  1.00  0.00     0.164 C 
BRANCH  18  19
HETATM   19  C   UNL     1       5.893  28.774  55.701  1.00  0.00     0.261 C 
BRANCH  19  20
HETATM   20  N   UNL     1       7.296  29.379  55.685  1.00  0.00    -0.067 N 
HETATM   21  H   UNL     1       7.190  30.282  55.179  1.00  0.00     0.280 HD
HETATM   22  C   UNL     1       7.863  29.759  57.017  1.00  0.00     0.270 C 
HETATM   23  C   UNL     1       8.268  28.573  54.878  1.00  0.00     0.270 C 
ENDBRANCH  19  20
BRANCH  19  24
HETATM   24  C   UNL     1       5.509  28.169  54.385  1.00  0.00     0.085 A 
HETATM   25  O   UNL     1       4.937  26.930  54.445  1.00  0.00    -0.325 OA
HETATM   26  C   UNL     1       4.655  26.555  53.172  1.00  0.00     0.142 A 
HETATM   27  C   UNL     1       5.027  27.539  52.288  1.00  0.00     0.027 A 
HETATM   28  C   UNL     1       5.576  28.586  53.067  1.00  0.00     0.037 A 
ENDBRANCH  19  24
ENDBRANCH  18  19
ENDBRANCH   3  18
TORSDOF 5
ENDMDL
MODEL 3
REMARK VINA RESULT:      -9.2      1.253      2.602
REMARK  5 active torsions:
REMARK  status: ('A' for Active; 'I' for Inactive)
REMARK    1  A    between atoms: C_4  and  N_5 
REMARK       I    between atoms: N_5  and  C_6 
REMARK       I    between atoms: C_6  and  N_7 
REMARK    2  A    between atoms: N_7  and  C_8 
REMARK    3  A    between atoms: C_8  and  C_9 
REMARK    4  A    between atoms: C_9  and  N_10 
REMARK    5  A    between atoms: C_9  and  C_14 
ROOT
HETATM    1  N   UNL     1       7.465  24.387  56.814  1.00  0.00    -0.307 N 
HETATM    2  C   UNL     1       7.814  25.534  57.436  1.00  0.00     0.320 C 
HETATM    3  N   UNL     1       7.917  26.657  56.684  1.00  0.00    -0.340 N 
HETATM    4  O   UNL     1       7.972  25.583  58.655  1.00  0.00    -0.247 OA
HETATM    5  H   UNL     1       7.149  23.642  57.435  1.00  0.00     0.170 HD
HETATM    6  H   UNL     1       7.378  26.658  55.825  1.00  0.00     0.164 HD
ENDROOT
BRANCH   1   7
HETATM    7  C   UNL     1       7.564  23.948  55.467  1.00  0.00     0.066 A 
HETATM    8  C   UNL     1       7.373  24.785  54.360  1.00  0.00     0.038 A 
HETATM    9  C   UNL     1       7.500  24.288  53.058  1.00  0.00    -0.059 A 
HETATM   10  C   UNL     1       7.322  25.193  51.874  1.00  0.00     0.048 C 
HETATM   11  C   UNL     1       7.874  22.955  52.876  1.00  0.00     0.020 A 
HETATM   12  C   UNL     1       8.111  22.119  53.979  1.00  0.00    -0.005 A 
HETATM   13  C   UNL     1       7.958  22.611  55.293  1.00  0.00     0.093 A 
HETATM   14  C   UNL     1       8.516  20.789  53.811  1.00  0.00     0.015 A 
HETATM   15  N   UNL     1       8.193  21.833  56.378  1.00  0.00    -0.258 NA
HETATM   16  C   UNL     1       8.585  20.555  56.173  1.00  0.00     0.117 A 
HETATM   17  C   UNL     1       8.759  19.993  54.924  1.00  0.00     0.020 A 
ENDBRANCH   1   7
BRANCH   3  18
HETATM   18  C   UNL     1       8.564  27.894  57.109  1.00  0.00     0.164 C 
BRANCH  18  19
HETATM   19  C   UNL     1       7.688  28.928  57.888  1.00  0.00     0.261 C 
BRANCH  19  20
HETATM   20  N   UNL     1       8.483  30.170  58.287  1.00  0.00    -0.067 N 
HETATM   21  H   UNL     1       8.003  30.959  57.807  1.00  0.00     0.280 HD
HETATM   22  C   UNL     1       8.446  30.535  59.739  1.00  0.00     0.270 C 
HETATM   23  C   UNL     1       9.883  30.163  57.754  1.00  0.00     0.270 C 
ENDBRANCH  19  20
BRANCH  19  24
HETATM   24  C   UNL     1       6.439  29.261  57.128  1.00  0.00     0.085 A 
HETATM   25  O   UNL     1       6.532  29.179  55.768  1.00  0.00    -0.325 OA
HETATM   26  C   UNL     1       5.316  29.505  55.262  1.00  0.00     0.142 A 
HETATM   27  C   UNL     1       4.434  29.787  56.276  1.00  0.00     0.027 A 
HETATM   28  C   UNL     1       5.154  29.627  57.485  1.00  0.00     0.037 A 
ENDBRANCH  19  24
ENDBRANCH  18  19
ENDBRANCH   3  18
TORSDOF 5
ENDMDL
MODEL 4
REMARK VINA RESULT:      -9.0      1.352      1.809
REMARK  5 active torsions:
REMARK  status: ('A' for Active; 'I' for Inactive)
REMARK    1  A    between atoms: C_4  and  N_5 
REMARK       I    between atoms: N_5  and  C_6 
REMARK       I    between atoms: C_6  and  N_7 
REMARK    2  A    between atoms: N_7  and  C_8 
REMARK    3  A    between atoms: C_8  and  C_9 
REMARK    4  A    between atoms: C_9  and  N_10 
REMARK    5  A    between atoms: C_9  and  C_14 
ROOT
HETATM    1  N   UNL     1       7.489  24.577  56.740  1.00  0.00    -0.307 N 
HETATM    2  C   UNL     1       7.812  25.778  57.267  1.00  0.00     0.320 C 
HETATM    3  N   UNL     1       7.879  26.841  56.431  1.00  0.00    -0.340 N 
HETATM    4  O   UNL     1       7.979  25.925  58.478  1.00  0.00    -0.247 OA
HETATM    5  H   UNL     1       7.198  23.874  57.420  1.00  0.00     0.170 HD
HETATM    6  H   UNL     1       7.334  26.762  55.579  1.00  0.00     0.164 HD
ENDROOT
BRANCH   1   7
HETATM    7  C   UNL     1       7.589  24.038  55.431  1.00  0.00     0.066 A 
HETATM    8  C   UNL     1       7.444  24.798  54.263  1.00  0.00     0.038 A 
HETATM    9  C   UNL     1       7.569  24.203  53.003  1.00  0.00    -0.059 A 
HETATM   10  C   UNL     1       7.441  25.026  51.753  1.00  0.00     0.048 C 
HETATM   11  C   UNL     1       7.894  22.847  52.923  1.00  0.00     0.020 A 
HETATM   12  C   UNL     1       8.086  22.087  54.088  1.00  0.00    -0.005 A 
HETATM   13  C   UNL     1       7.935  22.678  55.360  1.00  0.00     0.093 A 
HETATM   14  C   UNL     1       8.443  20.733  54.023  1.00  0.00     0.015 A 
HETATM   15  N   UNL     1       8.125  21.973  56.501  1.00  0.00    -0.258 NA
HETATM   16  C   UNL     1       8.472  20.670  56.396  1.00  0.00     0.117 A 
HETATM   17  C   UNL     1       8.640  20.013  55.194  1.00  0.00     0.020 A 
ENDBRANCH   1   7
BRANCH   3  18
HETATM   18  C   UNL     1       8.496  28.124  56.752  1.00  0.00     0.164 C 
BRANCH  18  19
HETATM   19  C   UNL     1       7.578  29.388  56.717  1.00  0.00     0.261 C 
BRANCH  19  20
HETATM   20  N   UNL     1       6.142  29.045  56.323  1.00  0.00    -0.067 N 
HETATM   21  H   UNL     1       6.228  28.212  55.704  1.00  0.00     0.280 HD
HETATM   22  C   UNL     1       5.245  28.595  57.434  1.00  0.00     0.270 C 
HETATM   23  C   UNL     1       5.498  30.107  55.485  1.00  0.00     0.270 C 
ENDBRANCH  19  20
BRANCH  19  24
HETATM   24  C   UNL     1       7.656  30.151  58.005  1.00  0.00     0.085 A 
HETATM   25  O   UNL     1       8.428  29.588  58.982  1.00  0.00    -0.325 OA
HETATM   26  C   UNL     1       8.383  30.417  60.055  1.00  0.00     0.142 A 
HETATM   27  C   UNL     1       7.602  31.514  59.784  1.00  0.00     0.027 A 
HETATM   28  C   UNL     1       7.133  31.349  58.457  1.00  0.00     0.037 A 
ENDBRANCH  19  24
ENDBRANCH  18  19
ENDBRANCH   3  18
TORSDOF 5
ENDMDL
MODEL 5
REMARK VINA RESULT:      -8.7      5.535     10.094
REMARK  5 active torsions:
REMARK  status: ('A' for Active; 'I' for Inactive)
REMARK    1  A    between atoms: C_4  and  N_5 
REMARK       I    between atoms: N_5  and  C_6 
REMARK       I    between atoms: C_6  and  N_7 
REMARK    2  A    between atoms: N_7  and  C_8 
REMARK    3  A    between atoms: C_8  and  C_9 
REMARK    4  A    between atoms: C_9  and  N_10 
REMARK    5  A    between atoms: C_9  and  C_14 
ROOT
HETATM    1  N   UNL     1       4.459  32.072  61.644  1.00  0.00    -0.307 N 
HETATM    2  C   UNL     1       4.031  32.048  60.363  1.00  0.00     0.320 C 
HETATM    3  N   UNL     1       4.928  31.725  59.400  1.00  0.00    -0.340 N 
HETATM    4  O   UNL     1       2.852  32.250  60.076  1.00  0.00    -0.247 OA
HETATM    5  H   UNL     1       3.717  32.060  62.344  1.00  0.00     0.170 HD
HETATM    6  H   UNL     1       5.718  31.170  59.709  1.00  0.00     0.164 HD
ENDROOT
BRANCH   1   7
HETATM    7  C   UNL     1       5.741  32.236  62.232  1.00  0.00     0.066 A 
HETATM    8  C   UNL     1       6.941  31.928  61.580  1.00  0.00     0.038 A 
HETATM    9  C   UNL     1       8.172  32.128  62.216  1.00  0.00    -0.059 A 
HETATM   10  C   UNL     1       9.458  31.823  61.504  1.00  0.00     0.048 C 
HETATM   11  C   UNL     1       8.190  32.692  63.494  1.00  0.00     0.020 A 
HETATM   12  C   UNL     1       6.994  33.046  64.138  1.00  0.00    -0.005 A 
HETATM   13  C   UNL     1       5.750  32.821  63.509  1.00  0.00     0.093 A 
HETATM   14  C   UNL     1       6.999  33.640  65.407  1.00  0.00     0.015 A 
HETATM   15  N   UNL     1       4.580  33.163  64.101  1.00  0.00    -0.258 NA
HETATM   16  C   UNL     1       4.628  33.737  65.325  1.00  0.00     0.117 A 
HETATM   17  C   UNL     1       5.798  33.993  66.010  1.00  0.00     0.020 A 
ENDBRANCH   1   7
BRANCH   3  18
HETATM   18  C   UNL     1       4.736  31.941  57.969  1.00  0.00     0.164 C 
BRANCH  18  19
HETATM   19  C   UNL     1       5.027  30.735  57.020  1.00  0.00     0.261 C 
BRANCH  19  20
HETATM   20  N   UNL     1       5.088  31.159  55.553  1.00  0.00    -0.067 N 
HETATM   21  H   UNL     1       6.083  31.028  55.279  1.00  0.00     0.280 HD
HETATM   22  C   UNL     1       4.319  30.307  54.590  1.00  0.00     0.270 C 
HETATM   23  C   UNL     1       4.801  32.616  55.356  1.00  0.00     0.270 C 
ENDBRANCH  19  20
BRANCH  19  24
HETATM   24  C   UNL     1       6.250  29.985  57.455  1.00  0.00     0.085 A 
HETATM   25  O   UNL     1       7.203  30.724  58.096  1.00  0.00    -0.325 OA
HETATM   26  C   UNL     1       8.217  29.881  58.416  1.00  0.00     0.142 A 
HETATM   27  C   UNL     1       7.930  28.604  57.999  1.00  0.00     0.027 A 
HETATM   28  C   UNL     1       6.657  28.665  57.380  1.00  0.00     0.037 A 
ENDBRANCH  19  24
ENDBRANCH  18  19
ENDBRANCH   3  18
TORSDOF 5
ENDMDL
MODEL 6
REMARK VINA RESULT:      -8.3      4.341      6.798
REMARK  5 active torsions:
REMARK  status: ('A' for Active; 'I' for Inactive)
REMARK    1  A    between atoms: C_4  and  N_5 
REMARK       I    between atoms: N_5  and  C_6 
REMARK       I    between atoms: C_6  and  N_7 
REMARK    2  A    between atoms: N_7  and  C_8 
REMARK    3  A    between atoms: C_8  and  C_9 
REMARK    4  A    between atoms: C_9  and  N_10 
REMARK    5  A    between atoms: C_9  and  C_14 
ROOT
HETATM    1  N   UNL     1       4.927  25.977  53.874  1.00  0.00    -0.307 N 
HETATM    2  C   UNL     1       4.701  26.766  52.802  1.00  0.00     0.320 C 
HETATM    3  N   UNL     1       5.301  26.437  51.633  1.00  0.00    -0.340 N 
HETATM    4  O   UNL     1       3.925  27.719  52.858  1.00  0.00    -0.247 OA
HETATM    5  H   UNL     1       4.269  26.100  54.644  1.00  0.00     0.170 HD
HETATM    6  H   UNL     1       5.554  25.459  51.532  1.00  0.00     0.164 HD
ENDROOT
BRANCH   1   7
HETATM    7  C   UNL     1       5.978  25.084  54.213  1.00  0.00     0.066 A 
HETATM    8  C   UNL     1       6.380  24.014  53.404  1.00  0.00     0.038 A 
HETATM    9  C   UNL     1       7.434  23.180  53.794  1.00  0.00    -0.059 A 
HETATM   10  C   UNL     1       7.882  22.050  52.912  1.00  0.00     0.048 C 
HETATM   11  C   UNL     1       8.119  23.463  54.978  1.00  0.00     0.020 A 
HETATM   12  C   UNL     1       7.753  24.561  55.773  1.00  0.00    -0.005 A 
HETATM   13  C   UNL     1       6.673  25.387  55.395  1.00  0.00     0.093 A 
HETATM   14  C   UNL     1       8.450  24.874  56.947  1.00  0.00     0.015 A 
HETATM   15  N   UNL     1       6.304  26.461  56.135  1.00  0.00    -0.258 NA
HETATM   16  C   UNL     1       7.004  26.732  57.260  1.00  0.00     0.117 A 
HETATM   17  C   UNL     1       8.072  25.977  57.703  1.00  0.00     0.020 A 
ENDBRANCH   1   7
BRANCH   3  18
HETATM   18  C   UNL     1       5.421  27.316  50.474  1.00  0.00     0.164 C 
BRANCH  18  19
HETATM   19  C   UNL     1       4.097  27.864  49.852  1.00  0.00     0.261 C 
BRANCH  19  20
HETATM   20  N   UNL     1       4.232  29.318  49.401  1.00  0.00    -0.067 N 
HETATM   21  H   UNL     1       4.284  29.270  48.363  1.00  0.00     0.280 HD
HETATM   22  C   UNL     1       3.056  30.203  49.677  1.00  0.00     0.270 C 
HETATM   23  C   UNL     1       5.516  29.949  49.844  1.00  0.00     0.270 C 
ENDBRANCH  19  20
BRANCH  19  24
HETATM   24  C   UNL     1       3.598  26.965  48.761  1.00  0.00     0.085 A 
HETATM   25  O   UNL     1       3.656  25.625  49.023  1.00  0.00    -0.325 OA
HETATM   26  C   UNL     1       3.160  24.982  47.936  1.00  0.00     0.142 A 
HETATM   27  C   UNL     1       2.771  25.886  46.978  1.00  0.00     0.027 A 
HETATM   28  C   UNL     1       3.049  27.171  47.508  1.00  0.00     0.037 A 
ENDBRANCH  19  24
ENDBRANCH  18  19
ENDBRANCH   3  18
TORSDOF 5
ENDMDL
MODEL 7
REMARK VINA RESULT:      -8.3      9.826     12.127
REMARK  5 active torsions:
REMARK  status: ('A' for Active; 'I' for Inactive)
REMARK    1  A    between atoms: C_4  and  N_5 
REMARK       I    between atoms: N_5  and  C_6 
REMARK       I    between atoms: C_6  and  N_7 
REMARK    2  A    between atoms: N_7  and  C_8 
REMARK    3  A    between atoms: C_8  and  C_9 
REMARK    4  A    between atoms: C_9  and  N_10 
REMARK    5  A    between atoms: C_9  and  C_14 
ROOT
HETATM    1  N   UNL     1       4.258  32.523  61.943  1.00  0.00    -0.307 N 
HETATM    2  C   UNL     1       3.577  33.363  61.134  1.00  0.00     0.320 C 
HETATM    3  N   UNL     1       4.288  34.235  60.380  1.00  0.00    -0.340 N 
HETATM    4  O   UNL     1       2.352  33.302  61.029  1.00  0.00    -0.247 OA
HETATM    5  H   UNL     1       3.720  31.727  62.286  1.00  0.00     0.170 HD
HETATM    6  H   UNL     1       5.244  33.961  60.180  1.00  0.00     0.164 HD
ENDROOT
BRANCH   1   7
HETATM    7  C   UNL     1       5.551  32.581  62.527  1.00  0.00     0.066 A 
HETATM    8  C   UNL     1       6.729  32.255  61.844  1.00  0.00     0.038 A 
HETATM    9  C   UNL     1       7.973  32.348  62.478  1.00  0.00    -0.059 A 
HETATM   10  C   UNL     1       9.236  32.024  61.735  1.00  0.00     0.048 C 
HETATM   11  C   UNL     1       8.030  32.823  63.790  1.00  0.00     0.020 A 
HETATM   12  C   UNL     1       6.859  33.195  64.469  1.00  0.00    -0.005 A 
HETATM   13  C   UNL     1       5.601  33.078  63.840  1.00  0.00     0.093 A 
HETATM   14  C   UNL     1       6.904  33.703  65.774  1.00  0.00     0.015 A 
HETATM   15  N   UNL     1       4.455  33.441  64.466  1.00  0.00    -0.258 NA
HETATM   16  C   UNL     1       4.541  33.929  65.724  1.00  0.00     0.117 A 
HETATM   17  C   UNL     1       5.728  34.077  66.413  1.00  0.00     0.020 A 
ENDBRANCH   1   7
BRANCH   3  18
HETATM   18  C   UNL     1       3.733  35.397  59.694  1.00  0.00     0.164 C 
BRANCH  18  19
HETATM   19  C   UNL     1       4.285  36.801  60.104  1.00  0.00     0.261 C 
BRANCH  19  20
HETATM   20  N   UNL     1       3.355  37.933  59.671  1.00  0.00    -0.067 N 
HETATM   21  H   UNL     1       2.576  37.916  60.362  1.00  0.00     0.280 HD
HETATM   22  C   UNL     1       3.915  39.318  59.772  1.00  0.00     0.270 C 
HETATM   23  C   UNL     1       2.719  37.688  58.337  1.00  0.00     0.270 C 
ENDBRANCH  19  20
BRANCH  19  24
HETATM   24  C   UNL     1       4.611  36.848  61.566  1.00  0.00     0.085 A 
HETATM   25  O   UNL     1       3.543  36.778  62.415  1.00  0.00    -0.325 OA
HETATM   26  C   UNL     1       4.032  36.828  63.680  1.00  0.00     0.142 A 
HETATM   27  C   UNL     1       5.403  36.917  63.663  1.00  0.00     0.027 A 
HETATM   28  C   UNL     1       5.783  36.927  62.298  1.00  0.00     0.037 A 
ENDBRANCH  19  24
ENDBRANCH  18  19
ENDBRANCH   3  18
TORSDOF 5
ENDMDL
MODEL 8
REMARK VINA RESULT:      -8.2      4.563      6.715
REMARK  5 active torsions:
REMARK  status: ('A' for Active; 'I' for Inactive)
REMARK    1  A    between atoms: C_4  and  N_5 
REMARK       I    between atoms: N_5  and  C_6 
REMARK       I    between atoms: C_6  and  N_7 
REMARK    2  A    between atoms: N_7  and  C_8 
REMARK    3  A    between atoms: C_8  and  C_9 
REMARK    4  A    between atoms: C_9  and  N_10 
REMARK    5  A    between atoms: C_9  and  C_14 
ROOT
HETATM    1  N   UNL     1       8.363  29.889  58.020  1.00  0.00    -0.307 N 
HETATM    2  C   UNL     1       8.723  30.579  59.124  1.00  0.00     0.320 C 
HETATM    3  N   UNL     1       8.003  30.387  60.255  1.00  0.00    -0.340 N 
HETATM    4  O   UNL     1       9.710  31.313  59.129  1.00  0.00    -0.247 OA
HETATM    5  H   UNL     1       9.068  29.860  57.283  1.00  0.00     0.170 HD
HETATM    6  H   UNL     1       7.514  29.500  60.316  1.00  0.00     0.164 HD
ENDROOT
BRANCH   1   7
HETATM    7  C   UNL     1       7.143  29.289  57.610  1.00  0.00     0.066 A 
HETATM    8  C   UNL     1       5.974  30.010  57.335  1.00  0.00     0.038 A 
HETATM    9  C   UNL     1       4.809  29.354  56.922  1.00  0.00    -0.059 A 
HETATM   10  C   UNL     1       3.566  30.132  56.602  1.00  0.00     0.048 C 
HETATM   11  C   UNL     1       4.843  27.970  56.732  1.00  0.00     0.020 A 
HETATM   12  C   UNL     1       6.022  27.244  56.961  1.00  0.00    -0.005 A 
HETATM   13  C   UNL     1       7.191  27.900  57.404  1.00  0.00     0.093 A 
HETATM   14  C   UNL     1       6.079  25.860  56.746  1.00  0.00     0.015 A 
HETATM   15  N   UNL     1       8.347  27.228  57.621  1.00  0.00    -0.258 NA
HETATM   16  C   UNL     1       8.361  25.893  57.399  1.00  0.00     0.117 A 
HETATM   17  C   UNL     1       7.266  25.173  56.967  1.00  0.00     0.020 A 
ENDBRANCH   1   7
BRANCH   3  18
HETATM   18  C   UNL     1       8.045  31.248  61.432  1.00  0.00     0.164 C 
BRANCH  18  19
HETATM   19  C   UNL     1       7.002  32.409  61.507  1.00  0.00     0.261 C 
BRANCH  19  20
HETATM   20  N   UNL     1       5.600  31.950  61.106  1.00  0.00    -0.067 N 
HETATM   21  H   UNL     1       5.721  30.961  60.804  1.00  0.00     0.280 HD
HETATM   22  C   UNL     1       4.590  31.885  62.209  1.00  0.00     0.270 C 
HETATM   23  C   UNL     1       5.070  32.678  59.909  1.00  0.00     0.270 C 
ENDBRANCH  19  20
BRANCH  19  24
HETATM   24  C   UNL     1       7.028  33.076  62.850  1.00  0.00     0.085 A 
HETATM   25  O   UNL     1       6.311  34.234  62.951  1.00  0.00    -0.325 OA
HETATM   26  C   UNL     1       6.448  34.681  64.226  1.00  0.00     0.142 A 
HETATM   27  C   UNL     1       7.235  33.822  64.954  1.00  0.00     0.027 A 
HETATM   28  C   UNL     1       7.610  32.780  64.070  1.00  0.00     0.037 A 
ENDBRANCH  19  24
ENDBRANCH  18  19
ENDBRANCH   3  18
TORSDOF 5
ENDMDL
MODEL 9
REMARK VINA RESULT:      -8.1      2.554      3.731
REMARK  5 active torsions:
REMARK  status: ('A' for Active; 'I' for Inactive)
REMARK    1  A    between atoms: C_4  and  N_5 
REMARK       I    between atoms: N_5  and  C_6 
REMARK       I    between atoms: C_6  and  N_7 
REMARK    2  A    between atoms: N_7  and  C_8 
REMARK    3  A    between atoms: C_8  and  C_9 
REMARK    4  A    between atoms: C_9  and  N_10 
REMARK    5  A    between atoms: C_9  and  C_14 
ROOT
HETATM    1  N   UNL     1       6.395  24.064  53.041  1.00  0.00    -0.307 N 
HETATM    2  C   UNL     1       5.695  25.114  52.559  1.00  0.00     0.320 C 
HETATM    3  N   UNL     1       6.002  26.348  53.024  1.00  0.00    -0.340 N 
HETATM    4  O   UNL     1       4.847  24.971  51.679  1.00  0.00    -0.247 OA
HETATM    5  H   UNL     1       6.319  23.208  52.491  1.00  0.00     0.170 HD
HETATM    6  H   UNL     1       6.943  26.457  53.387  1.00  0.00     0.164 HD
ENDROOT
BRANCH   1   7
HETATM    7  C   UNL     1       7.129  23.860  54.240  1.00  0.00     0.066 A 
HETATM    8  C   UNL     1       7.215  24.804  55.270  1.00  0.00     0.038 A 
HETATM    9  C   UNL     1       7.946  24.531  56.432  1.00  0.00    -0.059 A 
HETATM   10  C   UNL     1       8.013  25.534  57.546  1.00  0.00     0.048 C 
HETATM   11  C   UNL     1       8.545  23.277  56.575  1.00  0.00     0.020 A 
HETATM   12  C   UNL     1       8.427  22.307  55.567  1.00  0.00    -0.005 A 
HETATM   13  C   UNL     1       7.712  22.590  54.383  1.00  0.00     0.093 A 
HETATM   14  C   UNL     1       8.997  21.035  55.711  1.00  0.00     0.015 A 
HETATM   15  N   UNL     1       7.571  21.669  53.399  1.00  0.00    -0.258 NA
HETATM   16  C   UNL     1       8.133  20.453  53.578  1.00  0.00     0.117 A 
HETATM   17  C   UNL     1       8.848  20.092  54.702  1.00  0.00     0.020 A 
ENDBRANCH   1   7
BRANCH   3  18
HETATM   18  C   UNL     1       5.173  27.538  52.857  1.00  0.00     0.164 C 
BRANCH  18  19
HETATM   19  C   UNL     1       5.651  28.847  53.562  1.00  0.00     0.261 C 
BRANCH  19  20
HETATM   20  N   UNL     1       4.835  30.065  53.130  1.00  0.00    -0.067 N 
HETATM   21  H   UNL     1       5.415  30.884  53.404  1.00  0.00     0.280 HD
HETATM   22  C   UNL     1       4.628  30.227  51.656  1.00  0.00     0.270 C 
HETATM   23  C   UNL     1       3.551  30.204  53.889  1.00  0.00     0.270 C 
ENDBRANCH  19  20
BRANCH  19  24
HETATM   24  C   UNL     1       5.690  28.677  55.052  1.00  0.00     0.085 A 
HETATM   25  O   UNL     1       4.970  27.628  55.548  1.00  0.00    -0.325 OA
HETATM   26  C   UNL     1       5.132  27.632  56.895  1.00  0.00     0.142 A 
HETATM   27  C   UNL     1       5.955  28.663  57.278  1.00  0.00     0.027 A 
HETATM   28  C   UNL     1       6.323  29.340  56.088  1.00  0.00     0.037 A 
ENDBRANCH  19  24
ENDBRANCH  18  19
ENDBRANCH   3  18
TORSDOF 5
ENDMDL
MODEL 10
REMARK VINA RESULT:      -8.1      4.397      9.446
REMARK  5 active torsions:
REMARK  status: ('A' for Active; 'I' for Inactive)
REMARK    1  A    between atoms: C_4  and  N_5 
REMARK       I    between atoms: N_5  and  C_6 
REMARK       I    between atoms: C_6  and  N_7 
REMARK    2  A    between atoms: N_7  and  C_8 
REMARK    3  A    between atoms: C_8  and  C_9 
REMARK    4  A    between atoms: C_9  and  N_10 
REMARK    5  A    between atoms: C_9  and  C_14 
ROOT
HETATM    1  N   UNL     1       5.726  32.482  59.538  1.00  0.00    -0.307 N 
HETATM    2  C   UNL     1       5.652  31.742  58.411  1.00  0.00     0.320 C 
HETATM    3  N   UNL     1       6.150  30.483  58.445  1.00  0.00    -0.340 N 
HETATM    4  O   UNL     1       5.095  32.166  57.400  1.00  0.00    -0.247 OA
HETATM    5  H   UNL     1       5.121  33.304  59.553  1.00  0.00     0.170 HD
HETATM    6  H   UNL     1       6.190  30.053  59.363  1.00  0.00     0.164 HD
ENDROOT
BRANCH   1   7
HETATM    7  C   UNL     1       6.571  32.426  60.678  1.00  0.00     0.066 A 
HETATM    8  C   UNL     1       7.933  32.103  60.622  1.00  0.00     0.038 A 
HETATM    9  C   UNL     1       8.711  32.081  61.785  1.00  0.00    -0.059 A 
HETATM   10  C   UNL     1      10.176  31.761  61.718  1.00  0.00     0.048 C 
HETATM   11  C   UNL     1       8.122  32.439  63.000  1.00  0.00     0.020 A 
HETATM   12  C   UNL     1       6.769  32.808  63.060  1.00  0.00    -0.005 A 
HETATM   13  C   UNL     1       5.976  32.806  61.893  1.00  0.00     0.093 A 
HETATM   14  C   UNL     1       6.174  33.199  64.267  1.00  0.00     0.015 A 
HETATM   15  N   UNL     1       4.671  33.170  61.917  1.00  0.00    -0.258 NA
HETATM   16  C   UNL     1       4.135  33.543  63.101  1.00  0.00     0.117 A 
HETATM   17  C   UNL     1       4.837  33.574  64.289  1.00  0.00     0.020 A 
ENDBRANCH   1   7
BRANCH   3  18
HETATM   18  C   UNL     1       6.433  29.661  57.273  1.00  0.00     0.164 C 
BRANCH  18  19
HETATM   19  C   UNL     1       7.599  28.627  57.388  1.00  0.00     0.261 C 
BRANCH  19  20
HETATM   20  N   UNL     1       7.490  27.518  56.343  1.00  0.00    -0.067 N 
HETATM   21  H   UNL     1       8.302  27.668  55.710  1.00  0.00     0.280 HD
HETATM   22  C   UNL     1       7.663  26.119  56.849  1.00  0.00     0.270 C 
HETATM   23  C   UNL     1       6.273  27.648  55.480  1.00  0.00     0.270 C 
ENDBRANCH  19  20
BRANCH  19  24
HETATM   24  C   UNL     1       8.933  29.311  57.368  1.00  0.00     0.085 A 
HETATM   25  O   UNL     1       8.997  30.506  58.025  1.00  0.00    -0.325 OA
HETATM   26  C   UNL     1      10.270  30.963  57.904  1.00  0.00     0.142 A 
HETATM   27  C   UNL     1      11.033  30.075  57.187  1.00  0.00     0.027 A 
HETATM   28  C   UNL     1      10.174  29.002  56.841  1.00  0.00     0.037 A 
ENDBRANCH  19  24
ENDBRANCH  18  19
ENDBRANCH   3  18
TORSDOF 5
ENDMDL
