MODEL 1
REMARK VINA RESULT:      -9.1      0.000      0.000
REMARK  4 active torsions:
REMARK  status: ('A' for Active; 'I' for Inactive)
REMARK    1  A    between atoms: C_5  and  N_6 
REMARK    2  A    between atoms: C_11  and  C_12 
REMARK    3  A    between atoms: C_13  and  O_14 
REMARK    4  A    between atoms: C_18  and  C_19 
REMARK       I    between atoms: C_19  and  N_20 
ROOT
HETATM    1  C   UNL     1       5.826  29.062  57.489  1.00  0.00     0.023 A 
HETATM    2  C   UNL     1       6.923  29.366  58.222  1.00  0.00     0.153 A 
HETATM    3  N   UNL     1       7.179  30.636  58.616  1.00  0.00    -0.303 N 
HETATM    4  C   UNL     1       6.366  31.703  58.375  1.00  0.00     0.263 A 
HETATM    5  O   UNL     1       6.675  32.827  58.766  1.00  0.00    -0.267 OA
HETATM    6  C   UNL     1       5.104  31.430  57.612  1.00  0.00     0.106 A 
HETATM    7  C   UNL     1       4.890  30.168  57.153  1.00  0.00    -0.026 A 
HETATM    8  C   UNL     1       3.719  29.781  56.275  1.00  0.00     0.050 C 
HETATM    9  H   UNL     1       8.021  30.808  59.151  1.00  0.00     0.171 HD
ENDROOT
BRANCH   1  10
HETATM   10  C   UNL     1       5.604  27.678  57.089  1.00  0.00     0.035 C 
HETATM   11  C   UNL     1       6.233  27.001  56.120  1.00  0.00     0.061 A 
HETATM   12  C   UNL     1       7.260  27.356  55.129  1.00  0.00     0.067 A 
HETATM   13  C   UNL     1       6.028  25.542  55.940  1.00  0.00     0.281 A 
HETATM   14  N   UNL     1       7.701  26.309  54.486  1.00  0.00    -0.168 NA
HETATM   15  C   UNL     1       7.768  28.736  54.875  1.00  0.00     0.073 C 
HETATM   16  N   UNL     1       6.982  25.213  54.967  1.00  0.00    -0.197 N 
HETATM   17  O   UNL     1       5.239  24.870  56.581  1.00  0.00    -0.265 OA
BRANCH  16  18
HETATM   18  C   UNL     1       7.332  23.919  54.506  1.00  0.00     0.062 A 
HETATM   19  C   UNL     1       7.521  22.845  55.384  1.00  0.00     0.032 A 
HETATM   20  C   UNL     1       7.918  21.586  54.913  1.00  0.00     0.009 A 
HETATM   21  C   UNL     1       8.131  21.371  53.551  1.00  0.00    -0.062 A 
HETATM   22  C   UNL     1       8.583  20.036  53.038  1.00  0.00     0.048 C 
HETATM   23  C   UNL     1       7.930  22.432  52.663  1.00  0.00     0.009 A 
HETATM   24  C   UNL     1       7.532  23.687  53.136  1.00  0.00     0.032 A 
ENDBRANCH  16  18
ENDBRANCH   1  10
BRANCH   2  25
HETATM   25  O   UNL     1       7.877  28.486  58.656  1.00  0.00    -0.345 OA
HETATM   26  H   UNL     1       7.669  27.595  58.330  1.00  0.00     0.219 HD
ENDBRANCH   2  25
BRANCH   6  27
HETATM   27  C   UNL     1       4.103  32.529  57.410  1.00  0.00     0.255 C 
HETATM   28  N   UNL     1       4.425  33.492  56.504  1.00  0.00    -0.366 N 
HETATM   29  H   UNL     1       5.377  33.576  56.151  1.00  0.00     0.159 HD
HETATM   30  H   UNL     1       3.828  34.306  56.454  1.00  0.00     0.159 HD
HETATM   31  O   UNL     1       3.053  32.616  58.038  1.00  0.00    -0.268 OA
ENDBRANCH   6  27
TORSDOF 4
ENDMDL
MODEL 2
REMARK VINA RESULT:      -8.9      1.225      2.470
REMARK  4 active torsions:
REMARK  status: ('A' for Active; 'I' for Inactive)
REMARK    1  A    between atoms: C_5  and  N_6 
REMARK    2  A    between atoms: C_11  and  C_12 
REMARK    3  A    between atoms: C_13  and  O_14 
REMARK    4  A    between atoms: C_18  and  C_19 
REMARK       I    between atoms: C_19  and  N_20 
ROOT
HETATM    1  C   UNL     1       5.629  29.135  57.490  1.00  0.00     0.023 A 
HETATM    2  C   UNL     1       4.624  30.003  57.228  1.00  0.00     0.153 A 
HETATM    3  N   UNL     1       4.730  31.318  57.531  1.00  0.00    -0.303 N 
HETATM    4  C   UNL     1       5.838  31.905  58.066  1.00  0.00     0.263 A 
HETATM    5  O   UNL     1       5.851  33.109  58.316  1.00  0.00    -0.267 OA
HETATM    6  C   UNL     1       7.012  31.011  58.334  1.00  0.00     0.106 A 
HETATM    7  C   UNL     1       6.873  29.678  58.099  1.00  0.00    -0.026 A 
HETATM    8  C   UNL     1       7.934  28.651  58.432  1.00  0.00     0.050 C 
HETATM    9  H   UNL     1       3.942  31.919  57.326  1.00  0.00     0.171 HD
ENDROOT
BRANCH   1  10
HETATM   10  C   UNL     1       5.457  27.729  57.145  1.00  0.00     0.035 C 
HETATM   11  C   UNL     1       6.057  27.056  56.155  1.00  0.00     0.061 A 
HETATM   12  C   UNL     1       6.995  27.434  55.087  1.00  0.00     0.067 A 
HETATM   13  C   UNL     1       5.921  25.583  56.029  1.00  0.00     0.281 A 
HETATM   14  N   UNL     1       7.450  26.392  54.445  1.00  0.00    -0.168 NA
HETATM   15  C   UNL     1       7.408  28.830  54.760  1.00  0.00     0.073 C 
HETATM   16  N   UNL     1       6.826  25.275  55.004  1.00  0.00    -0.197 N 
HETATM   17  O   UNL     1       5.214  24.891  56.741  1.00  0.00    -0.265 OA
BRANCH  16  18
HETATM   18  C   UNL     1       7.215  23.987  54.556  1.00  0.00     0.062 A 
HETATM   19  C   UNL     1       7.444  22.931  55.447  1.00  0.00     0.032 A 
HETATM   20  C   UNL     1       7.879  21.681  54.988  1.00  0.00     0.009 A 
HETATM   21  C   UNL     1       8.091  21.455  53.627  1.00  0.00    -0.062 A 
HETATM   22  C   UNL     1       8.583  20.130  53.128  1.00  0.00     0.048 C 
HETATM   23  C   UNL     1       7.849  22.498  52.728  1.00  0.00     0.009 A 
HETATM   24  C   UNL     1       7.413  23.745  53.188  1.00  0.00     0.032 A 
ENDBRANCH  16  18
ENDBRANCH   1  10
BRANCH   2  25
HETATM   25  O   UNL     1       3.424  29.701  56.644  1.00  0.00    -0.345 OA
HETATM   26  H   UNL     1       2.751  29.572  57.333  1.00  0.00     0.219 HD
ENDBRANCH   2  25
BRANCH   6  27
HETATM   27  C   UNL     1       8.306  31.602  58.811  1.00  0.00     0.255 C 
HETATM   28  N   UNL     1       8.285  32.227  60.019  1.00  0.00    -0.366 N 
HETATM   29  H   UNL     1       7.402  32.466  60.466  1.00  0.00     0.159 HD
HETATM   30  H   UNL     1       9.109  32.745  60.292  1.00  0.00     0.159 HD
HETATM   31  O   UNL     1       9.343  31.582  58.158  1.00  0.00    -0.268 OA
ENDBRANCH   6  27
TORSDOF 4
ENDMDL
MODEL 3
REMARK VINA RESULT:      -8.9      3.750      8.891
REMARK  4 active torsions:
REMARK  status: ('A' for Active; 'I' for Inactive)
REMARK    1  A    between atoms: C_5  and  N_6 
REMARK    2  A    between atoms: C_11  and  C_12 
REMARK    3  A    between atoms: C_13  and  O_14 
REMARK    4  A    between atoms: C_18  and  C_19 
REMARK       I    between atoms: C_19  and  N_20 
ROOT
HETATM    1  C   UNL     1       8.080  28.925  56.707  1.00  0.00     0.023 A 
HETATM    2  C   UNL     1       8.898  29.180  55.659  1.00  0.00     0.153 A 
HETATM    3  N   UNL     1       8.601  28.750  54.410  1.00  0.00    -0.303 N 
HETATM    4  C   UNL     1       7.462  28.083  54.068  1.00  0.00     0.263 A 
HETATM    5  O   UNL     1       7.269  27.724  52.908  1.00  0.00    -0.267 OA
HETATM    6  C   UNL     1       6.482  27.813  55.172  1.00  0.00     0.106 A 
HETATM    7  C   UNL     1       6.822  28.179  56.437  1.00  0.00    -0.026 A 
HETATM    8  C   UNL     1       5.981  27.864  57.657  1.00  0.00     0.050 C 
HETATM    9  H   UNL     1       9.256  28.957  53.667  1.00  0.00     0.171 HD
ENDROOT
BRANCH   1  10
HETATM   10  C   UNL     1       8.454  29.408  58.030  1.00  0.00     0.035 C 
HETATM   11  C   UNL     1       7.864  30.382  58.736  1.00  0.00     0.061 A 
HETATM   12  C   UNL     1       6.750  31.303  58.469  1.00  0.00     0.067 A 
HETATM   13  C   UNL     1       8.243  30.651  60.146  1.00  0.00     0.281 A 
HETATM   14  N   UNL     1       6.411  31.980  59.533  1.00  0.00    -0.168 NA
HETATM   15  C   UNL     1       6.059  31.459  57.156  1.00  0.00     0.073 C 
HETATM   16  N   UNL     1       7.287  31.594  60.549  1.00  0.00    -0.197 N 
HETATM   17  O   UNL     1       9.143  30.084  60.740  1.00  0.00    -0.265 OA
BRANCH  16  18
HETATM   18  C   UNL     1       7.079  32.107  61.853  1.00  0.00     0.062 A 
HETATM   19  C   UNL     1       5.796  32.359  62.355  1.00  0.00     0.032 A 
HETATM   20  C   UNL     1       5.614  32.916  63.628  1.00  0.00     0.009 A 
HETATM   21  C   UNL     1       6.711  33.231  64.431  1.00  0.00    -0.062 A 
HETATM   22  C   UNL     1       6.528  33.854  65.783  1.00  0.00     0.048 C 
HETATM   23  C   UNL     1       7.995  32.969  63.947  1.00  0.00     0.009 A 
HETATM   24  C   UNL     1       8.175  32.411  62.676  1.00  0.00     0.032 A 
ENDBRANCH  16  18
ENDBRANCH   1  10
BRANCH   2  25
HETATM   25  O   UNL     1      10.076  29.875  55.701  1.00  0.00    -0.345 OA
HETATM   26  H   UNL     1      10.292  30.201  54.811  1.00  0.00     0.219 HD
ENDBRANCH   2  25
BRANCH   6  27
HETATM   27  C   UNL     1       5.155  27.191  54.855  1.00  0.00     0.255 C 
HETATM   28  N   UNL     1       5.128  25.836  54.729  1.00  0.00    -0.366 N 
HETATM   29  H   UNL     1       5.993  25.305  54.640  1.00  0.00     0.159 HD
HETATM   30  H   UNL     1       4.277  25.415  54.384  1.00  0.00     0.159 HD
HETATM   31  O   UNL     1       4.129  27.836  54.669  1.00  0.00    -0.268 OA
ENDBRANCH   6  27
TORSDOF 4
ENDMDL
MODEL 4
REMARK VINA RESULT:      -8.9      2.715      8.929
REMARK  4 active torsions:
REMARK  status: ('A' for Active; 'I' for Inactive)
REMARK    1  A    between atoms: C_5  and  N_6 
REMARK    2  A    between atoms: C_11  and  C_12 
REMARK    3  A    between atoms: C_13  and  O_14 
REMARK    4  A    between atoms: C_18  and  C_19 
REMARK       I    between atoms: C_19  and  N_20 
ROOT
HETATM    1  C   UNL     1       7.869  24.440  54.456  1.00  0.00     0.023 A 
HETATM    2  C   UNL     1       7.374  23.931  53.304  1.00  0.00     0.153 A 
HETATM    3  N   UNL     1       7.376  22.598  53.063  1.00  0.00    -0.303 N 
HETATM    4  C   UNL     1       7.812  21.650  53.940  1.00  0.00     0.263 A 
HETATM    5  O   UNL     1       7.782  20.458  53.641  1.00  0.00    -0.267 OA
HETATM    6  C   UNL     1       8.325  22.141  55.262  1.00  0.00     0.106 A 
HETATM    7  C   UNL     1       8.392  23.484  55.468  1.00  0.00    -0.026 A 
HETATM    8  C   UNL     1       8.994  24.114  56.705  1.00  0.00     0.050 C 
HETATM    9  H   UNL     1       7.006  22.273  52.178  1.00  0.00     0.171 HD
ENDROOT
BRANCH   1  10
HETATM   10  C   UNL     1       7.844  25.883  54.659  1.00  0.00     0.035 C 
HETATM   11  C   UNL     1       7.014  26.578  55.447  1.00  0.00     0.061 A 
HETATM   12  C   UNL     1       5.872  26.215  56.298  1.00  0.00     0.067 A 
HETATM   13  C   UNL     1       7.217  28.028  55.693  1.00  0.00     0.281 A 
HETATM   14  N   UNL     1       5.465  27.220  57.026  1.00  0.00    -0.168 NA
HETATM   15  C   UNL     1       5.239  24.865  56.356  1.00  0.00     0.073 C 
HETATM   16  N   UNL     1       6.268  28.311  56.685  1.00  0.00    -0.197 N 
HETATM   17  O   UNL     1       8.077  28.706  55.159  1.00  0.00    -0.265 OA
BRANCH  16  18
HETATM   18  C   UNL     1       6.105  29.521  57.404  1.00  0.00     0.062 A 
HETATM   19  C   UNL     1       7.166  30.119  58.096  1.00  0.00     0.032 A 
HETATM   20  C   UNL     1       6.973  31.288  58.844  1.00  0.00     0.009 A 
HETATM   21  C   UNL     1       5.715  31.889  58.915  1.00  0.00    -0.062 A 
HETATM   22  C   UNL     1       5.491  33.124  59.736  1.00  0.00     0.048 C 
HETATM   23  C   UNL     1       4.653  31.309  58.215  1.00  0.00     0.009 A 
HETATM   24  C   UNL     1       4.849  30.143  57.466  1.00  0.00     0.032 A 
ENDBRANCH  16  18
ENDBRANCH   1  10
BRANCH   2  25
HETATM   25  O   UNL     1       6.822  24.642  52.274  1.00  0.00    -0.345 OA
HETATM   26  H   UNL     1       5.987  24.227  52.003  1.00  0.00     0.219 HD
ENDBRANCH   2  25
BRANCH   6  27
HETATM   27  C   UNL     1       8.711  21.154  56.324  1.00  0.00     0.255 C 
HETATM   28  N   UNL     1       9.633  20.214  55.981  1.00  0.00    -0.366 N 
HETATM   29  H   UNL     1       9.879  20.059  55.005  1.00  0.00     0.159 HD
HETATM   30  H   UNL     1       9.803  19.464  56.637  1.00  0.00     0.159 HD
HETATM   31  O   UNL     1       8.215  21.134  57.445  1.00  0.00    -0.268 OA
ENDBRANCH   6  27
TORSDOF 4
ENDMDL
MODEL 5
REMARK VINA RESULT:      -8.8      2.585      8.779
REMARK  4 active torsions:
REMARK  status: ('A' for Active; 'I' for Inactive)
REMARK    1  A    between atoms: C_5  and  N_6 
REMARK    2  A    between atoms: C_11  and  C_12 
REMARK    3  A    between atoms: C_13  and  O_14 
REMARK    4  A    between atoms: C_18  and  C_19 
REMARK       I    between atoms: C_19  and  N_20 
ROOT
HETATM    1  C   UNL     1       8.148  24.914  56.096  1.00  0.00     0.023 A 
HETATM    2  C   UNL     1       8.268  24.460  57.365  1.00  0.00     0.153 A 
HETATM    3  N   UNL     1       8.352  23.136  57.637  1.00  0.00    -0.303 N 
HETATM    4  C   UNL     1       8.376  22.149  56.696  1.00  0.00     0.263 A 
HETATM    5  O   UNL     1       8.450  20.968  57.028  1.00  0.00    -0.267 OA
HETATM    6  C   UNL     1       8.301  22.584  55.262  1.00  0.00     0.106 A 
HETATM    7  C   UNL     1       8.140  23.909  54.999  1.00  0.00    -0.026 A 
HETATM    8  C   UNL     1       7.935  24.470  53.608  1.00  0.00     0.050 C 
HETATM    9  H   UNL     1       8.426  22.852  58.606  1.00  0.00     0.171 HD
ENDROOT
BRANCH   1  10
HETATM   10  C   UNL     1       8.058  26.350  55.863  1.00  0.00     0.035 C 
HETATM   11  C   UNL     1       7.022  27.153  56.136  1.00  0.00     0.061 A 
HETATM   12  C   UNL     1       5.672  26.931  56.673  1.00  0.00     0.067 A 
HETATM   13  C   UNL     1       7.136  28.628  56.009  1.00  0.00     0.281 A 
HETATM   14  N   UNL     1       5.057  28.053  56.929  1.00  0.00    -0.168 NA
HETATM   15  C   UNL     1       5.055  25.595  56.920  1.00  0.00     0.073 C 
HETATM   16  N   UNL     1       5.923  29.080  56.548  1.00  0.00    -0.197 N 
HETATM   17  O   UNL     1       8.118  29.212  55.586  1.00  0.00    -0.265 OA
BRANCH  16  18
HETATM   18  C   UNL     1       5.542  30.420  56.812  1.00  0.00     0.062 A 
HETATM   19  C   UNL     1       4.894  31.207  55.852  1.00  0.00     0.032 A 
HETATM   20  C   UNL     1       4.573  32.546  56.113  1.00  0.00     0.009 A 
HETATM   21  C   UNL     1       4.888  33.127  57.342  1.00  0.00    -0.062 A 
HETATM   22  C   UNL     1       4.574  34.567  57.622  1.00  0.00     0.048 C 
HETATM   23  C   UNL     1       5.521  32.346  58.313  1.00  0.00     0.009 A 
HETATM   24  C   UNL     1       5.839  31.008  58.051  1.00  0.00     0.032 A 
ENDBRANCH  16  18
ENDBRANCH   1  10
BRANCH   2  25
HETATM   25  O   UNL     1       8.328  25.226  58.497  1.00  0.00    -0.345 OA
HETATM   26  H   UNL     1       7.427  25.438  58.793  1.00  0.00     0.219 HD
ENDBRANCH   2  25
BRANCH   6  27
HETATM   27  C   UNL     1       8.441  21.568  54.167  1.00  0.00     0.255 C 
HETATM   28  N   UNL     1       7.622  20.483  54.230  1.00  0.00    -0.366 N 
HETATM   29  H   UNL     1       7.105  20.271  55.081  1.00  0.00     0.159 HD
HETATM   30  H   UNL     1       7.796  19.728  53.581  1.00  0.00     0.159 HD
HETATM   31  O   UNL     1       9.267  21.651  53.265  1.00  0.00    -0.268 OA
ENDBRANCH   6  27
TORSDOF 4
ENDMDL
MODEL 6
REMARK VINA RESULT:      -8.7      5.367      6.714
REMARK  4 active torsions:
REMARK  status: ('A' for Active; 'I' for Inactive)
REMARK    1  A    between atoms: C_5  and  N_6 
REMARK    2  A    between atoms: C_11  and  C_12 
REMARK    3  A    between atoms: C_13  and  O_14 
REMARK    4  A    between atoms: C_18  and  C_19 
REMARK       I    between atoms: C_19  and  N_20 
ROOT
HETATM    1  C   UNL     1       5.108  27.948  50.365  1.00  0.00     0.023 A 
HETATM    2  C   UNL     1       5.065  29.238  50.771  1.00  0.00     0.153 A 
HETATM    3  N   UNL     1       4.136  30.099  50.292  1.00  0.00    -0.303 N 
HETATM    4  C   UNL     1       3.144  29.764  49.419  1.00  0.00     0.263 A 
HETATM    5  O   UNL     1       2.340  30.609  49.030  1.00  0.00    -0.267 OA
HETATM    6  C   UNL     1       3.098  28.334  48.968  1.00  0.00     0.106 A 
HETATM    7  C   UNL     1       4.079  27.493  49.393  1.00  0.00    -0.026 A 
HETATM    8  C   UNL     1       4.218  26.061  48.924  1.00  0.00     0.050 C 
HETATM    9  H   UNL     1       4.160  31.056  50.620  1.00  0.00     0.171 HD
ENDROOT
BRANCH   1  10
HETATM   10  C   UNL     1       6.134  27.068  50.913  1.00  0.00     0.035 C 
HETATM   11  C   UNL     1       6.114  26.433  52.091  1.00  0.00     0.061 A 
HETATM   12  C   UNL     1       5.174  26.408  53.222  1.00  0.00     0.067 A 
HETATM   13  C   UNL     1       7.148  25.427  52.443  1.00  0.00     0.281 A 
HETATM   14  N   UNL     1       5.491  25.497  54.101  1.00  0.00    -0.168 NA
HETATM   15  C   UNL     1       3.984  27.296  53.369  1.00  0.00     0.073 C 
HETATM   16  N   UNL     1       6.664  24.892  53.645  1.00  0.00    -0.197 N 
HETATM   17  O   UNL     1       8.115  25.159  51.751  1.00  0.00    -0.265 OA
BRANCH  16  18
HETATM   18  C   UNL     1       7.181  23.787  54.367  1.00  0.00     0.062 A 
HETATM   19  C   UNL     1       7.474  23.868  55.734  1.00  0.00     0.032 A 
HETATM   20  C   UNL     1       8.034  22.781  56.418  1.00  0.00     0.009 A 
HETATM   21  C   UNL     1       8.310  21.586  55.752  1.00  0.00    -0.062 A 
HETATM   22  C   UNL     1       8.935  20.426  56.468  1.00  0.00     0.048 C 
HETATM   23  C   UNL     1       8.006  21.489  54.392  1.00  0.00     0.009 A 
HETATM   24  C   UNL     1       7.445  22.575  53.711  1.00  0.00     0.032 A 
ENDBRANCH  16  18
ENDBRANCH   1  10
BRANCH   2  25
HETATM   25  O   UNL     1       5.900  29.831  51.679  1.00  0.00    -0.345 OA
HETATM   26  H   UNL     1       5.520  30.678  51.966  1.00  0.00     0.219 HD
ENDBRANCH   2  25
BRANCH   6  27
HETATM   27  C   UNL     1       1.967  27.862  48.102  1.00  0.00     0.255 C 
HETATM   28  N   UNL     1       0.942  27.222  48.729  1.00  0.00    -0.366 N 
HETATM   29  H   UNL     1       1.043  26.894  49.688  1.00  0.00     0.159 HD
HETATM   30  H   UNL     1       0.242  26.781  48.149  1.00  0.00     0.159 HD
HETATM   31  O   UNL     1       1.946  27.989  46.883  1.00  0.00    -0.268 OA
ENDBRANCH   6  27
TORSDOF 4
ENDMDL
MODEL 7
REMARK VINA RESULT:      -8.7      2.594      3.158
REMARK  4 active torsions:
REMARK  status: ('A' for Active; 'I' for Inactive)
REMARK    1  A    between atoms: C_5  and  N_6 
REMARK    2  A    between atoms: C_11  and  C_12 
REMARK    3  A    between atoms: C_13  and  O_14 
REMARK    4  A    between atoms: C_18  and  C_19 
REMARK       I    between atoms: C_19  and  N_20 
ROOT
HETATM    1  C   UNL     1       4.141  28.973  54.267  1.00  0.00     0.023 A 
HETATM    2  C   UNL     1       3.806  29.199  55.559  1.00  0.00     0.153 A 
HETATM    3  N   UNL     1       3.598  30.454  56.025  1.00  0.00    -0.303 N 
HETATM    4  C   UNL     1       3.649  31.584  55.264  1.00  0.00     0.263 A 
HETATM    5  O   UNL     1       3.450  32.688  55.767  1.00  0.00    -0.267 OA
HETATM    6  C   UNL     1       3.963  31.402  53.808  1.00  0.00     0.106 A 
HETATM    7  C   UNL     1       4.246  30.149  53.362  1.00  0.00    -0.026 A 
HETATM    8  C   UNL     1       4.690  29.841  51.948  1.00  0.00     0.050 C 
HETATM    9  H   UNL     1       3.363  30.565  57.003  1.00  0.00     0.171 HD
ENDROOT
BRANCH   1  10
HETATM   10  C   UNL     1       4.357  27.602  53.823  1.00  0.00     0.035 C 
HETATM   11  C   UNL     1       5.456  26.855  53.995  1.00  0.00     0.061 A 
HETATM   12  C   UNL     1       6.776  27.105  54.592  1.00  0.00     0.067 A 
HETATM   13  C   UNL     1       5.472  25.413  53.644  1.00  0.00     0.281 A 
HETATM   14  N   UNL     1       7.483  26.012  54.690  1.00  0.00    -0.168 NA
HETATM   15  C   UNL     1       7.272  28.435  55.053  1.00  0.00     0.073 C 
HETATM   16  N   UNL     1       6.712  24.987  54.138  1.00  0.00    -0.197 N 
HETATM   17  O   UNL     1       4.548  24.820  53.115  1.00  0.00    -0.265 OA
BRANCH  16  18
HETATM   18  C   UNL     1       7.205  23.660  54.204  1.00  0.00     0.062 A 
HETATM   19  C   UNL     1       7.341  22.980  55.421  1.00  0.00     0.032 A 
HETATM   20  C   UNL     1       7.879  21.687  55.471  1.00  0.00     0.009 A 
HETATM   21  C   UNL     1       8.289  21.041  54.303  1.00  0.00    -0.062 A 
HETATM   22  C   UNL     1       8.892  19.669  54.348  1.00  0.00     0.048 C 
HETATM   23  C   UNL     1       8.143  21.704  53.082  1.00  0.00     0.009 A 
HETATM   24  C   UNL     1       7.603  22.994  53.034  1.00  0.00     0.032 A 
ENDBRANCH  16  18
ENDBRANCH   1  10
BRANCH   2  25
HETATM   25  O   UNL     1       3.630  28.251  56.529  1.00  0.00    -0.345 OA
HETATM   26  H   UNL     1       2.823  28.448  57.033  1.00  0.00     0.219 HD
ENDBRANCH   2  25
BRANCH   6  27
HETATM   27  C   UNL     1       3.920  32.583  52.884  1.00  0.00     0.255 C 
HETATM   28  N   UNL     1       4.998  33.413  52.901  1.00  0.00    -0.366 N 
HETATM   29  H   UNL     1       5.687  33.356  53.648  1.00  0.00     0.159 HD
HETATM   30  H   UNL     1       4.928  34.281  52.387  1.00  0.00     0.159 HD
HETATM   31  O   UNL     1       2.964  32.847  52.163  1.00  0.00    -0.268 OA
ENDBRANCH   6  27
TORSDOF 4
ENDMDL
MODEL 8
REMARK VINA RESULT:      -8.5      1.953      3.100
REMARK  4 active torsions:
REMARK  status: ('A' for Active; 'I' for Inactive)
REMARK    1  A    between atoms: C_5  and  N_6 
REMARK    2  A    between atoms: C_11  and  C_12 
REMARK    3  A    between atoms: C_13  and  O_14 
REMARK    4  A    between atoms: C_18  and  C_19 
REMARK       I    between atoms: C_19  and  N_20 
ROOT
HETATM    1  C   UNL     1       5.201  29.699  55.169  1.00  0.00     0.023 A 
HETATM    2  C   UNL     1       4.039  29.873  54.498  1.00  0.00     0.153 A 
HETATM    3  N   UNL     1       3.106  30.759  54.918  1.00  0.00    -0.303 N 
HETATM    4  C   UNL     1       3.248  31.584  55.995  1.00  0.00     0.263 A 
HETATM    5  O   UNL     1       2.349  32.360  56.312  1.00  0.00    -0.267 OA
HETATM    6  C   UNL     1       4.537  31.484  56.756  1.00  0.00     0.106 A 
HETATM    7  C   UNL     1       5.437  30.539  56.374  1.00  0.00    -0.026 A 
HETATM    8  C   UNL     1       6.722  30.253  57.122  1.00  0.00     0.050 C 
HETATM    9  H   UNL     1       2.249  30.838  54.385  1.00  0.00     0.171 HD
ENDROOT
BRANCH   1  10
HETATM   10  C   UNL     1       6.167  28.727  54.672  1.00  0.00     0.035 C 
HETATM   11  C   UNL     1       6.280  27.441  55.024  1.00  0.00     0.061 A 
HETATM   12  C   UNL     1       5.585  26.584  55.997  1.00  0.00     0.067 A 
HETATM   13  C   UNL     1       7.198  26.521  54.306  1.00  0.00     0.281 A 
HETATM   14  N   UNL     1       5.923  25.329  55.873  1.00  0.00    -0.168 NA
HETATM   15  C   UNL     1       4.595  27.060  57.007  1.00  0.00     0.073 C 
HETATM   16  N   UNL     1       6.880  25.272  54.858  1.00  0.00    -0.197 N 
HETATM   17  O   UNL     1       7.960  26.860  53.418  1.00  0.00    -0.265 OA
BRANCH  16  18
HETATM   18  C   UNL     1       7.353  24.001  54.445  1.00  0.00     0.062 A 
HETATM   19  C   UNL     1       7.511  23.674  53.093  1.00  0.00     0.032 A 
HETATM   20  C   UNL     1       7.930  22.395  52.703  1.00  0.00     0.009 A 
HETATM   21  C   UNL     1       8.205  21.414  53.657  1.00  0.00    -0.062 A 
HETATM   22  C   UNL     1       8.627  20.033  53.251  1.00  0.00     0.048 C 
HETATM   23  C   UNL     1       8.066  21.735  55.010  1.00  0.00     0.009 A 
HETATM   24  C   UNL     1       7.649  23.014  55.397  1.00  0.00     0.032 A 
ENDBRANCH  16  18
ENDBRANCH   1  10
BRANCH   2  25
HETATM   25  O   UNL     1       3.658  29.222  53.356  1.00  0.00    -0.345 OA
HETATM   26  H   UNL     1       2.688  29.215  53.295  1.00  0.00     0.219 HD
ENDBRANCH   2  25
BRANCH   6  27
HETATM   27  C   UNL     1       4.815  32.439  57.878  1.00  0.00     0.255 C 
HETATM   28  N   UNL     1       4.090  32.274  59.018  1.00  0.00    -0.366 N 
HETATM   29  H   UNL     1       3.262  31.681  59.025  1.00  0.00     0.159 HD
HETATM   30  H   UNL     1       4.168  32.988  59.729  1.00  0.00     0.159 HD
HETATM   31  O   UNL     1       5.618  33.363  57.801  1.00  0.00    -0.268 OA
ENDBRANCH   6  27
TORSDOF 4
ENDMDL
MODEL 9
REMARK VINA RESULT:      -8.3      2.491      3.342
REMARK  4 active torsions:
REMARK  status: ('A' for Active; 'I' for Inactive)
REMARK    1  A    between atoms: C_5  and  N_6 
REMARK    2  A    between atoms: C_11  and  C_12 
REMARK    3  A    between atoms: C_13  and  O_14 
REMARK    4  A    between atoms: C_18  and  C_19 
REMARK       I    between atoms: C_19  and  N_20 
ROOT
HETATM    1  C   UNL     1       4.355  29.041  53.727  1.00  0.00     0.023 A 
HETATM    2  C   UNL     1       4.402  29.903  52.685  1.00  0.00     0.153 A 
HETATM    3  N   UNL     1       4.253  31.237  52.865  1.00  0.00    -0.303 N 
HETATM    4  C   UNL     1       4.096  31.846  54.074  1.00  0.00     0.263 A 
HETATM    5  O   UNL     1       3.963  33.065  54.150  1.00  0.00    -0.267 OA
HETATM    6  C   UNL     1       4.089  30.954  55.281  1.00  0.00     0.106 A 
HETATM    7  C   UNL     1       4.162  29.610  55.089  1.00  0.00    -0.026 A 
HETATM    8  C   UNL     1       4.050  28.594  56.205  1.00  0.00     0.050 C 
HETATM    9  H   UNL     1       4.283  31.834  52.047  1.00  0.00     0.171 HD
ENDROOT
BRANCH   1  10
HETATM   10  C   UNL     1       4.518  27.615  53.474  1.00  0.00     0.035 C 
HETATM   11  C   UNL     1       5.630  26.885  53.627  1.00  0.00     0.061 A 
HETATM   12  C   UNL     1       7.012  27.200  54.020  1.00  0.00     0.067 A 
HETATM   13  C   UNL     1       5.606  25.406  53.500  1.00  0.00     0.281 A 
HETATM   14  N   UNL     1       7.727  26.122  54.200  1.00  0.00    -0.168 NA
HETATM   15  C   UNL     1       7.558  28.575  54.213  1.00  0.00     0.073 C 
HETATM   16  N   UNL     1       6.897  25.039  53.903  1.00  0.00    -0.197 N 
HETATM   17  O   UNL     1       4.627  24.756  53.178  1.00  0.00    -0.265 OA
BRANCH  16  18
HETATM   18  C   UNL     1       7.395  23.728  54.112  1.00  0.00     0.062 A 
HETATM   19  C   UNL     1       7.741  22.889  53.046  1.00  0.00     0.032 A 
HETATM   20  C   UNL     1       8.182  21.578  53.271  1.00  0.00     0.009 A 
HETATM   21  C   UNL     1       8.292  21.077  54.570  1.00  0.00    -0.062 A 
HETATM   22  C   UNL     1       8.736  19.667  54.822  1.00  0.00     0.048 C 
HETATM   23  C   UNL     1       7.965  21.912  55.642  1.00  0.00     0.009 A 
HETATM   24  C   UNL     1       7.527  23.222  55.414  1.00  0.00     0.032 A 
ENDBRANCH  16  18
ENDBRANCH   1  10
BRANCH   2  25
HETATM   25  O   UNL     1       4.604  29.577  51.372  1.00  0.00    -0.345 OA
HETATM   26  H   UNL     1       5.422  29.994  51.055  1.00  0.00     0.219 HD
ENDBRANCH   2  25
BRANCH   6  27
HETATM   27  C   UNL     1       4.040  31.558  56.653  1.00  0.00     0.255 C 
HETATM   28  N   UNL     1       5.121  32.289  57.040  1.00  0.00    -0.366 N 
HETATM   29  H   UNL     1       5.994  32.244  56.516  1.00  0.00     0.159 HD
HETATM   30  H   UNL     1       5.164  32.588  58.004  1.00  0.00     0.159 HD
HETATM   31  O   UNL     1       3.111  31.393  57.436  1.00  0.00    -0.268 OA
ENDBRANCH   6  27
TORSDOF 4
ENDMDL
MODEL 10
REMARK VINA RESULT:      -8.2      1.694      2.107
REMARK  4 active torsions:
REMARK  status: ('A' for Active; 'I' for Inactive)
REMARK    1  A    between atoms: C_5  and  N_6 
REMARK    2  A    between atoms: C_11  and  C_12 
REMARK    3  A    between atoms: C_13  and  O_14 
REMARK    4  A    between atoms: C_18  and  C_19 
REMARK       I    between atoms: C_19  and  N_20 
ROOT
HETATM    1  C   UNL     1       6.856  29.832  56.669  1.00  0.00     0.023 A 
HETATM    2  C   UNL     1       7.809  30.406  57.440  1.00  0.00     0.153 A 
HETATM    3  N   UNL     1       7.490  31.290  58.415  1.00  0.00    -0.303 N 
HETATM    4  C   UNL     1       6.220  31.649  58.754  1.00  0.00     0.263 A 
HETATM    5  O   UNL     1       6.016  32.464  59.652  1.00  0.00    -0.267 OA
HETATM    6  C   UNL     1       5.108  31.009  57.975  1.00  0.00     0.106 A 
HETATM    7  C   UNL     1       5.437  30.181  56.947  1.00  0.00    -0.026 A 
HETATM    8  C   UNL     1       4.421  29.561  56.010  1.00  0.00     0.050 C 
HETATM    9  H   UNL     1       8.245  31.700  58.951  1.00  0.00     0.171 HD
ENDROOT
BRANCH   1  10
HETATM   10  C   UNL     1       7.258  28.890  55.632  1.00  0.00     0.035 C 
HETATM   11  C   UNL     1       7.595  27.603  55.789  1.00  0.00     0.061 A 
HETATM   12  C   UNL     1       7.736  26.721  56.956  1.00  0.00     0.067 A 
HETATM   13  C   UNL     1       7.813  26.714  54.620  1.00  0.00     0.281 A 
HETATM   14  N   UNL     1       7.923  25.476  56.609  1.00  0.00    -0.168 NA
HETATM   15  C   UNL     1       7.664  27.162  58.380  1.00  0.00     0.073 C 
HETATM   16  N   UNL     1       7.961  25.453  55.213  1.00  0.00    -0.197 N 
HETATM   17  O   UNL     1       7.784  27.081  53.458  1.00  0.00    -0.265 OA
BRANCH  16  18
HETATM   18  C   UNL     1       8.056  24.199  54.560  1.00  0.00     0.062 A 
HETATM   19  C   UNL     1       7.343  23.918  53.388  1.00  0.00     0.032 A 
HETATM   20  C   UNL     1       7.409  22.655  52.786  1.00  0.00     0.009 A 
HETATM   21  C   UNL     1       8.195  21.643  53.340  1.00  0.00    -0.062 A 
HETATM   22  C   UNL     1       8.252  20.278  52.720  1.00  0.00     0.048 C 
HETATM   23  C   UNL     1       8.924  21.917  54.500  1.00  0.00     0.009 A 
HETATM   24  C   UNL     1       8.857  23.181  55.098  1.00  0.00     0.032 A 
ENDBRANCH  16  18
ENDBRANCH   1  10
BRANCH   2  25
HETATM   25  O   UNL     1       9.157  30.187  57.360  1.00  0.00    -0.345 OA
HETATM   26  H   UNL     1       9.321  29.295  57.011  1.00  0.00     0.219 HD
ENDBRANCH   2  25
BRANCH   6  27
HETATM   27  C   UNL     1       3.682  31.262  58.366  1.00  0.00     0.255 C 
HETATM   28  N   UNL     1       3.138  30.413  59.281  1.00  0.00    -0.366 N 
HETATM   29  H   UNL     1       3.600  29.537  59.516  1.00  0.00     0.159 HD
HETATM   30  H   UNL     1       2.145  30.486  59.453  1.00  0.00     0.159 HD
HETATM   31  O   UNL     1       2.992  32.151  57.880  1.00  0.00    -0.268 OA
ENDBRANCH   6  27
TORSDOF 4
ENDMDL
