MODEL 1
REMARK VINA RESULT:      -9.4      0.000      0.000
REMARK  9 active torsions:
REMARK  status: ('A' for Active; 'I' for Inactive)
REMARK    1  A    between atoms: C_2  and  C_3 
REMARK       I    between atoms: C_3  and  N_4 
REMARK    2  A    between atoms: N_4  and  N_5 
REMARK    3  A    between atoms: N_5  and  C_6 
REMARK    4  A    between atoms: C_6  and  N_7 
REMARK    5  A    between atoms: N_7  and  C_8 
REMARK    6  A    between atoms: C_18  and  N_19 
REMARK    7  A    between atoms: N_19  and  C_20 
REMARK    8  A    between atoms: C_20  and  N_21 
REMARK    9  A    between atoms: N_21  and  C_22 
ROOT
HETATM    1  C   UNL     1       8.104  29.109  55.871  1.00  0.00     0.019 A 
HETATM    2  C   UNL     1       8.163  28.730  57.215  1.00  0.00     0.033 A 
HETATM    3  C   UNL     1       7.949  27.388  57.551  1.00  0.00     0.019 A 
HETATM    4  C   UNL     1       7.654  26.439  56.562  1.00  0.00     0.030 A 
HETATM    5  C   UNL     1       7.562  26.821  55.225  1.00  0.00     0.033 A 
HETATM    6  C   UNL     1       7.805  28.158  54.888  1.00  0.00     0.030 A 
ENDROOT
BRANCH   2   7
HETATM    7  C   UNL     1       8.485  29.697  58.304  1.00  0.00     0.270 C 
HETATM    8  N   UNL     1       7.460  30.011  59.175  1.00  0.00    -0.264 N 
HETATM    9  H   UNL     1       6.515  29.651  59.110  1.00  0.00     0.190 HD
HETATM   10  O   UNL     1       9.613  30.171  58.415  1.00  0.00    -0.266 OA
BRANCH   8  11
HETATM   11  N   UNL     1       7.668  31.029  60.116  1.00  0.00    -0.274 N 
HETATM   12  H   UNL     1       8.644  31.292  60.211  1.00  0.00     0.189 HD
BRANCH  11  13
HETATM   13  C   UNL     1       6.736  32.009  60.285  1.00  0.00     0.186 C 
HETATM   14  S   UNL     1       5.547  32.403  59.170  1.00  0.00    -0.040 SA
BRANCH  13  15
HETATM   15  N   UNL     1       6.729  32.674  61.467  1.00  0.00    -0.361 N 
HETATM   16  H   UNL     1       6.553  33.664  61.332  1.00  0.00     0.162 HD
BRANCH  15  17
HETATM   17  C   UNL     1       6.669  32.227  62.865  1.00  0.00     0.083 C 
HETATM   18  C   UNL     1       7.872  32.678  63.706  1.00  0.00     0.025 C 
HETATM   19  C   UNL     1       7.610  33.856  64.635  1.00  0.00     0.002 C 
HETATM   20  C   UNL     1       6.345  33.652  65.452  1.00  0.00     0.000 C 
HETATM   21  C   UNL     1       5.128  33.486  64.555  1.00  0.00     0.002 C 
HETATM   22  C   UNL     1       5.290  32.368  63.529  1.00  0.00     0.025 C 
ENDBRANCH  15  17
ENDBRANCH  13  15
ENDBRANCH  11  13
ENDBRANCH   8  11
ENDBRANCH   2   7
BRANCH   5  23
HETATM   23  N   UNL     1       7.320  25.943  54.151  1.00  0.00    -0.338 N 
HETATM   24  H   UNL     1       7.806  26.174  53.297  1.00  0.00     0.168 HD
BRANCH  23  25
HETATM   25  C   UNL     1       6.400  24.955  53.949  1.00  0.00     0.151 C 
HETATM   26  S   UNL     1       4.925  25.043  53.178  1.00  0.00    -0.047 SA
BRANCH  25  27
HETATM   27  N   UNL     1       6.828  23.705  54.340  1.00  0.00    -0.265 NA
HETATM   28  H   UNL     1       6.467  23.540  55.275  1.00  0.00     0.130 HD
BRANCH  27  29
HETATM   29  C   UNL     1       8.208  23.191  54.207  1.00  0.00     0.062 C 
HETATM   30  C   UNL     1       8.772  22.899  55.611  1.00  0.00     0.020 C 
HETATM   31  C   UNL     1       8.149  21.649  56.237  1.00  0.00     0.002 C 
HETATM   32  C   UNL     1       8.297  20.428  55.335  1.00  0.00     0.000 C 
HETATM   33  C   UNL     1       7.766  20.696  53.929  1.00  0.00     0.002 C 
HETATM   34  C   UNL     1       8.406  21.945  53.328  1.00  0.00     0.020 C 
ENDBRANCH  27  29
ENDBRANCH  25  27
ENDBRANCH  23  25
ENDBRANCH   5  23
TORSDOF 9
ENDMDL
MODEL 2
REMARK VINA RESULT:      -9.0      2.258     10.543
REMARK  9 active torsions:
REMARK  status: ('A' for Active; 'I' for Inactive)
REMARK    1  A    between atoms: C_2  and  C_3 
REMARK       I    between atoms: C_3  and  N_4 
REMARK    2  A    between atoms: N_4  and  N_5 
REMARK    3  A    between atoms: N_5  and  C_6 
REMARK    4  A    between atoms: C_6  and  N_7 
REMARK    5  A    between atoms: N_7  and  C_8 
REMARK    6  A    between atoms: C_18  and  N_19 
REMARK    7  A    between atoms: N_19  and  C_20 
REMARK    8  A    between atoms: C_20  and  N_21 
REMARK    9  A    between atoms: N_21  and  C_22 
ROOT
HETATM    1  C   UNL     1       5.811  29.839  56.224  1.00  0.00     0.019 A 
HETATM    2  C   UNL     1       6.109  28.582  55.692  1.00  0.00     0.033 A 
HETATM    3  C   UNL     1       7.021  27.760  56.365  1.00  0.00     0.019 A 
HETATM    4  C   UNL     1       7.649  28.196  57.540  1.00  0.00     0.030 A 
HETATM    5  C   UNL     1       7.378  29.463  58.054  1.00  0.00     0.033 A 
HETATM    6  C   UNL     1       6.443  30.272  57.395  1.00  0.00     0.030 A 
ENDROOT
BRANCH   2   7
HETATM    7  C   UNL     1       5.461  28.064  54.452  1.00  0.00     0.270 C 
HETATM    8  N   UNL     1       4.636  26.966  54.598  1.00  0.00    -0.264 N 
HETATM    9  H   UNL     1       4.463  26.485  55.473  1.00  0.00     0.190 HD
HETATM   10  O   UNL     1       5.651  28.606  53.366  1.00  0.00    -0.266 OA
BRANCH   8  11
HETATM   11  N   UNL     1       4.129  26.350  53.445  1.00  0.00    -0.274 N 
HETATM   12  H   UNL     1       3.387  26.881  53.002  1.00  0.00     0.189 HD
BRANCH  11  13
HETATM   13  C   UNL     1       4.954  25.629  52.635  1.00  0.00     0.186 C 
HETATM   14  S   UNL     1       5.265  25.982  51.025  1.00  0.00    -0.040 SA
BRANCH  13  15
HETATM   15  N   UNL     1       5.621  24.584  53.185  1.00  0.00    -0.361 N 
HETATM   16  H   UNL     1       5.077  23.729  53.128  1.00  0.00     0.162 HD
BRANCH  15  17
HETATM   17  C   UNL     1       7.019  24.394  53.594  1.00  0.00     0.083 C 
HETATM   18  C   UNL     1       7.192  24.164  55.101  1.00  0.00     0.025 C 
HETATM   19  C   UNL     1       7.439  22.718  55.514  1.00  0.00     0.002 C 
HETATM   20  C   UNL     1       8.534  22.079  54.675  1.00  0.00     0.000 C 
HETATM   21  C   UNL     1       8.176  22.088  53.197  1.00  0.00     0.002 C 
HETATM   22  C   UNL     1       7.843  23.482  52.672  1.00  0.00     0.025 C 
ENDBRANCH  15  17
ENDBRANCH  13  15
ENDBRANCH  11  13
ENDBRANCH   8  11
ENDBRANCH   2   7
BRANCH   5  23
HETATM   23  N   UNL     1       7.914  29.979  59.249  1.00  0.00    -0.338 N 
HETATM   24  H   UNL     1       7.514  29.597  60.093  1.00  0.00     0.168 HD
BRANCH  23  25
HETATM   25  C   UNL     1       8.721  31.047  59.519  1.00  0.00     0.151 C 
HETATM   26  S   UNL     1      10.073  31.570  58.696  1.00  0.00    -0.047 SA
BRANCH  25  27
HETATM   27  N   UNL     1       8.263  31.849  60.541  1.00  0.00    -0.265 NA
HETATM   28  H   UNL     1       9.072  32.146  61.079  1.00  0.00     0.130 HD
BRANCH  27  29
HETATM   29  C   UNL     1       7.121  31.538  61.429  1.00  0.00     0.062 C 
HETATM   30  C   UNL     1       7.642  31.339  62.865  1.00  0.00     0.020 C 
HETATM   31  C   UNL     1       8.056  32.659  63.521  1.00  0.00     0.002 C 
HETATM   32  C   UNL     1       6.925  33.683  63.498  1.00  0.00     0.000 C 
HETATM   33  C   UNL     1       6.374  33.884  62.089  1.00  0.00     0.002 C 
HETATM   34  C   UNL     1       5.966  32.553  61.461  1.00  0.00     0.020 C 
ENDBRANCH  27  29
ENDBRANCH  25  27
ENDBRANCH  23  25
ENDBRANCH   5  23
TORSDOF 9
ENDMDL
MODEL 3
REMARK VINA RESULT:      -8.9      1.610     11.048
REMARK  9 active torsions:
REMARK  status: ('A' for Active; 'I' for Inactive)
REMARK    1  A    between atoms: C_2  and  C_3 
REMARK       I    between atoms: C_3  and  N_4 
REMARK    2  A    between atoms: N_4  and  N_5 
REMARK    3  A    between atoms: N_5  and  C_6 
REMARK    4  A    between atoms: C_6  and  N_7 
REMARK    5  A    between atoms: N_7  and  C_8 
REMARK    6  A    between atoms: C_18  and  N_19 
REMARK    7  A    between atoms: N_19  and  C_20 
REMARK    8  A    between atoms: C_20  and  N_21 
REMARK    9  A    between atoms: N_21  and  C_22 
ROOT
HETATM    1  C   UNL     1       5.907  29.501  57.340  1.00  0.00     0.019 A 
HETATM    2  C   UNL     1       7.125  28.928  57.719  1.00  0.00     0.033 A 
HETATM    3  C   UNL     1       7.958  29.629  58.601  1.00  0.00     0.019 A 
HETATM    4  C   UNL     1       7.594  30.896  59.077  1.00  0.00     0.030 A 
HETATM    5  C   UNL     1       6.396  31.483  58.674  1.00  0.00     0.033 A 
HETATM    6  C   UNL     1       5.551  30.768  57.815  1.00  0.00     0.030 A 
ENDROOT
BRANCH   2   7
HETATM    7  C   UNL     1       7.554  27.579  57.251  1.00  0.00     0.270 C 
HETATM    8  N   UNL     1       6.582  26.789  56.669  1.00  0.00    -0.264 N 
HETATM    9  H   UNL     1       5.610  27.053  56.561  1.00  0.00     0.190 HD
HETATM   10  O   UNL     1       8.719  27.208  57.374  1.00  0.00    -0.266 OA
BRANCH   8  11
HETATM   11  N   UNL     1       6.898  25.459  56.357  1.00  0.00    -0.274 N 
HETATM   12  H   UNL     1       6.850  24.839  57.158  1.00  0.00     0.189 HD
BRANCH  11  13
HETATM   13  C   UNL     1       6.560  24.940  55.143  1.00  0.00     0.186 C 
HETATM   14  S   UNL     1       5.914  25.821  53.870  1.00  0.00    -0.040 SA
BRANCH  13  15
HETATM   15  N   UNL     1       6.821  23.628  54.924  1.00  0.00    -0.361 N 
HETATM   16  H   UNL     1       5.966  23.099  54.790  1.00  0.00     0.162 HD
BRANCH  15  17
HETATM   17  C   UNL     1       8.052  22.895  54.597  1.00  0.00     0.083 C 
HETATM   18  C   UNL     1       8.587  22.043  55.756  1.00  0.00     0.025 C 
HETATM   19  C   UNL     1       8.308  20.549  55.647  1.00  0.00     0.002 C 
HETATM   20  C   UNL     1       8.687  20.011  54.277  1.00  0.00     0.000 C 
HETATM   21  C   UNL     1       7.911  20.711  53.173  1.00  0.00     0.002 C 
HETATM   22  C   UNL     1       8.058  22.230  53.211  1.00  0.00     0.025 C 
ENDBRANCH  15  17
ENDBRANCH  13  15
ENDBRANCH  11  13
ENDBRANCH   8  11
ENDBRANCH   2   7
BRANCH   5  23
HETATM   23  N   UNL     1       5.914  32.725  59.128  1.00  0.00    -0.338 N 
HETATM   24  H   UNL     1       6.408  33.529  58.771  1.00  0.00     0.168 HD
BRANCH  23  25
HETATM   25  C   UNL     1       5.044  33.076  60.120  1.00  0.00     0.151 C 
HETATM   26  S   UNL     1       3.379  33.141  60.075  1.00  0.00    -0.047 SA
BRANCH  25  27
HETATM   27  N   UNL     1       5.645  33.283  61.343  1.00  0.00    -0.265 NA
HETATM   28  H   UNL     1       6.598  33.584  61.164  1.00  0.00     0.130 HD
BRANCH  27  29
HETATM   29  C   UNL     1       5.588  32.355  62.493  1.00  0.00     0.062 C 
HETATM   30  C   UNL     1       6.936  31.618  62.610  1.00  0.00     0.020 C 
HETATM   31  C   UNL     1       8.051  32.526  63.135  1.00  0.00     0.002 C 
HETATM   32  C   UNL     1       7.676  33.173  64.465  1.00  0.00     0.000 C 
HETATM   33  C   UNL     1       6.333  33.893  64.385  1.00  0.00     0.002 C 
HETATM   34  C   UNL     1       5.240  32.964  63.862  1.00  0.00     0.020 C 
ENDBRANCH  27  29
ENDBRANCH  25  27
ENDBRANCH  23  25
ENDBRANCH   5  23
TORSDOF 9
ENDMDL
MODEL 4
REMARK VINA RESULT:      -8.9      2.556      3.081
REMARK  9 active torsions:
REMARK  status: ('A' for Active; 'I' for Inactive)
REMARK    1  A    between atoms: C_2  and  C_3 
REMARK       I    between atoms: C_3  and  N_4 
REMARK    2  A    between atoms: N_4  and  N_5 
REMARK    3  A    between atoms: N_5  and  C_6 
REMARK    4  A    between atoms: C_6  and  N_7 
REMARK    5  A    between atoms: N_7  and  C_8 
REMARK    6  A    between atoms: C_18  and  N_19 
REMARK    7  A    between atoms: N_19  and  C_20 
REMARK    8  A    between atoms: C_20  and  N_21 
REMARK    9  A    between atoms: N_21  and  C_22 
ROOT
HETATM    1  C   UNL     1       3.916  28.964  55.531  1.00  0.00     0.019 A 
HETATM    2  C   UNL     1       4.441  29.422  56.743  1.00  0.00     0.033 A 
HETATM    3  C   UNL     1       5.653  28.891  57.200  1.00  0.00     0.019 A 
HETATM    4  C   UNL     1       6.321  27.896  56.472  1.00  0.00     0.030 A 
HETATM    5  C   UNL     1       5.782  27.415  55.280  1.00  0.00     0.033 A 
HETATM    6  C   UNL     1       4.584  27.968  54.811  1.00  0.00     0.030 A 
ENDROOT
BRANCH   2   7
HETATM    7  C   UNL     1       3.778  30.487  57.550  1.00  0.00     0.270 C 
HETATM    8  N   UNL     1       3.921  30.403  58.921  1.00  0.00    -0.264 N 
HETATM    9  H   UNL     1       4.420  29.666  59.407  1.00  0.00     0.190 HD
HETATM   10  O   UNL     1       3.150  31.393  57.007  1.00  0.00    -0.266 OA
BRANCH   8  11
HETATM   11  N   UNL     1       3.190  31.286  59.728  1.00  0.00    -0.274 N 
HETATM   12  H   UNL     1       2.401  30.845  60.189  1.00  0.00     0.189 HD
BRANCH  11  13
HETATM   13  C   UNL     1       3.824  32.292  60.394  1.00  0.00     0.186 C 
HETATM   14  S   UNL     1       3.197  33.829  60.631  1.00  0.00    -0.040 SA
BRANCH  13  15
HETATM   15  N   UNL     1       5.024  32.013  60.961  1.00  0.00    -0.361 N 
HETATM   16  H   UNL     1       4.994  31.140  61.478  1.00  0.00     0.162 HD
BRANCH  15  17
HETATM   17  C   UNL     1       6.372  32.564  60.769  1.00  0.00     0.083 C 
HETATM   18  C   UNL     1       6.954  33.218  62.029  1.00  0.00     0.025 C 
HETATM   19  C   UNL     1       7.986  32.384  62.778  1.00  0.00     0.002 C 
HETATM   20  C   UNL     1       9.046  31.837  61.837  1.00  0.00     0.000 C 
HETATM   21  C   UNL     1       8.431  30.959  60.759  1.00  0.00     0.002 C 
HETATM   22  C   UNL     1       7.330  31.664  59.972  1.00  0.00     0.025 C 
ENDBRANCH  15  17
ENDBRANCH  13  15
ENDBRANCH  11  13
ENDBRANCH   8  11
ENDBRANCH   2   7
BRANCH   5  23
HETATM   23  N   UNL     1       6.392  26.456  54.450  1.00  0.00    -0.338 N 
HETATM   24  H   UNL     1       7.238  26.766  53.995  1.00  0.00     0.168 HD
BRANCH  23  25
HETATM   25  C   UNL     1       5.973  25.254  53.956  1.00  0.00     0.151 C 
HETATM   26  S   UNL     1       4.977  24.949  52.654  1.00  0.00    -0.047 SA
BRANCH  25  27
HETATM   27  N   UNL     1       6.562  24.166  54.561  1.00  0.00    -0.265 NA
HETATM   28  H   UNL     1       6.287  24.176  55.538  1.00  0.00     0.130 HD
BRANCH  27  29
HETATM   29  C   UNL     1       7.979  23.766  54.413  1.00  0.00     0.062 C 
HETATM   30  C   UNL     1       8.392  22.923  55.635  1.00  0.00     0.020 C 
HETATM   31  C   UNL     1       7.781  21.520  55.604  1.00  0.00     0.002 C 
HETATM   32  C   UNL     1       8.111  20.785  54.308  1.00  0.00     0.000 C 
HETATM   33  C   UNL     1       7.733  21.608  53.080  1.00  0.00     0.002 C 
HETATM   34  C   UNL     1       8.357  23.000  53.135  1.00  0.00     0.020 C 
ENDBRANCH  27  29
ENDBRANCH  25  27
ENDBRANCH  23  25
ENDBRANCH   5  23
TORSDOF 9
ENDMDL
MODEL 5
REMARK VINA RESULT:      -8.8      2.568     10.556
REMARK  9 active torsions:
REMARK  status: ('A' for Active; 'I' for Inactive)
REMARK    1  A    between atoms: C_2  and  C_3 
REMARK       I    between atoms: C_3  and  N_4 
REMARK    2  A    between atoms: N_4  and  N_5 
REMARK    3  A    between atoms: N_5  and  C_6 
REMARK    4  A    between atoms: C_6  and  N_7 
REMARK    5  A    between atoms: N_7  and  C_8 
REMARK    6  A    between atoms: C_18  and  N_19 
REMARK    7  A    between atoms: N_19  and  C_20 
REMARK    8  A    between atoms: C_20  and  N_21 
REMARK    9  A    between atoms: N_21  and  C_22 
ROOT
HETATM    1  C   UNL     1       6.322  29.379  56.128  1.00  0.00     0.019 A 
HETATM    2  C   UNL     1       5.039  28.931  55.799  1.00  0.00     0.033 A 
HETATM    3  C   UNL     1       3.933  29.543  56.400  1.00  0.00     0.019 A 
HETATM    4  C   UNL     1       4.103  30.571  57.338  1.00  0.00     0.030 A 
HETATM    5  C   UNL     1       5.382  30.996  57.693  1.00  0.00     0.033 A 
HETATM    6  C   UNL     1       6.486  30.402  57.068  1.00  0.00     0.030 A 
ENDROOT
BRANCH   2   7
HETATM    7  C   UNL     1       4.802  27.850  54.799  1.00  0.00     0.270 C 
HETATM    8  N   UNL     1       5.086  26.560  55.204  1.00  0.00    -0.264 N 
HETATM    9  H   UNL     1       5.458  26.308  56.112  1.00  0.00     0.190 HD
HETATM   10  O   UNL     1       4.365  28.109  53.680  1.00  0.00    -0.266 OA
BRANCH   8  11
HETATM   11  N   UNL     1       5.029  25.531  54.253  1.00  0.00    -0.274 N 
HETATM   12  H   UNL     1       4.257  25.632  53.602  1.00  0.00     0.189 HD
BRANCH  11  13
HETATM   13  C   UNL     1       6.176  24.968  53.782  1.00  0.00     0.186 C 
HETATM   14  S   UNL     1       7.237  25.704  52.713  1.00  0.00    -0.040 SA
BRANCH  13  15
HETATM   15  N   UNL     1       6.519  23.745  54.260  1.00  0.00    -0.361 N 
HETATM   16  H   UNL     1       5.699  23.183  54.457  1.00  0.00     0.162 HD
BRANCH  15  17
HETATM   17  C   UNL     1       7.790  23.010  54.303  1.00  0.00     0.083 C 
HETATM   18  C   UNL     1       8.085  22.370  55.667  1.00  0.00     0.025 C 
HETATM   19  C   UNL     1       7.833  20.869  55.749  1.00  0.00     0.002 C 
HETATM   20  C   UNL     1       8.476  20.133  54.585  1.00  0.00     0.000 C 
HETATM   21  C   UNL     1       7.934  20.625  53.251  1.00  0.00     0.002 C 
HETATM   22  C   UNL     1       8.071  22.134  53.071  1.00  0.00     0.025 C 
ENDBRANCH  15  17
ENDBRANCH  13  15
ENDBRANCH  11  13
ENDBRANCH   8  11
ENDBRANCH   2   7
BRANCH   5  23
HETATM   23  N   UNL     1       5.663  32.049  58.583  1.00  0.00    -0.338 N 
HETATM   24  H   UNL     1       6.425  32.649  58.304  1.00  0.00     0.168 HD
BRANCH  23  25
HETATM   25  C   UNL     1       5.261  32.316  59.860  1.00  0.00     0.151 C 
HETATM   26  S   UNL     1       3.786  32.880  60.395  1.00  0.00    -0.047 SA
BRANCH  25  27
HETATM   27  N   UNL     1       6.176  31.948  60.823  1.00  0.00    -0.265 NA
HETATM   28  H   UNL     1       5.666  31.818  61.691  1.00  0.00     0.130 HD
BRANCH  27  29
HETATM   29  C   UNL     1       7.477  32.609  61.066  1.00  0.00     0.062 C 
HETATM   30  C   UNL     1       7.921  32.325  62.514  1.00  0.00     0.020 C 
HETATM   31  C   UNL     1       8.389  30.880  62.703  1.00  0.00     0.002 C 
HETATM   32  C   UNL     1       9.494  30.507  61.720  1.00  0.00     0.000 C 
HETATM   33  C   UNL     1       9.090  30.799  60.278  1.00  0.00     0.002 C 
HETATM   34  C   UNL     1       8.631  32.247  60.117  1.00  0.00     0.020 C 
ENDBRANCH  27  29
ENDBRANCH  25  27
ENDBRANCH  23  25
ENDBRANCH   5  23
TORSDOF 9
ENDMDL
MODEL 6
REMARK VINA RESULT:      -8.6      6.365      9.213
REMARK  9 active torsions:
REMARK  status: ('A' for Active; 'I' for Inactive)
REMARK    1  A    between atoms: C_2  and  C_3 
REMARK       I    between atoms: C_3  and  N_4 
REMARK    2  A    between atoms: N_4  and  N_5 
REMARK    3  A    between atoms: N_5  and  C_6 
REMARK    4  A    between atoms: C_6  and  N_7 
REMARK    5  A    between atoms: N_7  and  C_8 
REMARK    6  A    between atoms: C_18  and  N_19 
REMARK    7  A    between atoms: N_19  and  C_20 
REMARK    8  A    between atoms: C_20  and  N_21 
REMARK    9  A    between atoms: N_21  and  C_22 
ROOT
HETATM    1  C   UNL     1       5.152  26.339  53.168  1.00  0.00     0.019 A 
HETATM    2  C   UNL     1       4.765  27.586  53.666  1.00  0.00     0.033 A 
HETATM    3  C   UNL     1       4.876  27.830  55.040  1.00  0.00     0.019 A 
HETATM    4  C   UNL     1       5.343  26.835  55.911  1.00  0.00     0.030 A 
HETATM    5  C   UNL     1       5.698  25.580  55.420  1.00  0.00     0.033 A 
HETATM    6  C   UNL     1       5.613  25.348  54.041  1.00  0.00     0.030 A 
ENDROOT
BRANCH   2   7
HETATM    7  C   UNL     1       4.274  28.682  52.783  1.00  0.00     0.270 C 
HETATM    8  N   UNL     1       5.205  29.623  52.389  1.00  0.00    -0.264 N 
HETATM    9  H   UNL     1       6.178  29.629  52.674  1.00  0.00     0.190 HD
HETATM   10  O   UNL     1       3.100  28.726  52.423  1.00  0.00    -0.266 OA
BRANCH   8  11
HETATM   11  N   UNL     1       4.761  30.755  51.690  1.00  0.00    -0.274 N 
HETATM   12  H   UNL     1       4.907  31.620  52.199  1.00  0.00     0.189 HD
BRANCH  11  13
HETATM   13  C   UNL     1       4.855  30.802  50.332  1.00  0.00     0.186 C 
HETATM   14  S   UNL     1       5.966  31.725  49.479  1.00  0.00    -0.040 SA
BRANCH  13  15
HETATM   15  N   UNL     1       4.030  29.999  49.615  1.00  0.00    -0.361 N 
HETATM   16  H   UNL     1       3.072  30.331  49.648  1.00  0.00     0.162 HD
BRANCH  15  17
HETATM   17  C   UNL     1       4.277  28.937  48.629  1.00  0.00     0.083 C 
HETATM   18  C   UNL     1       5.215  27.833  49.137  1.00  0.00     0.025 C 
HETATM   19  C   UNL     1       4.528  26.540  49.558  1.00  0.00     0.002 C 
HETATM   20  C   UNL     1       3.548  26.061  48.500  1.00  0.00     0.000 C 
HETATM   21  C   UNL     1       2.467  27.098  48.236  1.00  0.00     0.002 C 
HETATM   22  C   UNL     1       3.031  28.466  47.863  1.00  0.00     0.025 C 
ENDBRANCH  15  17
ENDBRANCH  13  15
ENDBRANCH  11  13
ENDBRANCH   8  11
ENDBRANCH   2   7
BRANCH   5  23
HETATM   23  N   UNL     1       6.222  24.530  56.196  1.00  0.00    -0.338 N 
HETATM   24  H   UNL     1       5.538  24.014  56.730  1.00  0.00     0.168 HD
BRANCH  23  25
HETATM   25  C   UNL     1       7.494  24.182  56.550  1.00  0.00     0.151 C 
HETATM   26  S   UNL     1       8.572  25.007  57.517  1.00  0.00    -0.047 SA
BRANCH  25  27
HETATM   27  N   UNL     1       7.865  22.922  56.134  1.00  0.00    -0.265 NA
HETATM   28  H   UNL     1       7.935  22.338  56.963  1.00  0.00     0.130 HD
BRANCH  27  29
HETATM   29  C   UNL     1       8.953  22.619  55.179  1.00  0.00     0.062 C 
HETATM   30  C   UNL     1       9.261  21.111  55.231  1.00  0.00     0.020 C 
HETATM   31  C   UNL     1       8.166  20.272  54.565  1.00  0.00     0.002 C 
HETATM   32  C   UNL     1       7.905  20.717  53.129  1.00  0.00     0.000 C 
HETATM   33  C   UNL     1       7.619  22.214  53.045  1.00  0.00     0.002 C 
HETATM   34  C   UNL     1       8.726  23.025  53.713  1.00  0.00     0.020 C 
ENDBRANCH  27  29
ENDBRANCH  25  27
ENDBRANCH  23  25
ENDBRANCH   5  23
TORSDOF 9
ENDMDL
MODEL 7
REMARK VINA RESULT:      -8.5      6.874      9.811
REMARK  9 active torsions:
REMARK  status: ('A' for Active; 'I' for Inactive)
REMARK    1  A    between atoms: C_2  and  C_3 
REMARK       I    between atoms: C_3  and  N_4 
REMARK    2  A    between atoms: N_4  and  N_5 
REMARK    3  A    between atoms: N_5  and  C_6 
REMARK    4  A    between atoms: C_6  and  N_7 
REMARK    5  A    between atoms: N_7  and  C_8 
REMARK    6  A    between atoms: C_18  and  N_19 
REMARK    7  A    between atoms: N_19  and  C_20 
REMARK    8  A    between atoms: C_20  and  N_21 
REMARK    9  A    between atoms: N_21  and  C_22 
ROOT
HETATM    1  C   UNL     1       4.767  24.983  52.196  1.00  0.00     0.019 A 
HETATM    2  C   UNL     1       5.292  26.129  51.593  1.00  0.00     0.033 A 
HETATM    3  C   UNL     1       6.117  26.974  52.347  1.00  0.00     0.019 A 
HETATM    4  C   UNL     1       6.394  26.693  53.692  1.00  0.00     0.030 A 
HETATM    5  C   UNL     1       5.843  25.568  54.305  1.00  0.00     0.033 A 
HETATM    6  C   UNL     1       5.042  24.710  53.541  1.00  0.00     0.030 A 
ENDROOT
BRANCH   2   7
HETATM    7  C   UNL     1       5.040  26.468  50.163  1.00  0.00     0.270 C 
HETATM    8  N   UNL     1       5.794  27.494  49.628  1.00  0.00    -0.264 N 
HETATM    9  H   UNL     1       6.480  28.036  50.141  1.00  0.00     0.190 HD
HETATM   10  O   UNL     1       4.209  25.848  49.504  1.00  0.00    -0.266 OA
BRANCH   8  11
HETATM   11  N   UNL     1       5.486  27.951  48.339  1.00  0.00    -0.274 N 
HETATM   12  H   UNL     1       5.417  27.204  47.656  1.00  0.00     0.189 HD
BRANCH  11  13
HETATM   13  C   UNL     1       4.672  29.031  48.171  1.00  0.00     0.186 C 
HETATM   14  S   UNL     1       5.027  30.588  48.682  1.00  0.00    -0.040 SA
BRANCH  13  15
HETATM   15  N   UNL     1       3.516  28.847  47.486  1.00  0.00    -0.361 N 
HETATM   16  H   UNL     1       3.679  28.364  46.609  1.00  0.00     0.162 HD
BRANCH  15  17
HETATM   17  C   UNL     1       2.101  28.970  47.862  1.00  0.00     0.083 C 
HETATM   18  C   UNL     1       1.795  28.461  49.278  1.00  0.00     0.025 C 
HETATM   19  C   UNL     1       1.612  29.545  50.333  1.00  0.00     0.002 C 
HETATM   20  C   UNL     1       0.655  30.626  49.860  1.00  0.00     0.000 C 
HETATM   21  C   UNL     1       1.157  31.293  48.588  1.00  0.00     0.002 C 
HETATM   22  C   UNL     1       1.440  30.299  47.465  1.00  0.00     0.025 C 
ENDBRANCH  15  17
ENDBRANCH  13  15
ENDBRANCH  11  13
ENDBRANCH   8  11
ENDBRANCH   2   7
BRANCH   5  23
HETATM   23  N   UNL     1       6.093  25.169  55.631  1.00  0.00    -0.338 N 
HETATM   24  H   UNL     1       5.370  25.412  56.291  1.00  0.00     0.168 HD
BRANCH  23  25
HETATM   25  C   UNL     1       7.209  24.701  56.264  1.00  0.00     0.151 C 
HETATM   26  S   UNL     1       8.130  25.440  57.440  1.00  0.00    -0.047 SA
BRANCH  25  27
HETATM   27  N   UNL     1       7.520  23.394  55.955  1.00  0.00    -0.265 NA
HETATM   28  H   UNL     1       7.418  22.849  56.806  1.00  0.00     0.130 HD
BRANCH  27  29
HETATM   29  C   UNL     1       8.702  22.954  55.182  1.00  0.00     0.062 C 
HETATM   30  C   UNL     1       9.008  21.485  55.528  1.00  0.00     0.020 C 
HETATM   31  C   UNL     1       7.991  20.520  54.911  1.00  0.00     0.002 C 
HETATM   32  C   UNL     1       7.878  20.704  53.401  1.00  0.00     0.000 C 
HETATM   33  C   UNL     1       7.597  22.157  53.028  1.00  0.00     0.002 C 
HETATM   34  C   UNL     1       8.627  23.096  53.653  1.00  0.00     0.020 C 
ENDBRANCH  27  29
ENDBRANCH  25  27
ENDBRANCH  23  25
ENDBRANCH   5  23
TORSDOF 9
ENDMDL
MODEL 8
REMARK VINA RESULT:      -8.4      6.852      8.600
REMARK  9 active torsions:
REMARK  status: ('A' for Active; 'I' for Inactive)
REMARK    1  A    between atoms: C_2  and  C_3 
REMARK       I    between atoms: C_3  and  N_4 
REMARK    2  A    between atoms: N_4  and  N_5 
REMARK    3  A    between atoms: N_5  and  C_6 
REMARK    4  A    between atoms: C_6  and  N_7 
REMARK    5  A    between atoms: N_7  and  C_8 
REMARK    6  A    between atoms: C_18  and  N_19 
REMARK    7  A    between atoms: N_19  and  C_20 
REMARK    8  A    between atoms: C_20  and  N_21 
REMARK    9  A    between atoms: N_21  and  C_22 
ROOT
HETATM    1  C   UNL     1       6.282  26.903  52.456  1.00  0.00     0.019 A 
HETATM    2  C   UNL     1       5.422  26.174  51.629  1.00  0.00     0.033 A 
HETATM    3  C   UNL     1       4.789  25.036  52.146  1.00  0.00     0.019 A 
HETATM    4  C   UNL     1       5.030  24.616  53.461  1.00  0.00     0.030 A 
HETATM    5  C   UNL     1       5.913  25.322  54.276  1.00  0.00     0.033 A 
HETATM    6  C   UNL     1       6.523  26.476  53.766  1.00  0.00     0.030 A 
ENDROOT
BRANCH   2   7
HETATM    7  C   UNL     1       5.121  26.584  50.227  1.00  0.00     0.270 C 
HETATM    8  N   UNL     1       5.799  27.688  49.748  1.00  0.00    -0.264 N 
HETATM    9  H   UNL     1       6.458  28.240  50.284  1.00  0.00     0.190 HD
HETATM   10  O   UNL     1       4.318  25.955  49.543  1.00  0.00    -0.266 OA
BRANCH   8  11
HETATM   11  N   UNL     1       5.437  28.205  48.496  1.00  0.00    -0.274 N 
HETATM   12  H   UNL     1       5.479  27.516  47.752  1.00  0.00     0.189 HD
BRANCH  11  13
HETATM   13  C   UNL     1       4.479  29.170  48.403  1.00  0.00     0.186 C 
HETATM   14  S   UNL     1       3.314  29.251  47.199  1.00  0.00    -0.040 SA
BRANCH  13  15
HETATM   15  N   UNL     1       4.424  30.099  49.389  1.00  0.00    -0.361 N 
HETATM   16  H   UNL     1       5.172  30.777  49.299  1.00  0.00     0.162 HD
BRANCH  15  17
HETATM   17  C   UNL     1       3.388  30.456  50.369  1.00  0.00     0.083 C 
HETATM   18  C   UNL     1       2.862  29.258  51.171  1.00  0.00     0.025 C 
HETATM   19  C   UNL     1       3.402  29.139  52.591  1.00  0.00     0.002 C 
HETATM   20  C   UNL     1       3.299  30.458  53.338  1.00  0.00     0.000 C 
HETATM   21  C   UNL     1       4.080  31.556  52.632  1.00  0.00     0.002 C 
HETATM   22  C   UNL     1       3.674  31.734  51.172  1.00  0.00     0.025 C 
ENDBRANCH  15  17
ENDBRANCH  13  15
ENDBRANCH  11  13
ENDBRANCH   8  11
ENDBRANCH   2   7
BRANCH   5  23
HETATM   23  N   UNL     1       6.189  25.016  55.621  1.00  0.00    -0.338 N 
HETATM   24  H   UNL     1       5.484  25.315  56.278  1.00  0.00     0.168 HD
BRANCH  23  25
HETATM   25  C   UNL     1       7.313  24.581  56.262  1.00  0.00     0.151 C 
HETATM   26  S   UNL     1       8.245  25.376  57.393  1.00  0.00    -0.047 SA
BRANCH  25  27
HETATM   27  N   UNL     1       7.626  23.263  56.010  1.00  0.00    -0.265 NA
HETATM   28  H   UNL     1       7.536  22.757  56.886  1.00  0.00     0.130 HD
BRANCH  27  29
HETATM   29  C   UNL     1       8.801  22.792  55.244  1.00  0.00     0.062 C 
HETATM   30  C   UNL     1       9.022  21.295  55.536  1.00  0.00     0.020 C 
HETATM   31  C   UNL     1       7.971  20.411  54.860  1.00  0.00     0.002 C 
HETATM   32  C   UNL     1       7.901  20.660  53.357  1.00  0.00     0.000 C 
HETATM   33  C   UNL     1       7.704  22.139  53.037  1.00  0.00     0.002 C 
HETATM   34  C   UNL     1       8.767  22.997  53.721  1.00  0.00     0.020 C 
ENDBRANCH  27  29
ENDBRANCH  25  27
ENDBRANCH  23  25
ENDBRANCH   5  23
TORSDOF 9
ENDMDL
MODEL 9
REMARK VINA RESULT:      -8.2      2.211     10.062
REMARK  9 active torsions:
REMARK  status: ('A' for Active; 'I' for Inactive)
REMARK    1  A    between atoms: C_2  and  C_3 
REMARK       I    between atoms: C_3  and  N_4 
REMARK    2  A    between atoms: N_4  and  N_5 
REMARK    3  A    between atoms: N_5  and  C_6 
REMARK    4  A    between atoms: C_6  and  N_7 
REMARK    5  A    between atoms: N_7  and  C_8 
REMARK    6  A    between atoms: C_18  and  N_19 
REMARK    7  A    between atoms: N_19  and  C_20 
REMARK    8  A    between atoms: C_20  and  N_21 
REMARK    9  A    between atoms: N_21  and  C_22 
ROOT
HETATM    1  C   UNL     1       6.256  27.299  57.211  1.00  0.00     0.019 A 
HETATM    2  C   UNL     1       7.618  26.985  57.251  1.00  0.00     0.033 A 
HETATM    3  C   UNL     1       8.546  28.017  57.438  1.00  0.00     0.019 A 
HETATM    4  C   UNL     1       8.123  29.349  57.558  1.00  0.00     0.030 A 
HETATM    5  C   UNL     1       6.768  29.667  57.485  1.00  0.00     0.033 A 
HETATM    6  C   UNL     1       5.841  28.630  57.326  1.00  0.00     0.030 A 
ENDROOT
BRANCH   2   7
HETATM    7  C   UNL     1       8.120  25.585  57.141  1.00  0.00     0.270 C 
HETATM    8  N   UNL     1       7.915  24.948  55.933  1.00  0.00    -0.264 N 
HETATM    9  H   UNL     1       7.436  25.355  55.138  1.00  0.00     0.190 HD
HETATM   10  O   UNL     1       8.694  25.044  58.082  1.00  0.00    -0.266 OA
BRANCH   8  11
HETATM   11  N   UNL     1       8.227  23.585  55.832  1.00  0.00    -0.274 N 
HETATM   12  H   UNL     1       8.039  23.069  56.685  1.00  0.00     0.189 HD
BRANCH  11  13
HETATM   13  C   UNL     1       8.056  22.928  54.651  1.00  0.00     0.186 C 
HETATM   14  S   UNL     1       9.105  21.773  54.035  1.00  0.00    -0.040 SA
BRANCH  13  15
HETATM   15  N   UNL     1       6.923  23.179  53.949  1.00  0.00    -0.361 N 
HETATM   16  H   UNL     1       6.127  22.692  54.347  1.00  0.00     0.162 HD
BRANCH  15  17
HETATM   17  C   UNL     1       6.581  24.178  52.927  1.00  0.00     0.083 C 
HETATM   18  C   UNL     1       5.237  24.877  53.177  1.00  0.00     0.025 C 
HETATM   19  C   UNL     1       5.334  26.285  53.750  1.00  0.00     0.002 C 
HETATM   20  C   UNL     1       6.322  27.136  52.970  1.00  0.00     0.000 C 
HETATM   21  C   UNL     1       7.715  26.528  52.992  1.00  0.00     0.002 C 
HETATM   22  C   UNL     1       7.744  25.084  52.496  1.00  0.00     0.025 C 
ENDBRANCH  15  17
ENDBRANCH  13  15
ENDBRANCH  11  13
ENDBRANCH   8  11
ENDBRANCH   2   7
BRANCH   5  23
HETATM   23  N   UNL     1       6.234  30.960  57.640  1.00  0.00    -0.338 N 
HETATM   24  H   UNL     1       6.295  31.546  56.821  1.00  0.00     0.168 HD
BRANCH  23  25
HETATM   25  C   UNL     1       5.834  31.673  58.734  1.00  0.00     0.151 C 
HETATM   26  S   UNL     1       4.526  32.694  58.894  1.00  0.00    -0.047 SA
BRANCH  25  27
HETATM   27  N   UNL     1       6.557  31.400  59.874  1.00  0.00    -0.265 NA
HETATM   28  H   UNL     1       5.914  31.448  60.659  1.00  0.00     0.130 HD
BRANCH  27  29
HETATM   29  C   UNL     1       7.865  31.996  60.224  1.00  0.00     0.062 C 
HETATM   30  C   UNL     1       7.627  33.304  61.003  1.00  0.00     0.020 C 
HETATM   31  C   UNL     1       7.133  33.049  62.429  1.00  0.00     0.002 C 
HETATM   32  C   UNL     1       8.074  32.128  63.200  1.00  0.00     0.000 C 
HETATM   33  C   UNL     1       8.345  30.833  62.441  1.00  0.00     0.002 C 
HETATM   34  C   UNL     1       8.840  31.117  61.024  1.00  0.00     0.020 C 
ENDBRANCH  27  29
ENDBRANCH  25  27
ENDBRANCH  23  25
ENDBRANCH   5  23
TORSDOF 9
ENDMDL
MODEL 10
REMARK VINA RESULT:      -8.0      6.838     11.022
REMARK  9 active torsions:
REMARK  status: ('A' for Active; 'I' for Inactive)
REMARK    1  A    between atoms: C_2  and  C_3 
REMARK       I    between atoms: C_3  and  N_4 
REMARK    2  A    between atoms: N_4  and  N_5 
REMARK    3  A    between atoms: N_5  and  C_6 
REMARK    4  A    between atoms: C_6  and  N_7 
REMARK    5  A    between atoms: N_7  and  C_8 
REMARK    6  A    between atoms: C_18  and  N_19 
REMARK    7  A    between atoms: N_19  and  C_20 
REMARK    8  A    between atoms: C_20  and  N_21 
REMARK    9  A    between atoms: N_21  and  C_22 
ROOT
HETATM    1  C   UNL     1       5.263  27.964  51.651  1.00  0.00     0.019 A 
HETATM    2  C   UNL     1       4.966  26.599  51.627  1.00  0.00     0.033 A 
HETATM    3  C   UNL     1       4.754  25.973  50.392  1.00  0.00     0.019 A 
HETATM    4  C   UNL     1       4.810  26.705  49.198  1.00  0.00     0.030 A 
HETATM    5  C   UNL     1       5.072  28.074  49.223  1.00  0.00     0.033 A 
HETATM    6  C   UNL     1       5.313  28.691  50.457  1.00  0.00     0.030 A 
ENDROOT
BRANCH   2   7
HETATM    7  C   UNL     1       4.907  25.771  52.867  1.00  0.00     0.270 C 
HETATM    8  N   UNL     1       5.051  26.442  54.065  1.00  0.00    -0.264 N 
HETATM    9  H   UNL     1       5.214  27.438  54.155  1.00  0.00     0.190 HD
HETATM   10  O   UNL     1       4.726  24.557  52.808  1.00  0.00    -0.266 OA
BRANCH   8  11
HETATM   11  N   UNL     1       5.159  25.692  55.245  1.00  0.00    -0.274 N 
HETATM   12  H   UNL     1       4.317  25.168  55.463  1.00  0.00     0.189 HD
BRANCH  11  13
HETATM   13  C   UNL     1       6.351  25.136  55.598  1.00  0.00     0.186 C 
HETATM   14  S   UNL     1       7.494  25.864  56.585  1.00  0.00    -0.040 SA
BRANCH  13  15
HETATM   15  N   UNL     1       6.609  23.875  55.170  1.00  0.00    -0.361 N 
HETATM   16  H   UNL     1       5.777  23.437  54.789  1.00  0.00     0.162 HD
BRANCH  15  17
HETATM   17  C   UNL     1       7.857  23.140  54.918  1.00  0.00     0.083 C 
HETATM   18  C   UNL     1       8.160  22.065  55.972  1.00  0.00     0.025 C 
HETATM   19  C   UNL     1       7.862  20.634  55.545  1.00  0.00     0.002 C 
HETATM   20  C   UNL     1       8.455  20.326  54.180  1.00  0.00     0.000 C 
HETATM   21  C   UNL     1       7.901  21.256  53.112  1.00  0.00     0.002 C 
HETATM   22  C   UNL     1       8.082  22.732  53.454  1.00  0.00     0.025 C 
ENDBRANCH  15  17
ENDBRANCH  13  15
ENDBRANCH  11  13
ENDBRANCH   8  11
ENDBRANCH   2   7
BRANCH   5  23
HETATM   23  N   UNL     1       5.198  28.891  48.084  1.00  0.00    -0.338 N 
HETATM   24  H   UNL     1       6.148  29.124  47.832  1.00  0.00     0.168 HD
BRANCH  23  25
HETATM   25  C   UNL     1       4.298  29.617  47.358  1.00  0.00     0.151 C 
HETATM   26  S   UNL     1       2.668  29.343  47.141  1.00  0.00    -0.047 SA
BRANCH  25  27
HETATM   27  N   UNL     1       4.808  30.790  46.847  1.00  0.00    -0.265 NA
HETATM   28  H   UNL     1       5.819  30.692  46.814  1.00  0.00     0.130 HD
BRANCH  27  29
HETATM   29  C   UNL     1       4.422  32.152  47.276  1.00  0.00     0.062 C 
HETATM   30  C   UNL     1       4.784  32.331  48.762  1.00  0.00     0.020 C 
HETATM   31  C   UNL     1       6.294  32.471  48.978  1.00  0.00     0.002 C 
HETATM   32  C   UNL     1       6.885  33.601  48.141  1.00  0.00     0.000 C 
HETATM   33  C   UNL     1       6.522  33.461  46.666  1.00  0.00     0.002 C 
HETATM   34  C   UNL     1       5.013  33.327  46.479  1.00  0.00     0.020 C 
ENDBRANCH  27  29
ENDBRANCH  25  27
ENDBRANCH  23  25
ENDBRANCH   5  23
TORSDOF 9
ENDMDL
