MODEL 1
REMARK VINA RESULT:      -9.0      0.000      0.000
REMARK  3 active torsions:
REMARK  status: ('A' for Active; 'I' for Inactive)
REMARK    1  A    between atoms: C_4  and  C_5 
REMARK    2  A    between atoms: C_11  and  C_12 
REMARK    3  A    between atoms: C_21  and  N_22 
ROOT
HETATM    1  C   UNL     1       8.293  23.367  56.245  1.00  0.00     0.098 A 
HETATM    2  N   UNL     1       8.667  22.996  57.487  1.00  0.00    -0.172 NA
HETATM    3  N   UNL     1       8.629  24.129  58.212  1.00  0.00    -0.256 N 
HETATM    4  H   UNL     1       8.888  24.093  59.191  1.00  0.00     0.191 HD
HETATM    5  C   UNL     1       8.242  25.203  57.484  1.00  0.00     0.175 A 
HETATM    6  C   UNL     1       7.979  24.755  56.217  1.00  0.00     0.036 A 
HETATM    7  C   UNL     1       7.431  25.706  55.186  1.00  0.00     0.077 C 
HETATM    8  C   UNL     1       7.671  27.147  55.684  1.00  0.00     0.076 C 
HETATM    9  C   UNL     1       7.738  28.183  54.707  1.00  0.00     0.100 C 
HETATM   10  N   UNL     1       7.861  29.027  53.921  1.00  0.00    -0.192 NA
HETATM   11  C   UNL     1       7.974  27.444  56.981  1.00  0.00     0.140 C 
HETATM   12  O   UNL     1       8.149  26.441  57.950  1.00  0.00    -0.279 OA
ENDROOT
BRANCH   7  13
HETATM   13  C   UNL     1       5.948  25.314  54.847  1.00  0.00     0.003 C 
HETATM   14  C   UNL     1       4.929  26.465  54.985  1.00  0.00     0.032 C 
HETATM   15  C   UNL     1       4.719  27.254  53.732  1.00  0.00    -0.030 C 
HETATM   16  C   UNL     1       5.016  26.785  52.513  1.00  0.00    -0.031 C 
HETATM   17  C   UNL     1       5.574  25.420  52.261  1.00  0.00     0.027 C 
HETATM   18  C   UNL     1       5.761  24.560  53.514  1.00  0.00     0.009 C 
ENDBRANCH   7  13
BRANCH  11  19
HETATM   19  N   UNL     1       8.203  28.705  57.486  1.00  0.00    -0.282 NA
HETATM   20  H   UNL     1       9.179  28.978  57.568  1.00  0.00     0.126 HD
HETATM   21  H   UNL     1       7.665  28.882  58.329  1.00  0.00     0.126 HD
ENDBRANCH  11  19
BRANCH   1  22
HETATM   22  C   UNL     1       8.222  22.383  55.166  1.00  0.00    -0.005 A 
HETATM   23  C   UNL     1       7.859  21.059  55.450  1.00  0.00     0.014 A 
HETATM   24  C   UNL     1       7.781  20.109  54.430  1.00  0.00     0.001 A 
HETATM   25  C   UNL     1       8.072  20.472  53.116  1.00  0.00     0.000 A 
HETATM   26  C   UNL     1       8.445  21.783  52.824  1.00  0.00     0.001 A 
HETATM   27  C   UNL     1       8.524  22.734  53.844  1.00  0.00     0.014 A 
ENDBRANCH   1  22
TORSDOF 3
ENDMDL
MODEL 2
REMARK VINA RESULT:      -8.7      2.758      6.455
REMARK  3 active torsions:
REMARK  status: ('A' for Active; 'I' for Inactive)
REMARK    1  A    between atoms: C_4  and  C_5 
REMARK    2  A    between atoms: C_11  and  C_12 
REMARK    3  A    between atoms: C_21  and  N_22 
ROOT
HETATM    1  C   UNL     1       6.599  28.946  55.596  1.00  0.00     0.098 A 
HETATM    2  N   UNL     1       5.589  29.815  55.385  1.00  0.00    -0.172 NA
HETATM    3  N   UNL     1       4.738  29.165  54.571  1.00  0.00    -0.256 N 
HETATM    4  H   UNL     1       3.895  29.638  54.265  1.00  0.00     0.191 HD
HETATM    5  C   UNL     1       5.162  27.918  54.260  1.00  0.00     0.175 A 
HETATM    6  C   UNL     1       6.342  27.717  54.925  1.00  0.00     0.036 A 
HETATM    7  C   UNL     1       7.021  26.375  54.856  1.00  0.00     0.077 C 
HETATM    8  C   UNL     1       6.424  25.594  53.666  1.00  0.00     0.076 C 
HETATM    9  C   UNL     1       7.225  24.573  53.077  1.00  0.00     0.100 C 
HETATM   10  N   UNL     1       7.889  23.784  52.543  1.00  0.00    -0.192 NA
HETATM   11  C   UNL     1       5.249  25.940  53.065  1.00  0.00     0.140 C 
HETATM   12  O   UNL     1       4.524  27.079  53.454  1.00  0.00    -0.279 OA
ENDROOT
BRANCH   7  13
HETATM   13  C   UNL     1       6.952  25.679  56.263  1.00  0.00     0.003 C 
HETATM   14  C   UNL     1       6.397  24.240  56.244  1.00  0.00     0.032 C 
HETATM   15  C   UNL     1       7.439  23.180  56.074  1.00  0.00    -0.030 C 
HETATM   16  C   UNL     1       8.735  23.378  56.347  1.00  0.00    -0.031 C 
HETATM   17  C   UNL     1       9.287  24.669  56.866  1.00  0.00     0.027 C 
HETATM   18  C   UNL     1       8.246  25.768  57.098  1.00  0.00     0.009 C 
ENDBRANCH   7  13
BRANCH  11  19
HETATM   19  N   UNL     1       4.668  25.289  52.000  1.00  0.00    -0.282 NA
HETATM   20  H   UNL     1       4.974  24.330  51.847  1.00  0.00     0.126 HD
HETATM   21  H   UNL     1       4.678  25.851  51.155  1.00  0.00     0.126 HD
ENDBRANCH  11  19
BRANCH   1  22
HETATM   22  C   UNL     1       7.732  29.316  56.443  1.00  0.00    -0.005 A 
HETATM   23  C   UNL     1       9.029  29.325  55.911  1.00  0.00     0.014 A 
HETATM   24  C   UNL     1      10.121  29.681  56.705  1.00  0.00     0.001 A 
HETATM   25  C   UNL     1       9.926  30.026  58.042  1.00  0.00     0.000 A 
HETATM   26  C   UNL     1       8.643  30.008  58.585  1.00  0.00     0.001 A 
HETATM   27  C   UNL     1       7.550  29.652  57.790  1.00  0.00     0.014 A 
ENDBRANCH   1  22
TORSDOF 3
ENDMDL
MODEL 3
REMARK VINA RESULT:      -8.5      9.527     11.873
REMARK  3 active torsions:
REMARK  status: ('A' for Active; 'I' for Inactive)
REMARK    1  A    between atoms: C_4  and  C_5 
REMARK    2  A    between atoms: C_11  and  C_12 
REMARK    3  A    between atoms: C_21  and  N_22 
ROOT
HETATM    1  C   UNL     1       6.075  32.597  59.827  1.00  0.00     0.098 A 
HETATM    2  N   UNL     1       5.945  32.415  58.497  1.00  0.00    -0.172 NA
HETATM    3  N   UNL     1       4.713  32.871  58.204  1.00  0.00    -0.256 N 
HETATM    4  H   UNL     1       4.388  32.823  57.246  1.00  0.00     0.191 HD
HETATM    5  C   UNL     1       4.057  33.338  59.292  1.00  0.00     0.175 A 
HETATM    6  C   UNL     1       4.908  33.216  60.358  1.00  0.00     0.036 A 
HETATM    7  C   UNL     1       4.498  33.743  61.707  1.00  0.00     0.077 C 
HETATM    8  C   UNL     1       2.970  33.960  61.695  1.00  0.00     0.076 C 
HETATM    9  C   UNL     1       2.288  33.935  62.947  1.00  0.00     0.100 C 
HETATM   10  N   UNL     1       1.709  33.852  63.949  1.00  0.00    -0.192 NA
HETATM   11  C   UNL     1       2.236  34.016  60.546  1.00  0.00     0.140 C 
HETATM   12  O   UNL     1       2.820  33.817  59.284  1.00  0.00    -0.279 OA
ENDROOT
BRANCH   7  13
HETATM   13  C   UNL     1       5.385  34.986  62.076  1.00  0.00     0.003 C 
HETATM   14  C   UNL     1       4.714  36.354  61.828  1.00  0.00     0.032 C 
HETATM   15  C   UNL     1       3.956  36.889  63.001  1.00  0.00    -0.030 C 
HETATM   16  C   UNL     1       4.175  36.486  64.259  1.00  0.00    -0.031 C 
HETATM   17  C   UNL     1       5.207  35.471  64.639  1.00  0.00     0.027 C 
HETATM   18  C   UNL     1       6.038  34.930  63.473  1.00  0.00     0.009 C 
ENDBRANCH   7  13
BRANCH  11  19
HETATM   19  N   UNL     1       0.874  34.202  60.469  1.00  0.00    -0.282 NA
HETATM   20  H   UNL     1       0.334  33.398  60.158  1.00  0.00     0.126 HD
HETATM   21  H   UNL     1       0.632  35.059  59.981  1.00  0.00     0.126 HD
ENDBRANCH  11  19
BRANCH   1  22
HETATM   22  C   UNL     1       7.304  32.205  60.513  1.00  0.00    -0.005 A 
HETATM   23  C   UNL     1       7.240  31.637  61.794  1.00  0.00     0.014 A 
HETATM   24  C   UNL     1       8.405  31.252  62.460  1.00  0.00     0.001 A 
HETATM   25  C   UNL     1       9.647  31.437  61.855  1.00  0.00     0.000 A 
HETATM   26  C   UNL     1       9.724  32.011  60.587  1.00  0.00     0.001 A 
HETATM   27  C   UNL     1       8.558  32.397  59.920  1.00  0.00     0.014 A 
ENDBRANCH   1  22
TORSDOF 3
ENDMDL
MODEL 4
REMARK VINA RESULT:      -8.5      2.925      4.630
REMARK  3 active torsions:
REMARK  status: ('A' for Active; 'I' for Inactive)
REMARK    1  A    between atoms: C_4  and  C_5 
REMARK    2  A    between atoms: C_11  and  C_12 
REMARK    3  A    between atoms: C_21  and  N_22 
ROOT
HETATM    1  C   UNL     1       6.665  25.306  52.786  1.00  0.00     0.098 A 
HETATM    2  N   UNL     1       6.592  25.335  51.439  1.00  0.00    -0.172 NA
HETATM    3  N   UNL     1       6.100  26.553  51.147  1.00  0.00    -0.256 N 
HETATM    4  H   UNL     1       5.947  26.799  50.176  1.00  0.00     0.191 HD
HETATM    5  C   UNL     1       5.862  27.299  52.251  1.00  0.00     0.175 A 
HETATM    6  C   UNL     1       6.243  26.551  53.332  1.00  0.00     0.036 A 
HETATM    7  C   UNL     1       6.188  27.148  54.713  1.00  0.00     0.077 C 
HETATM    8  C   UNL     1       5.290  28.403  54.659  1.00  0.00     0.076 C 
HETATM    9  C   UNL     1       4.663  28.820  55.870  1.00  0.00     0.100 C 
HETATM   10  N   UNL     1       4.094  29.134  56.830  1.00  0.00    -0.192 NA
HETATM   11  C   UNL     1       4.950  29.024  53.492  1.00  0.00     0.140 C 
HETATM   12  O   UNL     1       5.351  28.523  52.242  1.00  0.00    -0.279 OA
ENDROOT
BRANCH   7  13
HETATM   13  C   UNL     1       7.649  27.349  55.256  1.00  0.00     0.003 C 
HETATM   14  C   UNL     1       8.155  28.806  55.222  1.00  0.00     0.032 C 
HETATM   15  C   UNL     1       7.877  29.584  56.469  1.00  0.00    -0.030 C 
HETATM   16  C   UNL     1       7.624  29.007  57.650  1.00  0.00    -0.031 C 
HETATM   17  C   UNL     1       7.606  27.526  57.864  1.00  0.00     0.027 C 
HETATM   18  C   UNL     1       7.932  26.691  56.623  1.00  0.00     0.009 C 
ENDBRANCH   7  13
BRANCH  11  19
HETATM   19  N   UNL     1       4.152  30.140  53.378  1.00  0.00    -0.282 NA
HETATM   20  H   UNL     1       3.164  30.000  53.579  1.00  0.00     0.126 HD
HETATM   21  H   UNL     1       4.316  30.641  52.510  1.00  0.00     0.126 HD
ENDBRANCH  11  19
BRANCH   1  22
HETATM   22  C   UNL     1       7.158  24.115  53.477  1.00  0.00    -0.005 A 
HETATM   23  C   UNL     1       7.964  23.194  52.794  1.00  0.00     0.014 A 
HETATM   24  C   UNL     1       8.447  22.055  53.442  1.00  0.00     0.001 A 
HETATM   25  C   UNL     1       8.124  21.823  54.777  1.00  0.00     0.000 A 
HETATM   26  C   UNL     1       7.313  22.726  55.463  1.00  0.00     0.001 A 
HETATM   27  C   UNL     1       6.829  23.866  54.815  1.00  0.00     0.014 A 
ENDBRANCH   1  22
TORSDOF 3
ENDMDL
MODEL 5
REMARK VINA RESULT:      -8.1      9.251     13.086
REMARK  3 active torsions:
REMARK  status: ('A' for Active; 'I' for Inactive)
REMARK    1  A    between atoms: C_4  and  C_5 
REMARK    2  A    between atoms: C_11  and  C_12 
REMARK    3  A    between atoms: C_21  and  N_22 
ROOT
HETATM    1  C   UNL     1       3.077  34.556  62.527  1.00  0.00     0.098 A 
HETATM    2  N   UNL     1       1.760  34.617  62.241  1.00  0.00    -0.172 NA
HETATM    3  N   UNL     1       1.600  33.813  61.174  1.00  0.00    -0.256 N 
HETATM    4  H   UNL     1       0.676  33.712  60.771  1.00  0.00     0.191 HD
HETATM    5  C   UNL     1       2.760  33.241  60.772  1.00  0.00     0.175 A 
HETATM    6  C   UNL     1       3.735  33.662  61.636  1.00  0.00     0.036 A 
HETATM    7  C   UNL     1       5.133  33.118  61.508  1.00  0.00     0.077 C 
HETATM    8  C   UNL     1       5.273  32.473  60.113  1.00  0.00     0.076 C 
HETATM    9  C   UNL     1       6.583  32.375  59.558  1.00  0.00     0.100 C 
HETATM   10  N   UNL     1       7.633  32.347  59.064  1.00  0.00    -0.192 NA
HETATM   11  C   UNL     1       4.202  32.146  59.334  1.00  0.00     0.140 C 
HETATM   12  O   UNL     1       2.884  32.430  59.730  1.00  0.00    -0.279 OA
ENDROOT
BRANCH   7  13
HETATM   13  C   UNL     1       5.455  32.202  62.744  1.00  0.00     0.003 C 
HETATM   14  C   UNL     1       6.673  31.273  62.559  1.00  0.00     0.032 C 
HETATM   15  C   UNL     1       7.972  31.865  63.006  1.00  0.00    -0.030 C 
HETATM   16  C   UNL     1       8.052  32.885  63.868  1.00  0.00    -0.031 C 
HETATM   17  C   UNL     1       6.861  33.540  64.495  1.00  0.00     0.027 C 
HETATM   18  C   UNL     1       5.511  32.934  64.101  1.00  0.00     0.009 C 
ENDBRANCH   7  13
BRANCH  11  19
HETATM   19  N   UNL     1       4.260  31.575  58.083  1.00  0.00    -0.282 NA
HETATM   20  H   UNL     1       3.639  30.784  57.928  1.00  0.00     0.126 HD
HETATM   21  H   UNL     1       5.216  31.397  57.788  1.00  0.00     0.126 HD
ENDBRANCH  11  19
BRANCH   1  22
HETATM   22  C   UNL     1       3.630  35.321  63.642  1.00  0.00    -0.005 A 
HETATM   23  C   UNL     1       3.270  34.999  64.959  1.00  0.00     0.014 A 
HETATM   24  C   UNL     1       3.795  35.716  66.036  1.00  0.00     0.001 A 
HETATM   25  C   UNL     1       4.681  36.767  65.807  1.00  0.00     0.000 A 
HETATM   26  C   UNL     1       5.037  37.104  64.502  1.00  0.00     0.001 A 
HETATM   27  C   UNL     1       4.512  36.387  63.424  1.00  0.00     0.014 A 
ENDBRANCH   1  22
TORSDOF 3
ENDMDL
MODEL 6
REMARK VINA RESULT:      -7.7      8.866     11.563
REMARK  3 active torsions:
REMARK  status: ('A' for Active; 'I' for Inactive)
REMARK    1  A    between atoms: C_4  and  C_5 
REMARK    2  A    between atoms: C_11  and  C_12 
REMARK    3  A    between atoms: C_21  and  N_22 
ROOT
HETATM    1  C   UNL     1       7.546  32.809  62.387  1.00  0.00     0.098 A 
HETATM    2  N   UNL     1       8.097  32.316  63.515  1.00  0.00    -0.172 NA
HETATM    3  N   UNL     1       7.553  33.039  64.510  1.00  0.00    -0.256 N 
HETATM    4  H   UNL     1       7.834  32.848  65.465  1.00  0.00     0.191 HD
HETATM    5  C   UNL     1       6.676  33.968  64.062  1.00  0.00     0.175 A 
HETATM    6  C   UNL     1       6.610  33.835  62.701  1.00  0.00     0.036 A 
HETATM    7  C   UNL     1       5.639  34.673  61.913  1.00  0.00     0.077 C 
HETATM    8  C   UNL     1       5.184  35.849  62.804  1.00  0.00     0.076 C 
HETATM    9  C   UNL     1       4.716  37.028  62.154  1.00  0.00     0.100 C 
HETATM   10  N   UNL     1       4.394  38.018  61.642  1.00  0.00    -0.192 NA
HETATM   11  C   UNL     1       5.358  35.866  64.157  1.00  0.00     0.140 C 
HETATM   12  O   UNL     1       6.023  34.828  64.832  1.00  0.00    -0.279 OA
ENDROOT
BRANCH   7  13
HETATM   13  C   UNL     1       4.508  33.753  61.326  1.00  0.00     0.003 C 
HETATM   14  C   UNL     1       3.311  33.521  62.271  1.00  0.00     0.032 C 
HETATM   15  C   UNL     1       2.204  34.515  62.119  1.00  0.00    -0.030 C 
HETATM   16  C   UNL     1       2.034  35.257  61.017  1.00  0.00    -0.031 C 
HETATM   17  C   UNL     1       2.915  35.168  59.811  1.00  0.00     0.027 C 
HETATM   18  C   UNL     1       4.035  34.128  59.907  1.00  0.00     0.009 C 
ENDBRANCH   7  13
BRANCH  11  19
HETATM   19  N   UNL     1       4.979  36.883  65.004  1.00  0.00    -0.282 NA
HETATM   20  H   UNL     1       4.776  36.608  65.963  1.00  0.00     0.126 HD
HETATM   21  H   UNL     1       4.260  37.473  64.596  1.00  0.00     0.126 HD
ENDBRANCH  11  19
BRANCH   1  22
HETATM   22  C   UNL     1       7.911  32.262  61.082  1.00  0.00    -0.005 A 
HETATM   23  C   UNL     1       9.252  32.267  60.670  1.00  0.00     0.014 A 
HETATM   24  C   UNL     1       9.617  31.743  59.429  1.00  0.00     0.001 A 
HETATM   25  C   UNL     1       8.644  31.213  58.584  1.00  0.00     0.000 A 
HETATM   26  C   UNL     1       7.307  31.212  58.976  1.00  0.00     0.001 A 
HETATM   27  C   UNL     1       6.941  31.737  60.218  1.00  0.00     0.014 A 
ENDBRANCH   1  22
TORSDOF 3
ENDMDL
MODEL 7
REMARK VINA RESULT:      -7.3      2.283      4.689
REMARK  3 active torsions:
REMARK  status: ('A' for Active; 'I' for Inactive)
REMARK    1  A    between atoms: C_4  and  C_5 
REMARK    2  A    between atoms: C_11  and  C_12 
REMARK    3  A    between atoms: C_21  and  N_22 
ROOT
HETATM    1  C   UNL     1       6.361  25.275  53.186  1.00  0.00     0.098 A 
HETATM    2  N   UNL     1       6.505  23.953  52.961  1.00  0.00    -0.172 NA
HETATM    3  N   UNL     1       6.938  23.448  54.130  1.00  0.00    -0.256 N 
HETATM    4  H   UNL     1       7.128  22.455  54.195  1.00  0.00     0.191 HD
HETATM    5  C   UNL     1       7.071  24.394  55.090  1.00  0.00     0.175 A 
HETATM    6  C   UNL     1       6.677  25.583  54.539  1.00  0.00     0.036 A 
HETATM    7  C   UNL     1       6.621  26.822  55.394  1.00  0.00     0.077 C 
HETATM    8  C   UNL     1       7.443  26.561  56.674  1.00  0.00     0.076 C 
HETATM    9  C   UNL     1       7.977  27.691  57.359  1.00  0.00     0.100 C 
HETATM   10  N   UNL     1       8.473  28.595  57.892  1.00  0.00    -0.192 NA
HETATM   11  C   UNL     1       7.807  25.310  57.081  1.00  0.00     0.140 C 
HETATM   12  O   UNL     1       7.506  24.167  56.322  1.00  0.00    -0.279 OA
ENDROOT
BRANCH   7  13
HETATM   13  C   UNL     1       5.123  27.254  55.593  1.00  0.00     0.003 C 
HETATM   14  C   UNL     1       4.766  27.701  57.026  1.00  0.00     0.032 C 
HETATM   15  C   UNL     1       4.937  29.166  57.275  1.00  0.00    -0.030 C 
HETATM   16  C   UNL     1       4.965  30.076  56.294  1.00  0.00    -0.031 C 
HETATM   17  C   UNL     1       4.813  29.740  54.844  1.00  0.00     0.027 C 
HETATM   18  C   UNL     1       4.589  28.255  54.547  1.00  0.00     0.009 C 
ENDBRANCH   7  13
BRANCH  11  19
HETATM   19  N   UNL     1       8.542  25.013  58.207  1.00  0.00    -0.282 NA
HETATM   20  H   UNL     1       8.948  24.080  58.237  1.00  0.00     0.126 HD
HETATM   21  H   UNL     1       8.052  25.263  59.061  1.00  0.00     0.126 HD
ENDBRANCH  11  19
BRANCH   1  22
HETATM   22  C   UNL     1       5.905  26.164  52.119  1.00  0.00    -0.005 A 
HETATM   23  C   UNL     1       5.101  25.662  51.086  1.00  0.00     0.014 A 
HETATM   24  C   UNL     1       4.653  26.500  50.063  1.00  0.00     0.001 A 
HETATM   25  C   UNL     1       5.008  27.848  50.061  1.00  0.00     0.000 A 
HETATM   26  C   UNL     1       5.816  28.356  51.076  1.00  0.00     0.001 A 
HETATM   27  C   UNL     1       6.266  27.517  52.100  1.00  0.00     0.014 A 
ENDBRANCH   1  22
TORSDOF 3
ENDMDL
MODEL 8
REMARK VINA RESULT:      -7.3     13.657     16.723
REMARK  3 active torsions:
REMARK  status: ('A' for Active; 'I' for Inactive)
REMARK    1  A    between atoms: C_4  and  C_5 
REMARK    2  A    between atoms: C_11  and  C_12 
REMARK    3  A    between atoms: C_21  and  N_22 
ROOT
HETATM    1  C   UNL     1      14.328  10.911  50.512  1.00  0.00     0.098 A 
HETATM    2  N   UNL     1      13.890  11.701  49.510  1.00  0.00    -0.172 NA
HETATM    3  N   UNL     1      12.981  12.511  50.081  1.00  0.00    -0.256 N 
HETATM    4  H   UNL     1      12.503  13.195  49.505  1.00  0.00     0.191 HD
HETATM    5  C   UNL     1      12.826  12.272  51.404  1.00  0.00     0.175 A 
HETATM    6  C   UNL     1      13.699  11.272  51.737  1.00  0.00     0.036 A 
HETATM    7  C   UNL     1      13.832  10.841  53.173  1.00  0.00     0.077 C 
HETATM    8  C   UNL     1      12.606  11.367  53.949  1.00  0.00     0.076 C 
HETATM    9  C   UNL     1      12.230  10.677  55.138  1.00  0.00     0.100 C 
HETATM   10  N   UNL     1      11.870  10.087  56.071  1.00  0.00    -0.192 NA
HETATM   11  C   UNL     1      11.788  12.348  53.469  1.00  0.00     0.140 C 
HETATM   12  O   UNL     1      11.974  12.910  52.195  1.00  0.00    -0.279 OA
ENDROOT
BRANCH   7  13
HETATM   13  C   UNL     1      15.245  11.261  53.718  1.00  0.00     0.003 C 
HETATM   14  C   UNL     1      15.243  11.815  55.158  1.00  0.00     0.032 C 
HETATM   15  C   UNL     1      15.446  10.778  56.217  1.00  0.00    -0.030 C 
HETATM   16  C   UNL     1      16.004   9.585  55.975  1.00  0.00    -0.031 C 
HETATM   17  C   UNL     1      16.503   9.158  54.630  1.00  0.00     0.027 C 
HETATM   18  C   UNL     1      16.357  10.209  53.526  1.00  0.00     0.009 C 
ENDBRANCH   7  13
BRANCH  11  19
HETATM   19  N   UNL     1      10.679  12.856  54.109  1.00  0.00    -0.282 NA
HETATM   20  H   UNL     1       9.843  12.277  54.071  1.00  0.00     0.126 HD
HETATM   21  H   UNL     1      10.506  13.825  53.863  1.00  0.00     0.126 HD
ENDBRANCH  11  19
BRANCH   1  22
HETATM   22  C   UNL     1      15.337   9.883  50.260  1.00  0.00    -0.005 A 
HETATM   23  C   UNL     1      15.012   8.529  50.423  1.00  0.00     0.014 A 
HETATM   24  C   UNL     1      15.962   7.535  50.182  1.00  0.00     0.001 A 
HETATM   25  C   UNL     1      17.249   7.886  49.780  1.00  0.00     0.000 A 
HETATM   26  C   UNL     1      17.588   9.230  49.626  1.00  0.00     0.001 A 
HETATM   27  C   UNL     1      16.637  10.224  49.868  1.00  0.00     0.014 A 
ENDBRANCH   1  22
TORSDOF 3
ENDMDL
MODEL 9
REMARK VINA RESULT:      -7.1     13.132     15.089
REMARK  3 active torsions:
REMARK  status: ('A' for Active; 'I' for Inactive)
REMARK    1  A    between atoms: C_4  and  C_5 
REMARK    2  A    between atoms: C_11  and  C_12 
REMARK    3  A    between atoms: C_21  and  N_22 
ROOT
HETATM    1  C   UNL     1       3.527  34.614  63.599  1.00  0.00     0.098 A 
HETATM    2  N   UNL     1       3.051  33.421  63.188  1.00  0.00    -0.172 NA
HETATM    3  N   UNL     1       2.562  33.650  61.955  1.00  0.00    -0.256 N 
HETATM    4  H   UNL     1       2.136  32.884  61.447  1.00  0.00     0.191 HD
HETATM    5  C   UNL     1       2.712  34.938  61.564  1.00  0.00     0.175 A 
HETATM    6  C   UNL     1       3.361  35.592  62.577  1.00  0.00     0.036 A 
HETATM    7  C   UNL     1       3.761  37.033  62.401  1.00  0.00     0.077 C 
HETATM    8  C   UNL     1       2.961  37.613  61.216  1.00  0.00     0.076 C 
HETATM    9  C   UNL     1       2.755  39.024  61.185  1.00  0.00     0.100 C 
HETATM   10  N   UNL     1       2.523  40.160  61.178  1.00  0.00    -0.192 NA
HETATM   11  C   UNL     1       2.318  36.833  60.300  1.00  0.00     0.140 C 
HETATM   12  O   UNL     1       2.292  35.432  60.408  1.00  0.00    -0.279 OA
ENDROOT
BRANCH   7  13
HETATM   13  C   UNL     1       5.327  37.135  62.313  1.00  0.00     0.003 C 
HETATM   14  C   UNL     1       5.851  38.030  61.171  1.00  0.00     0.032 C 
HETATM   15  C   UNL     1       6.052  39.463  61.554  1.00  0.00    -0.030 C 
HETATM   16  C   UNL     1       6.196  39.867  62.822  1.00  0.00    -0.031 C 
HETATM   17  C   UNL     1       6.191  38.940  63.996  1.00  0.00     0.027 C 
HETATM   18  C   UNL     1       6.034  37.457  63.646  1.00  0.00     0.009 C 
ENDBRANCH   7  13
BRANCH  11  19
HETATM   19  N   UNL     1       1.586  37.289  59.226  1.00  0.00    -0.282 NA
HETATM   20  H   UNL     1       0.826  36.685  58.920  1.00  0.00     0.126 HD
HETATM   21  H   UNL     1       2.180  37.602  58.464  1.00  0.00     0.126 HD
ENDBRANCH  11  19
BRANCH   1  22
HETATM   22  C   UNL     1       4.139  34.755  64.919  1.00  0.00    -0.005 A 
HETATM   23  C   UNL     1       5.235  33.955  65.271  1.00  0.00     0.014 A 
HETATM   24  C   UNL     1       5.834  34.081  66.526  1.00  0.00     0.001 A 
HETATM   25  C   UNL     1       5.339  35.005  67.443  1.00  0.00     0.000 A 
HETATM   26  C   UNL     1       4.242  35.798  67.110  1.00  0.00     0.001 A 
HETATM   27  C   UNL     1       3.642  35.671  65.854  1.00  0.00     0.014 A 
ENDBRANCH   1  22
TORSDOF 3
ENDMDL
MODEL 10
REMARK VINA RESULT:      -7.1      6.698      9.290
REMARK  3 active torsions:
REMARK  status: ('A' for Active; 'I' for Inactive)
REMARK    1  A    between atoms: C_4  and  C_5 
REMARK    2  A    between atoms: C_11  and  C_12 
REMARK    3  A    between atoms: C_21  and  N_22 
ROOT
HETATM    1  C   UNL     1       5.654  32.829  60.701  1.00  0.00     0.098 A 
HETATM    2  N   UNL     1       4.890  33.404  61.654  1.00  0.00    -0.172 NA
HETATM    3  N   UNL     1       3.771  33.789  61.014  1.00  0.00    -0.256 N 
HETATM    4  H   UNL     1       3.045  34.263  61.539  1.00  0.00     0.191 HD
HETATM    5  C   UNL     1       3.789  33.479  59.696  1.00  0.00     0.175 A 
HETATM    6  C   UNL     1       4.969  32.827  59.453  1.00  0.00     0.036 A 
HETATM    7  C   UNL     1       5.245  32.265  58.084  1.00  0.00     0.077 C 
HETATM    8  C   UNL     1       4.268  32.925  57.087  1.00  0.00     0.076 C 
HETATM    9  C   UNL     1       4.657  32.976  55.717  1.00  0.00     0.100 C 
HETATM   10  N   UNL     1       4.986  33.085  54.609  1.00  0.00    -0.192 NA
HETATM   11  C   UNL     1       3.143  33.590  57.479  1.00  0.00     0.140 C 
HETATM   12  O   UNL     1       2.824  33.772  58.836  1.00  0.00    -0.279 OA
ENDROOT
BRANCH   7  13
HETATM   13  C   UNL     1       5.234  30.696  58.149  1.00  0.00     0.003 C 
HETATM   14  C   UNL     1       4.046  30.028  57.425  1.00  0.00     0.032 C 
HETATM   15  C   UNL     1       4.308  29.695  55.990  1.00  0.00    -0.030 C 
HETATM   16  C   UNL     1       5.540  29.566  55.483  1.00  0.00    -0.031 C 
HETATM   17  C   UNL     1       6.791  29.722  56.288  1.00  0.00     0.027 C 
HETATM   18  C   UNL     1       6.568  30.018  57.774  1.00  0.00     0.009 C 
ENDBRANCH   7  13
BRANCH  11  19
HETATM   19  N   UNL     1       2.236  34.201  56.642  1.00  0.00    -0.282 NA
HETATM   20  H   UNL     1       2.274  35.218  56.616  1.00  0.00     0.126 HD
HETATM   21  H   UNL     1       1.296  33.839  56.766  1.00  0.00     0.126 HD
ENDBRANCH  11  19
BRANCH   1  22
HETATM   22  C   UNL     1       6.971  32.288  61.032  1.00  0.00    -0.005 A 
HETATM   23  C   UNL     1       7.155  31.575  62.225  1.00  0.00     0.014 A 
HETATM   24  C   UNL     1       8.406  31.047  62.552  1.00  0.00     0.001 A 
HETATM   25  C   UNL     1       9.486  31.232  61.691  1.00  0.00     0.000 A 
HETATM   26  C   UNL     1       9.318  31.950  60.508  1.00  0.00     0.001 A 
HETATM   27  C   UNL     1       8.067  32.479  60.181  1.00  0.00     0.014 A 
ENDBRANCH   1  22
TORSDOF 3
ENDMDL
