MODEL 1
REMARK VINA RESULT:     -10.7      0.000      0.000
REMARK  7 active torsions:
REMARK  status: ('A' for Active; 'I' for Inactive)
REMARK    1  A    between atoms: C_2  and  N_3 
REMARK       I    between atoms: N_3  and  C_4 
REMARK    2  A    between atoms: N_3  and  C_21 
REMARK    3  A    between atoms: C_4  and  C_5 
REMARK    4  A    between atoms: C_14  and  O_15 
REMARK    5  A    between atoms: C_21  and  C_22 
REMARK       I    between atoms: C_22  and  N_23 
REMARK    6  A    between atoms: N_23  and  C_24 
REMARK    7  A    between atoms: C_27  and  N_28 
REMARK       I    between atoms: N_28  and  C_29 
ROOT
HETATM    1  N   UNL     1       6.616  30.260  57.513  1.00  0.00    -0.339 N 
HETATM    2  C   UNL     1       5.831  29.089  57.449  1.00  0.00     0.261 C 
HETATM    3  O   UNL     1       4.603  29.222  57.477  1.00  0.00    -0.267 OA
ENDROOT
BRANCH   1   4
HETATM    4  C   UNL     1       5.915  31.544  57.373  1.00  0.00     0.122 C 
HETATM    5  C   UNL     1       5.330  31.745  55.980  1.00  0.00     0.026 C 
ENDBRANCH   1   4
BRANCH   1   6
HETATM    6  C   UNL     1       7.965  30.328  58.091  1.00  0.00     0.229 C 
BRANCH   6   7
HETATM    7  C   UNL     1       8.129  31.350  59.228  1.00  0.00     0.240 C 
HETATM    8  N   UNL     1       7.412  31.024  60.364  1.00  0.00    -0.326 N 
HETATM    9  H   UNL     1       6.936  30.130  60.333  1.00  0.00     0.169 HD
HETATM   10  O   UNL     1       8.762  32.384  59.037  1.00  0.00    -0.271 OA
BRANCH   8  11
HETATM   11  C   UNL     1       7.191  31.814  61.507  1.00  0.00     0.034 A 
HETATM   12  C   UNL     1       7.995  31.787  62.644  1.00  0.00     0.032 A 
HETATM   13  C   UNL     1       7.725  32.632  63.731  1.00  0.00     0.032 A 
HETATM   14  C   UNL     1       6.649  33.518  63.697  1.00  0.00     0.034 A 
HETATM   15  C   UNL     1       5.837  33.538  62.557  1.00  0.00     0.032 A 
HETATM   16  C   UNL     1       6.103  32.692  61.475  1.00  0.00     0.032 A 
BRANCH  14  17
HETATM   17  N   UNL     1       6.321  34.409  64.738  1.00  0.00    -0.328 N 
HETATM   18  C   UNL     1       5.316  34.269  65.679  1.00  0.00     0.218 C 
HETATM   19  C   UNL     1       5.260  35.418  66.658  1.00  0.00     0.117 C 
HETATM   20  O   UNL     1       4.524  33.339  65.778  1.00  0.00    -0.274 OA
HETATM   21  H   UNL     1       6.894  35.241  64.802  1.00  0.00     0.169 HD
ENDBRANCH  14  17
ENDBRANCH   8  11
ENDBRANCH   6   7
ENDBRANCH   1   6
BRANCH   2  22
HETATM   22  C   UNL     1       6.447  27.771  57.222  1.00  0.00     0.074 A 
HETATM   23  S   UNL     1       5.898  26.913  55.817  1.00  0.00    -0.084 SA
HETATM   24  C   UNL     1       7.049  25.684  55.991  1.00  0.00     0.023 A 
HETATM   25  C   UNL     1       7.797  25.843  57.137  1.00  0.00    -0.038 A 
HETATM   26  C   UNL     1       7.237  24.572  55.053  1.00  0.00    -0.012 A 
HETATM   27  C   UNL     1       8.883  24.870  57.486  1.00  0.00     0.044 C 
HETATM   28  C   UNL     1       7.445  27.037  57.844  1.00  0.00     0.033 A 
HETATM   29  C   UNL     1       8.616  23.475  56.887  1.00  0.00     0.044 C 
HETATM   30  C   UNL     1       8.059  23.502  55.473  1.00  0.00    -0.044 A 
HETATM   31  C   UNL     1       8.283  22.418  54.611  1.00  0.00     0.044 A 
HETATM   32  C   UNL     1       7.718  22.391  53.332  1.00  0.00     0.068 A 
HETATM   33  C   UNL     1       6.925  23.458  52.912  1.00  0.00     0.037 A 
HETATM   34  C   UNL     1       6.684  24.539  53.767  1.00  0.00     0.016 A 
BRANCH  32  35
HETATM   35  O   UNL     1       8.016  21.277  52.596  1.00  0.00    -0.356 OA
HETATM   36  C   UNL     1       8.860  20.312  53.212  1.00  0.00     0.210 C 
ENDBRANCH  32  35
ENDBRANCH   2  22
TORSDOF 7
ENDMDL
MODEL 2
REMARK VINA RESULT:     -10.7      2.546     11.897
REMARK  7 active torsions:
REMARK  status: ('A' for Active; 'I' for Inactive)
REMARK    1  A    between atoms: C_2  and  N_3 
REMARK       I    between atoms: N_3  and  C_4 
REMARK    2  A    between atoms: N_3  and  C_21 
REMARK    3  A    between atoms: C_4  and  C_5 
REMARK    4  A    between atoms: C_14  and  O_15 
REMARK    5  A    between atoms: C_21  and  C_22 
REMARK       I    between atoms: C_22  and  N_23 
REMARK    6  A    between atoms: N_23  and  C_24 
REMARK    7  A    between atoms: C_27  and  N_28 
REMARK       I    between atoms: N_28  and  C_29 
ROOT
HETATM    1  N   UNL     1       8.768  30.320  58.028  1.00  0.00    -0.339 N 
HETATM    2  C   UNL     1       8.914  31.498  58.791  1.00  0.00     0.261 C 
HETATM    3  O   UNL     1       9.904  32.203  58.568  1.00  0.00    -0.267 OA
ENDROOT
BRANCH   1   4
HETATM    4  C   UNL     1       9.669  30.149  56.880  1.00  0.00     0.122 C 
HETATM    5  C   UNL     1      11.073  29.722  57.293  1.00  0.00     0.026 C 
ENDBRANCH   1   4
BRANCH   1   6
HETATM    6  C   UNL     1       8.093  29.103  58.495  1.00  0.00     0.229 C 
BRANCH   6   7
HETATM    7  C   UNL     1       7.732  28.099  57.388  1.00  0.00     0.240 C 
HETATM    8  N   UNL     1       7.807  26.781  57.798  1.00  0.00    -0.326 N 
HETATM    9  H   UNL     1       8.014  26.646  58.781  1.00  0.00     0.169 HD
HETATM   10  O   UNL     1       7.515  28.495  56.247  1.00  0.00    -0.271 OA
BRANCH   8  11
HETATM   11  C   UNL     1       7.723  25.620  57.009  1.00  0.00     0.034 A 
HETATM   12  C   UNL     1       6.676  25.341  56.134  1.00  0.00     0.032 A 
HETATM   13  C   UNL     1       6.683  24.174  55.356  1.00  0.00     0.032 A 
HETATM   14  C   UNL     1       7.740  23.269  55.439  1.00  0.00     0.034 A 
HETATM   15  C   UNL     1       8.789  23.545  56.324  1.00  0.00     0.032 A 
HETATM   16  C   UNL     1       8.778  24.707  57.104  1.00  0.00     0.032 A 
BRANCH  14  17
HETATM   17  N   UNL     1       7.832  22.084  54.681  1.00  0.00    -0.328 N 
HETATM   18  C   UNL     1       7.926  21.970  53.306  1.00  0.00     0.218 C 
HETATM   19  C   UNL     1       8.019  20.537  52.837  1.00  0.00     0.117 C 
HETATM   20  O   UNL     1       7.946  22.886  52.491  1.00  0.00    -0.274 OA
HETATM   21  H   UNL     1       7.835  21.222  55.212  1.00  0.00     0.169 HD
ENDBRANCH  14  17
ENDBRANCH   8  11
ENDBRANCH   6   7
ENDBRANCH   1   6
BRANCH   2  22
HETATM   22  C   UNL     1       7.861  31.938  59.720  1.00  0.00     0.074 A 
HETATM   23  S   UNL     1       8.306  31.989  61.397  1.00  0.00    -0.084 SA
HETATM   24  C   UNL     1       6.854  32.720  61.867  1.00  0.00     0.023 A 
HETATM   25  C   UNL     1       5.985  32.857  60.807  1.00  0.00    -0.038 A 
HETATM   26  C   UNL     1       6.536  33.154  63.232  1.00  0.00    -0.012 A 
HETATM   27  C   UNL     1       4.638  33.489  60.996  1.00  0.00     0.044 C 
HETATM   28  C   UNL     1       6.562  32.401  59.579  1.00  0.00     0.033 A 
HETATM   29  C   UNL     1       4.125  33.324  62.440  1.00  0.00     0.044 C 
HETATM   30  C   UNL     1       5.195  33.508  63.504  1.00  0.00    -0.044 A 
HETATM   31  C   UNL     1       4.838  33.941  64.789  1.00  0.00     0.044 A 
HETATM   32  C   UNL     1       5.797  34.045  65.802  1.00  0.00     0.068 A 
HETATM   33  C   UNL     1       7.123  33.716  65.525  1.00  0.00     0.037 A 
HETATM   34  C   UNL     1       7.490  33.271  64.251  1.00  0.00     0.016 A 
BRANCH  32  35
HETATM   35  O   UNL     1       5.314  34.480  67.006  1.00  0.00    -0.356 OA
HETATM   36  C   UNL     1       6.206  34.412  68.113  1.00  0.00     0.210 C 
ENDBRANCH  32  35
ENDBRANCH   2  22
TORSDOF 7
ENDMDL
MODEL 3
REMARK VINA RESULT:     -10.5      2.461     11.704
REMARK  7 active torsions:
REMARK  status: ('A' for Active; 'I' for Inactive)
REMARK    1  A    between atoms: C_2  and  N_3 
REMARK       I    between atoms: N_3  and  C_4 
REMARK    2  A    between atoms: N_3  and  C_21 
REMARK    3  A    between atoms: C_4  and  C_5 
REMARK    4  A    between atoms: C_14  and  O_15 
REMARK    5  A    between atoms: C_21  and  C_22 
REMARK       I    between atoms: C_22  and  N_23 
REMARK    6  A    between atoms: N_23  and  C_24 
REMARK    7  A    between atoms: C_27  and  N_28 
REMARK       I    between atoms: N_28  and  C_29 
ROOT
HETATM    1  N   UNL     1       6.306  30.562  57.737  1.00  0.00    -0.339 N 
HETATM    2  C   UNL     1       6.176  31.875  58.236  1.00  0.00     0.261 C 
HETATM    3  O   UNL     1       5.693  32.727  57.482  1.00  0.00    -0.267 OA
ENDROOT
BRANCH   1   4
HETATM    4  C   UNL     1       5.647  30.262  56.458  1.00  0.00     0.122 C 
HETATM    5  C   UNL     1       4.256  29.667  56.639  1.00  0.00     0.026 C 
ENDBRANCH   1   4
BRANCH   1   6
HETATM    6  C   UNL     1       7.339  29.608  58.161  1.00  0.00     0.229 C 
BRANCH   6   7
HETATM    7  C   UNL     1       7.662  28.508  57.136  1.00  0.00     0.240 C 
HETATM    8  N   UNL     1       7.108  27.282  57.455  1.00  0.00    -0.326 N 
HETATM    9  H   UNL     1       6.507  27.280  58.272  1.00  0.00     0.169 HD
HETATM   10  O   UNL     1       8.430  28.740  56.208  1.00  0.00    -0.271 OA
BRANCH   8  11
HETATM   11  C   UNL     1       7.347  26.037  56.848  1.00  0.00     0.034 A 
HETATM   12  C   UNL     1       8.376  25.172  57.214  1.00  0.00     0.032 A 
HETATM   13  C   UNL     1       8.528  23.931  56.579  1.00  0.00     0.032 A 
HETATM   14  C   UNL     1       7.651  23.533  55.571  1.00  0.00     0.034 A 
HETATM   15  C   UNL     1       6.622  24.406  55.198  1.00  0.00     0.032 A 
HETATM   16  C   UNL     1       6.474  25.647  55.828  1.00  0.00     0.032 A 
BRANCH  14  17
HETATM   17  N   UNL     1       7.725  22.298  54.896  1.00  0.00    -0.328 N 
HETATM   18  C   UNL     1       7.871  22.089  53.537  1.00  0.00     0.218 C 
HETATM   19  C   UNL     1       7.924  20.626  53.166  1.00  0.00     0.117 C 
HETATM   20  O   UNL     1       7.962  22.947  52.665  1.00  0.00    -0.274 OA
HETATM   21  H   UNL     1       7.670  21.474  55.481  1.00  0.00     0.169 HD
ENDBRANCH  14  17
ENDBRANCH   8  11
ENDBRANCH   6   7
ENDBRANCH   1   6
BRANCH   2  22
HETATM   22  C   UNL     1       6.479  32.189  59.642  1.00  0.00     0.074 A 
HETATM   23  S   UNL     1       5.233  33.026  60.514  1.00  0.00    -0.084 SA
HETATM   24  C   UNL     1       6.043  32.903  61.995  1.00  0.00     0.023 A 
HETATM   25  C   UNL     1       7.283  32.320  61.851  1.00  0.00    -0.038 A 
HETATM   26  C   UNL     1       5.511  33.361  63.283  1.00  0.00    -0.012 A 
HETATM   27  C   UNL     1       8.172  32.105  63.040  1.00  0.00     0.044 C 
HETATM   28  C   UNL     1       7.533  31.919  60.500  1.00  0.00     0.033 A 
HETATM   29  C   UNL     1       7.887  33.123  64.161  1.00  0.00     0.044 C 
HETATM   30  C   UNL     1       6.411  33.418  64.372  1.00  0.00    -0.044 A 
HETATM   31  C   UNL     1       5.952  33.838  65.629  1.00  0.00     0.044 A 
HETATM   32  C   UNL     1       4.612  34.184  65.824  1.00  0.00     0.068 A 
HETATM   33  C   UNL     1       3.723  34.107  64.754  1.00  0.00     0.037 A 
HETATM   34  C   UNL     1       4.169  33.701  63.492  1.00  0.00     0.016 A 
BRANCH  32  35
HETATM   35  O   UNL     1       4.300  34.576  67.097  1.00  0.00    -0.356 OA
HETATM   36  C   UNL     1       5.390  34.768  67.991  1.00  0.00     0.210 C 
ENDBRANCH  32  35
ENDBRANCH   2  22
TORSDOF 7
ENDMDL
MODEL 4
REMARK VINA RESULT:     -10.3      2.672     11.243
REMARK  7 active torsions:
REMARK  status: ('A' for Active; 'I' for Inactive)
REMARK    1  A    between atoms: C_2  and  N_3 
REMARK       I    between atoms: N_3  and  C_4 
REMARK    2  A    between atoms: N_3  and  C_21 
REMARK    3  A    between atoms: C_4  and  C_5 
REMARK    4  A    between atoms: C_14  and  O_15 
REMARK    5  A    between atoms: C_21  and  C_22 
REMARK       I    between atoms: C_22  and  N_23 
REMARK    6  A    between atoms: N_23  and  C_24 
REMARK    7  A    between atoms: C_27  and  N_28 
REMARK       I    between atoms: N_28  and  C_29 
ROOT
HETATM    1  N   UNL     1       4.371  30.384  56.621  1.00  0.00    -0.339 N 
HETATM    2  C   UNL     1       5.265  31.462  56.797  1.00  0.00     0.261 C 
HETATM    3  O   UNL     1       5.256  32.356  55.945  1.00  0.00    -0.267 OA
ENDROOT
BRANCH   1   4
HETATM    4  C   UNL     1       3.348  30.526  55.575  1.00  0.00     0.122 C 
HETATM    5  C   UNL     1       3.826  30.033  54.215  1.00  0.00     0.026 C 
ENDBRANCH   1   4
BRANCH   1   6
HETATM    6  C   UNL     1       4.613  29.016  57.096  1.00  0.00     0.229 C 
BRANCH   6   7
HETATM    7  C   UNL     1       5.539  28.176  56.201  1.00  0.00     0.240 C 
HETATM    8  N   UNL     1       5.103  26.875  56.030  1.00  0.00    -0.326 N 
HETATM    9  H   UNL     1       4.204  26.662  56.449  1.00  0.00     0.169 HD
HETATM   10  O   UNL     1       6.598  28.647  55.800  1.00  0.00    -0.271 OA
BRANCH   8  11
HETATM   11  C   UNL     1       5.788  25.801  55.434  1.00  0.00     0.034 A 
HETATM   12  C   UNL     1       6.758  25.037  56.080  1.00  0.00     0.032 A 
HETATM   13  C   UNL     1       7.373  23.960  55.425  1.00  0.00     0.032 A 
HETATM   14  C   UNL     1       7.026  23.628  54.116  1.00  0.00     0.034 A 
HETATM   15  C   UNL     1       6.057  24.400  53.466  1.00  0.00     0.032 A 
HETATM   16  C   UNL     1       5.447  25.479  54.117  1.00  0.00     0.032 A 
BRANCH  14  17
HETATM   17  N   UNL     1       7.583  22.552  53.395  1.00  0.00    -0.328 N 
HETATM   18  C   UNL     1       7.843  21.275  53.857  1.00  0.00     0.218 C 
HETATM   19  C   UNL     1       8.436  20.374  52.800  1.00  0.00     0.117 C 
HETATM   20  O   UNL     1       7.634  20.843  54.986  1.00  0.00    -0.274 OA
HETATM   21  H   UNL     1       7.811  22.744  52.428  1.00  0.00     0.169 HD
ENDBRANCH  14  17
ENDBRANCH   8  11
ENDBRANCH   6   7
ENDBRANCH   1   6
BRANCH   2  22
HETATM   22  C   UNL     1       6.079  31.584  58.017  1.00  0.00     0.074 A 
HETATM   23  S   UNL     1       5.419  32.590  59.268  1.00  0.00    -0.084 SA
HETATM   24  C   UNL     1       6.623  32.172  60.382  1.00  0.00     0.023 A 
HETATM   25  C   UNL     1       7.577  31.352  59.820  1.00  0.00    -0.038 A 
HETATM   26  C   UNL     1       6.668  32.623  61.778  1.00  0.00    -0.012 A 
HETATM   27  C   UNL     1       8.734  30.853  60.632  1.00  0.00     0.044 C 
HETATM   28  C   UNL     1       7.266  31.023  58.462  1.00  0.00     0.033 A 
HETATM   29  C   UNL     1       9.078  31.810  61.789  1.00  0.00     0.044 C 
HETATM   30  C   UNL     1       7.865  32.394  62.494  1.00  0.00    -0.044 A 
HETATM   31  C   UNL     1       7.958  32.794  63.835  1.00  0.00     0.044 A 
HETATM   32  C   UNL     1       6.875  33.401  64.479  1.00  0.00     0.068 A 
HETATM   33  C   UNL     1       5.689  33.606  63.776  1.00  0.00     0.037 A 
HETATM   34  C   UNL     1       5.587  33.222  62.435  1.00  0.00     0.016 A 
BRANCH  32  35
HETATM   35  O   UNL     1       7.101  33.741  65.785  1.00  0.00    -0.356 OA
HETATM   36  C   UNL     1       5.976  34.186  66.532  1.00  0.00     0.210 C 
ENDBRANCH  32  35
ENDBRANCH   2  22
TORSDOF 7
ENDMDL
MODEL 5
REMARK VINA RESULT:     -10.2      1.239      2.098
REMARK  7 active torsions:
REMARK  status: ('A' for Active; 'I' for Inactive)
REMARK    1  A    between atoms: C_2  and  N_3 
REMARK       I    between atoms: N_3  and  C_4 
REMARK    2  A    between atoms: N_3  and  C_21 
REMARK    3  A    between atoms: C_4  and  C_5 
REMARK    4  A    between atoms: C_14  and  O_15 
REMARK    5  A    between atoms: C_21  and  C_22 
REMARK       I    between atoms: C_22  and  N_23 
REMARK    6  A    between atoms: N_23  and  C_24 
REMARK    7  A    between atoms: C_27  and  N_28 
REMARK       I    between atoms: N_28  and  C_29 
ROOT
HETATM    1  N   UNL     1       6.208  30.289  57.099  1.00  0.00    -0.339 N 
HETATM    2  C   UNL     1       5.406  29.273  56.536  1.00  0.00     0.261 C 
HETATM    3  O   UNL     1       4.185  29.344  56.715  1.00  0.00    -0.267 OA
ENDROOT
BRANCH   1   4
HETATM    4  C   UNL     1       5.515  31.464  57.646  1.00  0.00     0.122 C 
HETATM    5  C   UNL     1       5.199  32.508  56.583  1.00  0.00     0.026 C 
ENDBRANCH   1   4
BRANCH   1   6
HETATM    6  C   UNL     1       7.598  30.106  57.537  1.00  0.00     0.229 C 
BRANCH   6   7
HETATM    7  C   UNL     1       8.025  30.997  58.716  1.00  0.00     0.240 C 
HETATM    8  N   UNL     1       7.268  30.797  59.855  1.00  0.00    -0.326 N 
HETATM    9  H   UNL     1       6.586  30.050  59.795  1.00  0.00     0.169 HD
HETATM   10  O   UNL     1       8.889  31.853  58.556  1.00  0.00    -0.271 OA
BRANCH   8  11
HETATM   11  C   UNL     1       7.264  31.557  61.039  1.00  0.00     0.034 A 
HETATM   12  C   UNL     1       6.515  32.716  61.223  1.00  0.00     0.032 A 
HETATM   13  C   UNL     1       6.541  33.398  62.448  1.00  0.00     0.032 A 
HETATM   14  C   UNL     1       7.316  32.931  63.509  1.00  0.00     0.034 A 
HETATM   15  C   UNL     1       8.076  31.771  63.320  1.00  0.00     0.032 A 
HETATM   16  C   UNL     1       8.053  31.093  62.096  1.00  0.00     0.032 A 
BRANCH  14  17
HETATM   17  N   UNL     1       7.385  33.548  64.775  1.00  0.00    -0.328 N 
HETATM   18  C   UNL     1       6.362  33.701  65.692  1.00  0.00     0.218 C 
HETATM   19  C   UNL     1       6.801  34.405  66.955  1.00  0.00     0.117 C 
HETATM   20  O   UNL     1       5.201  33.326  65.571  1.00  0.00    -0.274 OA
HETATM   21  H   UNL     1       8.292  33.913  65.036  1.00  0.00     0.169 HD
ENDBRANCH  14  17
ENDBRANCH   8  11
ENDBRANCH   6   7
ENDBRANCH   1   6
BRANCH   2  22
HETATM   22  C   UNL     1       5.986  28.244  55.658  1.00  0.00     0.074 A 
HETATM   23  S   UNL     1       6.463  26.768  56.437  1.00  0.00    -0.084 SA
HETATM   24  C   UNL     1       6.816  25.990  54.976  1.00  0.00     0.023 A 
HETATM   25  C   UNL     1       6.671  26.837  53.899  1.00  0.00    -0.038 A 
HETATM   26  C   UNL     1       7.235  24.589  54.851  1.00  0.00    -0.012 A 
HETATM   27  C   UNL     1       6.926  26.352  52.503  1.00  0.00     0.044 C 
HETATM   28  C   UNL     1       6.202  28.130  54.294  1.00  0.00     0.033 A 
HETATM   29  C   UNL     1       7.928  25.181  52.476  1.00  0.00     0.044 C 
HETATM   30  C   UNL     1       7.734  24.172  53.596  1.00  0.00    -0.044 A 
HETATM   31  C   UNL     1       8.137  22.840  53.417  1.00  0.00     0.044 A 
HETATM   32  C   UNL     1       8.035  21.915  54.460  1.00  0.00     0.068 A 
HETATM   33  C   UNL     1       7.523  22.324  55.690  1.00  0.00     0.037 A 
HETATM   34  C   UNL     1       7.127  23.652  55.885  1.00  0.00     0.016 A 
BRANCH  32  35
HETATM   35  O   UNL     1       8.463  20.653  54.151  1.00  0.00    -0.356 OA
HETATM   36  C   UNL     1       8.582  20.339  52.769  1.00  0.00     0.210 C 
ENDBRANCH  32  35
ENDBRANCH   2  22
TORSDOF 7
ENDMDL
MODEL 6
REMARK VINA RESULT:     -10.2      3.700     11.667
REMARK  7 active torsions:
REMARK  status: ('A' for Active; 'I' for Inactive)
REMARK    1  A    between atoms: C_2  and  N_3 
REMARK       I    between atoms: N_3  and  C_4 
REMARK    2  A    between atoms: N_3  and  C_21 
REMARK    3  A    between atoms: C_4  and  C_5 
REMARK    4  A    between atoms: C_14  and  O_15 
REMARK    5  A    between atoms: C_21  and  C_22 
REMARK       I    between atoms: C_22  and  N_23 
REMARK    6  A    between atoms: N_23  and  C_24 
REMARK    7  A    between atoms: C_27  and  N_28 
REMARK       I    between atoms: N_28  and  C_29 
ROOT
HETATM    1  N   UNL     1       9.041  30.337  57.829  1.00  0.00    -0.339 N 
HETATM    2  C   UNL     1       9.160  31.449  58.689  1.00  0.00     0.261 C 
HETATM    3  O   UNL     1      10.163  32.160  58.568  1.00  0.00    -0.267 OA
ENDROOT
BRANCH   1   4
HETATM    4  C   UNL     1       9.993  30.248  56.713  1.00  0.00     0.122 C 
HETATM    5  C   UNL     1      11.303  29.578  57.110  1.00  0.00     0.026 C 
ENDBRANCH   1   4
BRANCH   1   6
HETATM    6  C   UNL     1       8.338  29.093  58.169  1.00  0.00     0.229 C 
BRANCH   6   7
HETATM    7  C   UNL     1       7.962  28.215  56.964  1.00  0.00     0.240 C 
HETATM    8  N   UNL     1       7.118  28.845  56.069  1.00  0.00    -0.326 N 
HETATM    9  H   UNL     1       6.915  29.816  56.278  1.00  0.00     0.169 HD
HETATM   10  O   UNL     1       8.325  27.043  56.921  1.00  0.00    -0.271 OA
BRANCH   8  11
HETATM   11  C   UNL     1       6.441  28.284  54.971  1.00  0.00     0.034 A 
HETATM   12  C   UNL     1       5.059  28.320  54.801  1.00  0.00     0.032 A 
HETATM   13  C   UNL     1       4.463  27.765  53.659  1.00  0.00     0.032 A 
HETATM   14  C   UNL     1       5.240  27.168  52.668  1.00  0.00     0.034 A 
HETATM   15  C   UNL     1       6.628  27.125  52.843  1.00  0.00     0.032 A 
HETATM   16  C   UNL     1       7.222  27.674  53.985  1.00  0.00     0.032 A 
BRANCH  14  17
HETATM   17  N   UNL     1       4.722  26.603  51.485  1.00  0.00    -0.328 N 
HETATM   18  C   UNL     1       4.827  27.100  50.199  1.00  0.00     0.218 C 
HETATM   19  C   UNL     1       4.157  26.221  49.169  1.00  0.00     0.117 C 
HETATM   20  O   UNL     1       5.394  28.130  49.852  1.00  0.00    -0.274 OA
HETATM   21  H   UNL     1       4.222  25.730  51.598  1.00  0.00     0.169 HD
ENDBRANCH  14  17
ENDBRANCH   8  11
ENDBRANCH   6   7
ENDBRANCH   1   6
BRANCH   2  22
HETATM   22  C   UNL     1       8.068  31.825  59.602  1.00  0.00     0.074 A 
HETATM   23  S   UNL     1       8.487  31.914  61.284  1.00  0.00    -0.084 SA
HETATM   24  C   UNL     1       6.984  32.552  61.731  1.00  0.00     0.023 A 
HETATM   25  C   UNL     1       6.122  32.626  60.659  1.00  0.00    -0.038 A 
HETATM   26  C   UNL     1       6.621  32.972  63.089  1.00  0.00    -0.012 A 
HETATM   27  C   UNL     1       4.734  33.170  60.826  1.00  0.00     0.044 C 
HETATM   28  C   UNL     1       6.744  32.202  59.441  1.00  0.00     0.033 A 
HETATM   29  C   UNL     1       4.214  32.981  62.265  1.00  0.00     0.044 C 
HETATM   30  C   UNL     1       5.256  33.239  63.341  1.00  0.00    -0.044 A 
HETATM   31  C   UNL     1       4.855  33.656  64.619  1.00  0.00     0.044 A 
HETATM   32  C   UNL     1       5.791  33.828  65.643  1.00  0.00     0.068 A 
HETATM   33  C   UNL     1       7.139  33.584  65.385  1.00  0.00     0.037 A 
HETATM   34  C   UNL     1       7.551  33.157  64.118  1.00  0.00     0.016 A 
BRANCH  32  35
HETATM   35  O   UNL     1       5.266  34.237  66.838  1.00  0.00    -0.356 OA
HETATM   36  C   UNL     1       4.546  35.465  66.833  1.00  0.00     0.210 C 
ENDBRANCH  32  35
ENDBRANCH   2  22
TORSDOF 7
ENDMDL
MODEL 7
REMARK VINA RESULT:      -9.8      4.424     10.486
REMARK  7 active torsions:
REMARK  status: ('A' for Active; 'I' for Inactive)
REMARK    1  A    between atoms: C_2  and  N_3 
REMARK       I    between atoms: N_3  and  C_4 
REMARK    2  A    between atoms: N_3  and  C_21 
REMARK    3  A    between atoms: C_4  and  C_5 
REMARK    4  A    between atoms: C_14  and  O_15 
REMARK    5  A    between atoms: C_21  and  C_22 
REMARK       I    between atoms: C_22  and  N_23 
REMARK    6  A    between atoms: N_23  and  C_24 
REMARK    7  A    between atoms: C_27  and  N_28 
REMARK       I    between atoms: N_28  and  C_29 
ROOT
HETATM    1  N   UNL     1       7.928  22.915  54.275  1.00  0.00    -0.339 N 
HETATM    2  C   UNL     1       7.912  23.297  55.633  1.00  0.00     0.261 C 
HETATM    3  O   UNL     1       8.497  22.567  56.439  1.00  0.00    -0.267 OA
ENDROOT
BRANCH   1   4
HETATM    4  C   UNL     1       8.829  21.816  53.899  1.00  0.00     0.122 C 
HETATM    5  C   UNL     1       8.117  20.708  53.132  1.00  0.00     0.026 C 
ENDBRANCH   1   4
BRANCH   1   6
HETATM    6  C   UNL     1       6.870  23.231  53.307  1.00  0.00     0.229 C 
BRANCH   6   7
HETATM    7  C   UNL     1       7.014  24.598  52.617  1.00  0.00     0.240 C 
HETATM    8  N   UNL     1       5.828  25.305  52.550  1.00  0.00    -0.326 N 
HETATM    9  H   UNL     1       5.040  24.873  53.021  1.00  0.00     0.169 HD
HETATM   10  O   UNL     1       8.082  24.918  52.106  1.00  0.00    -0.271 OA
BRANCH   8  11
HETATM   11  C   UNL     1       5.561  26.488  51.837  1.00  0.00     0.034 A 
HETATM   12  C   UNL     1       5.675  27.768  52.375  1.00  0.00     0.032 A 
HETATM   13  C   UNL     1       5.422  28.900  51.587  1.00  0.00     0.032 A 
HETATM   14  C   UNL     1       5.055  28.771  50.248  1.00  0.00     0.034 A 
HETATM   15  C   UNL     1       4.933  27.484  49.711  1.00  0.00     0.032 A 
HETATM   16  C   UNL     1       5.180  26.354  50.499  1.00  0.00     0.032 A 
BRANCH  14  17
HETATM   17  N   UNL     1       4.800  29.856  49.385  1.00  0.00    -0.328 N 
HETATM   18  C   UNL     1       5.586  30.978  49.191  1.00  0.00     0.218 C 
HETATM   19  C   UNL     1       5.006  31.936  48.178  1.00  0.00     0.117 C 
HETATM   20  O   UNL     1       6.653  31.234  49.738  1.00  0.00    -0.274 OA
HETATM   21  H   UNL     1       3.946  29.797  48.846  1.00  0.00     0.169 HD
ENDBRANCH  14  17
ENDBRANCH   8  11
ENDBRANCH   6   7
ENDBRANCH   1   6
BRANCH   2  22
HETATM   22  C   UNL     1       7.336  24.585  56.054  1.00  0.00     0.074 A 
HETATM   23  S   UNL     1       8.414  25.656  56.892  1.00  0.00    -0.084 SA
HETATM   24  C   UNL     1       7.302  26.932  56.905  1.00  0.00     0.023 A 
HETATM   25  C   UNL     1       6.089  26.558  56.369  1.00  0.00    -0.038 A 
HETATM   26  C   UNL     1       7.573  28.277  57.426  1.00  0.00    -0.012 A 
HETATM   27  C   UNL     1       4.957  27.537  56.274  1.00  0.00     0.044 C 
HETATM   28  C   UNL     1       6.109  25.209  55.889  1.00  0.00     0.033 A 
HETATM   29  C   UNL     1       5.056  28.633  57.353  1.00  0.00     0.044 C 
HETATM   30  C   UNL     1       6.467  29.141  57.596  1.00  0.00    -0.044 A 
HETATM   31  C   UNL     1       6.671  30.442  58.079  1.00  0.00     0.044 A 
HETATM   32  C   UNL     1       7.957  30.901  58.378  1.00  0.00     0.068 A 
HETATM   33  C   UNL     1       9.048  30.054  58.190  1.00  0.00     0.037 A 
HETATM   34  C   UNL     1       8.857  28.750  57.719  1.00  0.00     0.016 A 
BRANCH  32  35
HETATM   35  O   UNL     1       8.014  32.188  58.841  1.00  0.00    -0.356 OA
HETATM   36  C   UNL     1       8.016  32.359  60.253  1.00  0.00     0.210 C 
ENDBRANCH  32  35
ENDBRANCH   2  22
TORSDOF 7
ENDMDL
MODEL 8
REMARK VINA RESULT:      -9.4      2.201      3.892
REMARK  7 active torsions:
REMARK  status: ('A' for Active; 'I' for Inactive)
REMARK    1  A    between atoms: C_2  and  N_3 
REMARK       I    between atoms: N_3  and  C_4 
REMARK    2  A    between atoms: N_3  and  C_21 
REMARK    3  A    between atoms: C_4  and  C_5 
REMARK    4  A    between atoms: C_14  and  O_15 
REMARK    5  A    between atoms: C_21  and  C_22 
REMARK       I    between atoms: C_22  and  N_23 
REMARK    6  A    between atoms: N_23  and  C_24 
REMARK    7  A    between atoms: C_27  and  N_28 
REMARK       I    between atoms: N_28  and  C_29 
ROOT
HETATM    1  N   UNL     1       8.134  31.930  60.061  1.00  0.00    -0.339 N 
HETATM    2  C   UNL     1       8.530  31.478  58.785  1.00  0.00     0.261 C 
HETATM    3  O   UNL     1       9.566  31.952  58.308  1.00  0.00    -0.267 OA
ENDROOT
BRANCH   1   4
HETATM    4  C   UNL     1       9.099  32.744  60.814  1.00  0.00     0.122 C 
HETATM    5  C   UNL     1      10.087  31.898  61.609  1.00  0.00     0.026 C 
ENDBRANCH   1   4
BRANCH   1   6
HETATM    6  C   UNL     1       6.742  31.999  60.526  1.00  0.00     0.229 C 
BRANCH   6   7
HETATM    7  C   UNL     1       6.565  31.902  62.050  1.00  0.00     0.240 C 
HETATM    8  N   UNL     1       6.182  33.094  62.634  1.00  0.00    -0.326 N 
HETATM    9  H   UNL     1       5.997  33.852  61.987  1.00  0.00     0.169 HD
HETATM   10  O   UNL     1       6.857  30.864  62.637  1.00  0.00    -0.271 OA
BRANCH   8  11
HETATM   11  C   UNL     1       6.109  33.407  64.004  1.00  0.00     0.034 A 
HETATM   12  C   UNL     1       7.214  33.693  64.801  1.00  0.00     0.032 A 
HETATM   13  C   UNL     1       7.054  34.028  66.153  1.00  0.00     0.032 A 
HETATM   14  C   UNL     1       5.785  34.084  66.729  1.00  0.00     0.034 A 
HETATM   15  C   UNL     1       4.675  33.788  65.929  1.00  0.00     0.032 A 
HETATM   16  C   UNL     1       4.836  33.449  64.581  1.00  0.00     0.032 A 
BRANCH  14  17
HETATM   17  N   UNL     1       5.538  34.428  68.074  1.00  0.00    -0.328 N 
HETATM   18  C   UNL     1       6.468  34.608  69.080  1.00  0.00     0.218 C 
HETATM   19  C   UNL     1       5.843  34.984  70.403  1.00  0.00     0.117 C 
HETATM   20  O   UNL     1       7.686  34.500  68.986  1.00  0.00    -0.274 OA
HETATM   21  H   UNL     1       4.565  34.562  68.320  1.00  0.00     0.169 HD
ENDBRANCH  14  17
ENDBRANCH   8  11
ENDBRANCH   6   7
ENDBRANCH   1   6
BRANCH   2  22
HETATM   22  C   UNL     1       7.812  30.387  58.107  1.00  0.00     0.074 A 
HETATM   23  S   UNL     1       8.739  28.954  57.791  1.00  0.00    -0.084 SA
HETATM   24  C   UNL     1       7.396  28.081  57.243  1.00  0.00     0.023 A 
HETATM   25  C   UNL     1       6.261  28.862  57.203  1.00  0.00    -0.038 A 
HETATM   26  C   UNL     1       7.418  26.669  56.846  1.00  0.00    -0.012 A 
HETATM   27  C   UNL     1       4.951  28.288  56.754  1.00  0.00     0.044 C 
HETATM   28  C   UNL     1       6.505  30.185  57.691  1.00  0.00     0.033 A 
HETATM   29  C   UNL     1       5.145  27.101  55.790  1.00  0.00     0.044 C 
HETATM   30  C   UNL     1       6.280  26.167  56.175  1.00  0.00    -0.044 A 
HETATM   31  C   UNL     1       6.243  24.820  55.785  1.00  0.00     0.044 A 
HETATM   32  C   UNL     1       7.311  23.963  56.066  1.00  0.00     0.068 A 
HETATM   33  C   UNL     1       8.423  24.456  56.746  1.00  0.00     0.037 A 
HETATM   34  C   UNL     1       8.478  25.800  57.132  1.00  0.00     0.016 A 
BRANCH  32  35
HETATM   35  O   UNL     1       7.145  22.677  55.629  1.00  0.00    -0.356 OA
HETATM   36  C   UNL     1       8.264  21.808  55.762  1.00  0.00     0.210 C 
ENDBRANCH  32  35
ENDBRANCH   2  22
TORSDOF 7
ENDMDL
MODEL 9
REMARK VINA RESULT:      -9.4      3.096      5.307
REMARK  7 active torsions:
REMARK  status: ('A' for Active; 'I' for Inactive)
REMARK    1  A    between atoms: C_2  and  N_3 
REMARK       I    between atoms: N_3  and  C_4 
REMARK    2  A    between atoms: N_3  and  C_21 
REMARK    3  A    between atoms: C_4  and  C_5 
REMARK    4  A    between atoms: C_14  and  O_15 
REMARK    5  A    between atoms: C_21  and  C_22 
REMARK       I    between atoms: C_22  and  N_23 
REMARK    6  A    between atoms: N_23  and  C_24 
REMARK    7  A    between atoms: C_27  and  N_28 
REMARK       I    between atoms: N_28  and  C_29 
ROOT
HETATM    1  N   UNL     1       4.083  29.007  51.754  1.00  0.00    -0.339 N 
HETATM    2  C   UNL     1       4.704  27.784  51.427  1.00  0.00     0.261 C 
HETATM    3  O   UNL     1       4.721  27.451  50.237  1.00  0.00    -0.267 OA
ENDROOT
BRANCH   1   4
HETATM    4  C   UNL     1       3.716  29.891  50.639  1.00  0.00     0.122 C 
HETATM    5  C   UNL     1       2.208  30.049  50.486  1.00  0.00     0.026 C 
ENDBRANCH   1   4
BRANCH   1   6
HETATM    6  C   UNL     1       3.426  29.292  53.037  1.00  0.00     0.229 C 
BRANCH   6   7
HETATM    7  C   UNL     1       4.233  30.190  53.989  1.00  0.00     0.240 C 
HETATM    8  N   UNL     1       4.698  29.524  55.107  1.00  0.00    -0.326 N 
HETATM    9  H   UNL     1       4.515  28.527  55.123  1.00  0.00     0.169 HD
HETATM   10  O   UNL     1       4.323  31.394  53.768  1.00  0.00    -0.271 OA
BRANCH   8  11
HETATM   11  C   UNL     1       5.303  30.070  56.254  1.00  0.00     0.034 A 
HETATM   12  C   UNL     1       4.839  31.202  56.920  1.00  0.00     0.032 A 
HETATM   13  C   UNL     1       5.481  31.664  58.078  1.00  0.00     0.032 A 
HETATM   14  C   UNL     1       6.595  31.000  58.590  1.00  0.00     0.034 A 
HETATM   15  C   UNL     1       7.066  29.868  57.915  1.00  0.00     0.032 A 
HETATM   16  C   UNL     1       6.428  29.410  56.756  1.00  0.00     0.032 A 
BRANCH  14  17
HETATM   17  N   UNL     1       7.286  31.390  59.755  1.00  0.00    -0.328 N 
HETATM   18  C   UNL     1       8.546  31.955  59.836  1.00  0.00     0.218 C 
HETATM   19  C   UNL     1       8.967  32.257  61.255  1.00  0.00     0.117 C 
HETATM   20  O   UNL     1       9.295  32.221  58.903  1.00  0.00    -0.274 OA
HETATM   21  H   UNL     1       6.795  31.241  60.627  1.00  0.00     0.169 HD
ENDBRANCH  14  17
ENDBRANCH   8  11
ENDBRANCH   6   7
ENDBRANCH   1   6
BRANCH   2  22
HETATM   22  C   UNL     1       5.424  27.000  52.445  1.00  0.00     0.074 A 
HETATM   23  S   UNL     1       5.583  25.302  52.117  1.00  0.00    -0.084 SA
HETATM   24  C   UNL     1       6.605  25.038  53.440  1.00  0.00     0.023 A 
HETATM   25  C   UNL     1       6.772  26.180  54.193  1.00  0.00    -0.038 A 
HETATM   26  C   UNL     1       7.238  23.755  53.768  1.00  0.00    -0.012 A 
HETATM   27  C   UNL     1       7.646  26.174  55.411  1.00  0.00     0.044 C 
HETATM   28  C   UNL     1       6.087  27.301  53.624  1.00  0.00     0.033 A 
HETATM   29  C   UNL     1       7.736  24.772  56.046  1.00  0.00     0.044 C 
HETATM   30  C   UNL     1       7.848  23.640  55.038  1.00  0.00    -0.044 A 
HETATM   31  C   UNL     1       8.479  22.440  55.399  1.00  0.00     0.044 A 
HETATM   32  C   UNL     1       8.527  21.362  54.511  1.00  0.00     0.068 A 
HETATM   33  C   UNL     1       7.942  21.485  53.252  1.00  0.00     0.037 A 
HETATM   34  C   UNL     1       7.300  22.672  52.883  1.00  0.00     0.016 A 
BRANCH  32  35
HETATM   35  O   UNL     1       9.171  20.253  54.989  1.00  0.00    -0.356 OA
HETATM   36  C   UNL     1       9.445  20.227  56.385  1.00  0.00     0.210 C 
ENDBRANCH  32  35
ENDBRANCH   2  22
TORSDOF 7
ENDMDL
MODEL 10
REMARK VINA RESULT:      -9.3      2.641      4.004
REMARK  7 active torsions:
REMARK  status: ('A' for Active; 'I' for Inactive)
REMARK    1  A    between atoms: C_2  and  N_3 
REMARK       I    between atoms: N_3  and  C_4 
REMARK    2  A    between atoms: N_3  and  C_21 
REMARK    3  A    between atoms: C_4  and  C_5 
REMARK    4  A    between atoms: C_14  and  O_15 
REMARK    5  A    between atoms: C_21  and  C_22 
REMARK       I    between atoms: C_22  and  N_23 
REMARK    6  A    between atoms: N_23  and  C_24 
REMARK    7  A    between atoms: C_27  and  N_28 
REMARK       I    between atoms: N_28  and  C_29 
ROOT
HETATM    1  N   UNL     1       4.510  30.167  52.914  1.00  0.00    -0.339 N 
HETATM    2  C   UNL     1       5.052  28.968  52.407  1.00  0.00     0.261 C 
HETATM    3  O   UNL     1       5.056  28.816  51.180  1.00  0.00    -0.267 OA
ENDROOT
BRANCH   1   4
HETATM    4  C   UNL     1       4.211  31.231  51.944  1.00  0.00     0.122 C 
HETATM    5  C   UNL     1       2.765  31.704  52.018  1.00  0.00     0.026 C 
ENDBRANCH   1   4
BRANCH   1   6
HETATM    6  C   UNL     1       3.862  30.300  54.226  1.00  0.00     0.229 C 
BRANCH   6   7
HETATM    7  C   UNL     1       4.617  31.184  55.232  1.00  0.00     0.240 C 
HETATM    8  N   UNL     1       5.021  30.503  56.365  1.00  0.00    -0.326 N 
HETATM    9  H   UNL     1       4.836  29.506  56.358  1.00  0.00     0.169 HD
HETATM   10  O   UNL     1       4.720  32.390  55.032  1.00  0.00    -0.271 OA
BRANCH   8  11
HETATM   11  C   UNL     1       5.564  31.033  57.549  1.00  0.00     0.034 A 
HETATM   12  C   UNL     1       4.906  31.944  58.373  1.00  0.00     0.032 A 
HETATM   13  C   UNL     1       5.504  32.400  59.556  1.00  0.00     0.032 A 
HETATM   14  C   UNL     1       6.768  31.950  59.936  1.00  0.00     0.034 A 
HETATM   15  C   UNL     1       7.432  31.041  59.104  1.00  0.00     0.032 A 
HETATM   16  C   UNL     1       6.837  30.590  57.920  1.00  0.00     0.032 A 
BRANCH  14  17
HETATM   17  N   UNL     1       7.431  32.347  61.116  1.00  0.00    -0.328 N 
HETATM   18  C   UNL     1       7.046  32.097  62.421  1.00  0.00     0.218 C 
HETATM   19  C   UNL     1       8.007  32.665  63.438  1.00  0.00     0.117 C 
HETATM   20  O   UNL     1       6.051  31.483  62.791  1.00  0.00    -0.274 OA
HETATM   21  H   UNL     1       8.288  32.867  60.984  1.00  0.00     0.169 HD
ENDBRANCH  14  17
ENDBRANCH   8  11
ENDBRANCH   6   7
ENDBRANCH   1   6
BRANCH   2  22
HETATM   22  C   UNL     1       5.709  27.994  53.294  1.00  0.00     0.074 A 
HETATM   23  S   UNL     1       5.830  26.375  52.681  1.00  0.00    -0.084 SA
HETATM   24  C   UNL     1       6.793  25.848  53.969  1.00  0.00     0.023 A 
HETATM   25  C   UNL     1       6.966  26.836  54.914  1.00  0.00    -0.038 A 
HETATM   26  C   UNL     1       7.375  24.507  54.089  1.00  0.00    -0.012 A 
HETATM   27  C   UNL     1       7.794  26.589  56.140  1.00  0.00     0.044 C 
HETATM   28  C   UNL     1       6.337  28.063  54.528  1.00  0.00     0.033 A 
HETATM   29  C   UNL     1       7.819  25.096  56.523  1.00  0.00     0.044 C 
HETATM   30  C   UNL     1       7.934  24.152  55.337  1.00  0.00    -0.044 A 
HETATM   31  C   UNL     1       8.515  22.886  55.503  1.00  0.00     0.044 A 
HETATM   32  C   UNL     1       8.564  21.976  54.443  1.00  0.00     0.068 A 
HETATM   33  C   UNL     1       8.030  22.336  53.207  1.00  0.00     0.037 A 
HETATM   34  C   UNL     1       7.438  23.592  53.031  1.00  0.00     0.016 A 
BRANCH  32  35
HETATM   35  O   UNL     1       9.156  20.779  54.741  1.00  0.00    -0.356 OA
HETATM   36  C   UNL     1       9.011  20.310  56.076  1.00  0.00     0.210 C 
ENDBRANCH  32  35
ENDBRANCH   2  22
TORSDOF 7
ENDMDL
