MODEL 1
REMARK VINA RESULT:      -9.5      0.000      0.000
REMARK  7 active torsions:
REMARK  status: ('A' for Active; 'I' for Inactive)
REMARK    1  A    between atoms: C_3  and  O_4 
REMARK    2  A    between atoms: O_4  and  C_5 
REMARK    3  A    between atoms: C_5  and  C_6 
REMARK       I    between atoms: C_6  and  N_7 
REMARK    4  A    between atoms: N_7  and  C_8 
REMARK    5  A    between atoms: C_9  and  C_10 
REMARK       I    between atoms: C_10  and  N_11 
REMARK    6  A    between atoms: N_11  and  C_12 
REMARK    7  A    between atoms: C_12  and  C_13 
ROOT
HETATM    1  C   UNL     1       8.546  29.163  57.401  1.00  0.00     0.050 A 
HETATM    2  C   UNL     1       8.407  30.359  58.137  1.00  0.00     0.058 A 
HETATM    3  C   UNL     1       9.504  31.216  58.327  1.00  0.00     0.019 A 
HETATM    4  C   UNL     1      10.753  30.883  57.813  1.00  0.00     0.001 A 
HETATM    5  C   UNL     1      10.909  29.696  57.107  1.00  0.00     0.002 A 
HETATM    6  C   UNL     1       9.815  28.847  56.901  1.00  0.00     0.030 A 
ENDROOT
BRANCH   1   7
HETATM    7  N   UNL     1       7.407  28.363  57.111  1.00  0.00    -0.324 N 
HETATM    8  C   UNL     1       7.221  27.031  57.461  1.00  0.00     0.246 C 
HETATM    9  O   UNL     1       7.897  26.426  58.290  1.00  0.00    -0.271 OA
HETATM   10  H   UNL     1       6.656  28.819  56.604  1.00  0.00     0.169 HD
BRANCH   8  11
HETATM   11  C   UNL     1       6.049  26.373  56.723  1.00  0.00     0.278 C 
BRANCH  11  12
HETATM   12  O   UNL     1       6.325  24.982  56.614  1.00  0.00    -0.342 OA
BRANCH  12  13
HETATM   13  C   UNL     1       6.686  24.485  55.393  1.00  0.00     0.075 A 
HETATM   14  C   UNL     1       7.772  23.587  55.405  1.00  0.00    -0.029 A 
HETATM   15  C   UNL     1       8.458  23.224  56.693  1.00  0.00     0.051 C 
HETATM   16  C   UNL     1       8.195  23.001  54.203  1.00  0.00     0.009 A 
HETATM   17  C   UNL     1       7.558  23.311  53.004  1.00  0.00     0.001 A 
HETATM   18  C   UNL     1       6.490  24.206  52.996  1.00  0.00     0.003 A 
HETATM   19  C   UNL     1       6.051  24.790  54.187  1.00  0.00     0.037 A 
ENDBRANCH  12  13
ENDBRANCH  11  12
ENDBRANCH   8  11
ENDBRANCH   1   7
BRANCH   2  20
HETATM   20  C   UNL     1       7.133  30.782  58.770  1.00  0.00     0.254 C 
HETATM   21  N   UNL     1       7.251  31.395  59.999  1.00  0.00    -0.353 N 
HETATM   22  H   UNL     1       8.174  31.693  60.300  1.00  0.00     0.163 HD
HETATM   23  O   UNL     1       6.066  30.612  58.194  1.00  0.00    -0.268 OA
BRANCH  21  24
HETATM   24  C   UNL     1       6.108  32.008  60.644  1.00  0.00     0.162 C 
BRANCH  24  25
HETATM   25  C   UNL     1       6.447  32.413  62.046  1.00  0.00    -0.023 A 
HETATM   26  C   UNL     1       5.441  32.766  62.941  1.00  0.00     0.125 A 
HETATM   27  N   UNL     1       5.657  33.124  64.226  1.00  0.00    -0.273 NA
HETATM   28  C   UNL     1       6.946  33.179  64.629  1.00  0.00     0.116 A 
HETATM   29  C   UNL     1       8.021  32.870  63.813  1.00  0.00     0.020 A 
HETATM   30  C   UNL     1       7.765  32.473  62.503  1.00  0.00     0.012 A 
ENDBRANCH  24  25
ENDBRANCH  21  24
ENDBRANCH   2  20
TORSDOF 7
ENDMDL
MODEL 2
REMARK VINA RESULT:      -9.4      1.962      3.626
REMARK  7 active torsions:
REMARK  status: ('A' for Active; 'I' for Inactive)
REMARK    1  A    between atoms: C_3  and  O_4 
REMARK    2  A    between atoms: O_4  and  C_5 
REMARK    3  A    between atoms: C_5  and  C_6 
REMARK       I    between atoms: C_6  and  N_7 
REMARK    4  A    between atoms: N_7  and  C_8 
REMARK    5  A    between atoms: C_9  and  C_10 
REMARK       I    between atoms: C_10  and  N_11 
REMARK    6  A    between atoms: N_11  and  C_12 
REMARK    7  A    between atoms: C_12  and  C_13 
ROOT
HETATM    1  C   UNL     1       6.216  27.518  55.966  1.00  0.00     0.050 A 
HETATM    2  C   UNL     1       6.414  28.639  56.798  1.00  0.00     0.058 A 
HETATM    3  C   UNL     1       5.487  29.695  56.812  1.00  0.00     0.019 A 
HETATM    4  C   UNL     1       4.371  29.662  55.982  1.00  0.00     0.001 A 
HETATM    5  C   UNL     1       4.177  28.574  55.140  1.00  0.00     0.002 A 
HETATM    6  C   UNL     1       5.089  27.511  55.134  1.00  0.00     0.030 A 
ENDROOT
BRANCH   1   7
HETATM    7  N   UNL     1       7.092  26.400  56.046  1.00  0.00    -0.324 N 
HETATM    8  C   UNL     1       6.818  25.178  56.648  1.00  0.00     0.246 C 
HETATM    9  O   UNL     1       5.697  24.794  56.971  1.00  0.00    -0.271 OA
HETATM   10  H   UNL     1       8.002  26.511  55.613  1.00  0.00     0.169 HD
BRANCH   8  11
HETATM   11  C   UNL     1       8.070  24.315  56.853  1.00  0.00     0.278 C 
BRANCH  11  12
HETATM   12  O   UNL     1       8.650  24.073  55.578  1.00  0.00    -0.342 OA
BRANCH  12  13
HETATM   13  C   UNL     1       8.412  22.870  54.974  1.00  0.00     0.075 A 
HETATM   14  C   UNL     1       8.085  22.935  53.605  1.00  0.00    -0.029 A 
HETATM   15  C   UNL     1       8.013  24.258  52.892  1.00  0.00     0.051 C 
HETATM   16  C   UNL     1       7.855  21.749  52.893  1.00  0.00     0.009 A 
HETATM   17  C   UNL     1       7.936  20.515  53.534  1.00  0.00     0.001 A 
HETATM   18  C   UNL     1       8.252  20.455  54.889  1.00  0.00     0.003 A 
HETATM   19  C   UNL     1       8.494  21.628  55.609  1.00  0.00     0.037 A 
ENDBRANCH  12  13
ENDBRANCH  11  12
ENDBRANCH   8  11
ENDBRANCH   1   7
BRANCH   2  20
HETATM   20  C   UNL     1       7.596  28.798  57.683  1.00  0.00     0.254 C 
HETATM   21  N   UNL     1       8.091  30.080  57.794  1.00  0.00    -0.353 N 
HETATM   22  H   UNL     1       7.524  30.845  57.442  1.00  0.00     0.163 HD
HETATM   23  O   UNL     1       8.054  27.836  58.285  1.00  0.00    -0.268 OA
BRANCH  21  24
HETATM   24  C   UNL     1       9.127  30.402  58.753  1.00  0.00     0.162 C 
BRANCH  24  25
HETATM   25  C   UNL     1       8.524  30.839  60.054  1.00  0.00    -0.023 A 
HETATM   26  C   UNL     1       7.360  31.602  60.071  1.00  0.00     0.125 A 
HETATM   27  N   UNL     1       6.741  32.021  61.196  1.00  0.00    -0.273 NA
HETATM   28  C   UNL     1       7.337  31.704  62.367  1.00  0.00     0.116 A 
HETATM   29  C   UNL     1       8.508  30.970  62.460  1.00  0.00     0.020 A 
HETATM   30  C   UNL     1       9.105  30.524  61.284  1.00  0.00     0.012 A 
ENDBRANCH  24  25
ENDBRANCH  21  24
ENDBRANCH   2  20
TORSDOF 7
ENDMDL
MODEL 3
REMARK VINA RESULT:      -9.4      5.430      9.243
REMARK  7 active torsions:
REMARK  status: ('A' for Active; 'I' for Inactive)
REMARK    1  A    between atoms: C_3  and  O_4 
REMARK    2  A    between atoms: O_4  and  C_5 
REMARK    3  A    between atoms: C_5  and  C_6 
REMARK       I    between atoms: C_6  and  N_7 
REMARK    4  A    between atoms: N_7  and  C_8 
REMARK    5  A    between atoms: C_9  and  C_10 
REMARK       I    between atoms: C_10  and  N_11 
REMARK    6  A    between atoms: N_11  and  C_12 
REMARK    7  A    between atoms: C_12  and  C_13 
ROOT
HETATM    1  C   UNL     1       5.244  27.423  55.171  1.00  0.00     0.050 A 
HETATM    2  C   UNL     1       4.623  27.565  53.912  1.00  0.00     0.058 A 
HETATM    3  C   UNL     1       3.915  28.735  53.589  1.00  0.00     0.019 A 
HETATM    4  C   UNL     1       3.792  29.761  54.520  1.00  0.00     0.001 A 
HETATM    5  C   UNL     1       4.377  29.624  55.772  1.00  0.00     0.002 A 
HETATM    6  C   UNL     1       5.099  28.468  56.093  1.00  0.00     0.030 A 
ENDROOT
BRANCH   1   7
HETATM    7  N   UNL     1       6.059  26.291  55.446  1.00  0.00    -0.324 N 
HETATM    8  C   UNL     1       5.872  25.366  56.466  1.00  0.00     0.246 C 
HETATM    9  O   UNL     1       4.838  25.245  57.118  1.00  0.00    -0.271 OA
HETATM   10  H   UNL     1       6.849  26.146  54.827  1.00  0.00     0.169 HD
BRANCH   8  11
HETATM   11  C   UNL     1       7.094  24.467  56.694  1.00  0.00     0.278 C 
BRANCH  11  12
HETATM   12  O   UNL     1       7.748  24.290  55.444  1.00  0.00    -0.342 OA
BRANCH  12  13
HETATM   13  C   UNL     1       7.795  23.033  54.907  1.00  0.00     0.075 A 
HETATM   14  C   UNL     1       7.853  22.979  53.501  1.00  0.00    -0.029 A 
HETATM   15  C   UNL     1       7.863  24.240  52.680  1.00  0.00     0.051 C 
HETATM   16  C   UNL     1       7.936  21.734  52.861  1.00  0.00     0.009 A 
HETATM   17  C   UNL     1       7.947  20.557  53.607  1.00  0.00     0.001 A 
HETATM   18  C   UNL     1       7.881  20.615  54.997  1.00  0.00     0.003 A 
HETATM   19  C   UNL     1       7.809  21.849  55.648  1.00  0.00     0.037 A 
ENDBRANCH  12  13
ENDBRANCH  11  12
ENDBRANCH   8  11
ENDBRANCH   1   7
BRANCH   2  20
HETATM   20  C   UNL     1       4.651  26.511  52.867  1.00  0.00     0.254 C 
HETATM   21  N   UNL     1       4.749  26.960  51.568  1.00  0.00    -0.353 N 
HETATM   22  H   UNL     1       4.991  27.934  51.414  1.00  0.00     0.163 HD
HETATM   23  O   UNL     1       4.619  25.327  53.178  1.00  0.00    -0.268 OA
BRANCH  21  24
HETATM   24  C   UNL     1       4.958  26.039  50.470  1.00  0.00     0.162 C 
BRANCH  24  25
HETATM   25  C   UNL     1       4.144  26.445  49.278  1.00  0.00    -0.023 A 
HETATM   26  C   UNL     1       3.840  27.784  49.056  1.00  0.00     0.125 A 
HETATM   27  N   UNL     1       3.131  28.238  47.999  1.00  0.00    -0.273 NA
HETATM   28  C   UNL     1       2.660  27.306  47.142  1.00  0.00     0.116 A 
HETATM   29  C   UNL     1       2.887  25.947  47.284  1.00  0.00     0.020 A 
HETATM   30  C   UNL     1       3.649  25.512  48.366  1.00  0.00     0.012 A 
ENDBRANCH  24  25
ENDBRANCH  21  24
ENDBRANCH   2  20
TORSDOF 7
ENDMDL
MODEL 4
REMARK VINA RESULT:      -9.3      2.956      5.075
REMARK  7 active torsions:
REMARK  status: ('A' for Active; 'I' for Inactive)
REMARK    1  A    between atoms: C_3  and  O_4 
REMARK    2  A    between atoms: O_4  and  C_5 
REMARK    3  A    between atoms: C_5  and  C_6 
REMARK       I    between atoms: C_6  and  N_7 
REMARK    4  A    between atoms: N_7  and  C_8 
REMARK    5  A    between atoms: C_9  and  C_10 
REMARK       I    between atoms: C_10  and  N_11 
REMARK    6  A    between atoms: N_11  and  C_12 
REMARK    7  A    between atoms: C_12  and  C_13 
ROOT
HETATM    1  C   UNL     1       5.775  27.926  53.552  1.00  0.00     0.050 A 
HETATM    2  C   UNL     1       6.149  28.483  54.793  1.00  0.00     0.058 A 
HETATM    3  C   UNL     1       5.300  29.380  55.462  1.00  0.00     0.019 A 
HETATM    4  C   UNL     1       4.086  29.755  54.894  1.00  0.00     0.001 A 
HETATM    5  C   UNL     1       3.717  29.232  53.661  1.00  0.00     0.002 A 
HETATM    6  C   UNL     1       4.552  28.324  52.998  1.00  0.00     0.030 A 
ENDROOT
BRANCH   1   7
HETATM    7  N   UNL     1       6.582  26.927  52.941  1.00  0.00    -0.324 N 
HETATM    8  C   UNL     1       6.381  25.553  52.999  1.00  0.00     0.246 C 
HETATM    9  O   UNL     1       5.341  25.014  53.368  1.00  0.00    -0.271 OA
HETATM   10  H   UNL     1       7.377  27.258  52.405  1.00  0.00     0.169 HD
BRANCH   8  11
HETATM   11  C   UNL     1       7.597  24.747  52.522  1.00  0.00     0.278 C 
BRANCH  11  12
HETATM   12  O   UNL     1       8.295  24.285  53.671  1.00  0.00    -0.342 OA
BRANCH  12  13
HETATM   13  C   UNL     1       8.245  22.952  53.969  1.00  0.00     0.075 A 
HETATM   14  C   UNL     1       8.388  22.633  55.334  1.00  0.00    -0.029 A 
HETATM   15  C   UNL     1       8.579  23.713  56.362  1.00  0.00     0.051 C 
HETATM   16  C   UNL     1       8.320  21.292  55.739  1.00  0.00     0.009 A 
HETATM   17  C   UNL     1       8.125  20.280  54.802  1.00  0.00     0.001 A 
HETATM   18  C   UNL     1       7.992  20.600  53.452  1.00  0.00     0.003 A 
HETATM   19  C   UNL     1       8.048  21.932  53.035  1.00  0.00     0.037 A 
ENDBRANCH  12  13
ENDBRANCH  11  12
ENDBRANCH   8  11
ENDBRANCH   1   7
BRANCH   2  20
HETATM   20  C   UNL     1       7.442  28.190  55.460  1.00  0.00     0.254 C 
HETATM   21  N   UNL     1       8.296  29.263  55.607  1.00  0.00    -0.353 N 
HETATM   22  H   UNL     1       7.928  30.194  55.440  1.00  0.00     0.163 HD
HETATM   23  O   UNL     1       7.688  27.063  55.871  1.00  0.00    -0.268 OA
BRANCH  21  24
HETATM   24  C   UNL     1       9.509  29.153  56.389  1.00  0.00     0.162 C 
BRANCH  24  25
HETATM   25  C   UNL     1       9.452  30.059  57.582  1.00  0.00    -0.023 A 
HETATM   26  C   UNL     1      10.354  31.110  57.714  1.00  0.00     0.125 A 
HETATM   27  N   UNL     1      10.359  31.983  58.745  1.00  0.00    -0.273 NA
HETATM   28  C   UNL     1       9.449  31.771  59.721  1.00  0.00     0.116 A 
HETATM   29  C   UNL     1       8.522  30.743  59.698  1.00  0.00     0.020 A 
HETATM   30  C   UNL     1       8.520  29.878  58.606  1.00  0.00     0.012 A 
ENDBRANCH  24  25
ENDBRANCH  21  24
ENDBRANCH   2  20
TORSDOF 7
ENDMDL
MODEL 5
REMARK VINA RESULT:      -9.2      1.700      9.448
REMARK  7 active torsions:
REMARK  status: ('A' for Active; 'I' for Inactive)
REMARK    1  A    between atoms: C_3  and  O_4 
REMARK    2  A    between atoms: O_4  and  C_5 
REMARK    3  A    between atoms: C_5  and  C_6 
REMARK       I    between atoms: C_6  and  N_7 
REMARK    4  A    between atoms: N_7  and  C_8 
REMARK    5  A    between atoms: C_9  and  C_10 
REMARK       I    between atoms: C_10  and  N_11 
REMARK    6  A    between atoms: N_11  and  C_12 
REMARK    7  A    between atoms: C_12  and  C_13 
ROOT
HETATM    1  C   UNL     1       8.566  30.451  58.484  1.00  0.00     0.050 A 
HETATM    2  C   UNL     1       8.607  29.262  57.725  1.00  0.00     0.058 A 
HETATM    3  C   UNL     1       9.760  28.909  57.005  1.00  0.00     0.019 A 
HETATM    4  C   UNL     1      10.873  29.744  57.007  1.00  0.00     0.001 A 
HETATM    5  C   UNL     1      10.837  30.930  57.730  1.00  0.00     0.002 A 
HETATM    6  C   UNL     1       9.697  31.278  58.463  1.00  0.00     0.030 A 
ENDROOT
BRANCH   1   7
HETATM    7  N   UNL     1       7.443  30.741  59.306  1.00  0.00    -0.324 N 
HETATM    8  C   UNL     1       6.533  31.776  59.127  1.00  0.00     0.246 C 
HETATM    9  O   UNL     1       6.416  32.433  58.095  1.00  0.00    -0.271 OA
HETATM   10  H   UNL     1       7.292  30.121  60.094  1.00  0.00     0.169 HD
BRANCH   8  11
HETATM   11  C   UNL     1       5.644  32.013  60.354  1.00  0.00     0.278 C 
BRANCH  11  12
HETATM   12  O   UNL     1       5.934  33.309  60.862  1.00  0.00    -0.342 OA
BRANCH  12  13
HETATM   13  C   UNL     1       6.456  33.411  62.122  1.00  0.00     0.075 A 
HETATM   14  C   UNL     1       5.852  34.379  62.948  1.00  0.00    -0.029 A 
HETATM   15  C   UNL     1       4.713  35.222  62.443  1.00  0.00     0.051 C 
HETATM   16  C   UNL     1       6.299  34.535  64.268  1.00  0.00     0.009 A 
HETATM   17  C   UNL     1       7.341  33.750  64.758  1.00  0.00     0.001 A 
HETATM   18  C   UNL     1       7.940  32.800  63.934  1.00  0.00     0.003 A 
HETATM   19  C   UNL     1       7.498  32.626  62.620  1.00  0.00     0.037 A 
ENDBRANCH  12  13
ENDBRANCH  11  12
ENDBRANCH   8  11
ENDBRANCH   1   7
BRANCH   2  20
HETATM   20  C   UNL     1       7.459  28.328  57.614  1.00  0.00     0.254 C 
HETATM   21  N   UNL     1       7.783  26.996  57.474  1.00  0.00    -0.353 N 
HETATM   22  H   UNL     1       8.743  26.715  57.649  1.00  0.00     0.163 HD
HETATM   23  O   UNL     1       6.309  28.745  57.680  1.00  0.00    -0.268 OA
BRANCH  21  24
HETATM   24  C   UNL     1       6.766  25.967  57.528  1.00  0.00     0.162 C 
BRANCH  24  25
HETATM   25  C   UNL     1       7.090  24.854  56.577  1.00  0.00    -0.023 A 
HETATM   26  C   UNL     1       7.986  23.854  56.943  1.00  0.00     0.125 A 
HETATM   27  N   UNL     1       8.320  22.807  56.157  1.00  0.00    -0.273 NA
HETATM   28  C   UNL     1       7.767  22.777  54.924  1.00  0.00     0.116 A 
HETATM   29  C   UNL     1       6.882  23.733  54.454  1.00  0.00     0.020 A 
HETATM   30  C   UNL     1       6.533  24.783  55.300  1.00  0.00     0.012 A 
ENDBRANCH  24  25
ENDBRANCH  21  24
ENDBRANCH   2  20
TORSDOF 7
ENDMDL
MODEL 6
REMARK VINA RESULT:      -9.2      4.920      8.915
REMARK  7 active torsions:
REMARK  status: ('A' for Active; 'I' for Inactive)
REMARK    1  A    between atoms: C_3  and  O_4 
REMARK    2  A    between atoms: O_4  and  C_5 
REMARK    3  A    between atoms: C_5  and  C_6 
REMARK       I    between atoms: C_6  and  N_7 
REMARK    4  A    between atoms: N_7  and  C_8 
REMARK    5  A    between atoms: C_9  and  C_10 
REMARK       I    between atoms: C_10  and  N_11 
REMARK    6  A    between atoms: N_11  and  C_12 
REMARK    7  A    between atoms: C_12  and  C_13 
ROOT
HETATM    1  C   UNL     1       7.189  27.094  54.968  1.00  0.00     0.050 A 
HETATM    2  C   UNL     1       7.613  26.400  56.120  1.00  0.00     0.058 A 
HETATM    3  C   UNL     1       8.309  27.064  57.144  1.00  0.00     0.019 A 
HETATM    4  C   UNL     1       8.615  28.416  57.022  1.00  0.00     0.001 A 
HETATM    5  C   UNL     1       8.225  29.106  55.881  1.00  0.00     0.002 A 
HETATM    6  C   UNL     1       7.516  28.453  54.866  1.00  0.00     0.030 A 
ENDROOT
BRANCH   1   7
HETATM    7  N   UNL     1       6.381  26.445  53.995  1.00  0.00    -0.324 N 
HETATM    8  C   UNL     1       6.822  25.847  52.820  1.00  0.00     0.246 C 
HETATM    9  O   UNL     1       7.993  25.569  52.575  1.00  0.00    -0.271 OA
HETATM   10  H   UNL     1       5.386  26.411  54.187  1.00  0.00     0.169 HD
BRANCH   8  11
HETATM   11  C   UNL     1       5.683  25.533  51.841  1.00  0.00     0.278 C 
BRANCH  11  12
HETATM   12  O   UNL     1       5.022  26.753  51.531  1.00  0.00    -0.342 OA
BRANCH  12  13
HETATM   13  C   UNL     1       4.965  27.147  50.224  1.00  0.00     0.075 A 
HETATM   14  C   UNL     1       5.262  28.504  49.989  1.00  0.00    -0.029 A 
HETATM   15  C   UNL     1       5.616  29.424  51.125  1.00  0.00     0.051 C 
HETATM   16  C   UNL     1       5.259  28.994  48.675  1.00  0.00     0.009 A 
HETATM   17  C   UNL     1       4.952  28.151  47.608  1.00  0.00     0.001 A 
HETATM   18  C   UNL     1       4.651  26.812  47.846  1.00  0.00     0.003 A 
HETATM   19  C   UNL     1       4.660  26.308  49.150  1.00  0.00     0.037 A 
ENDBRANCH  12  13
ENDBRANCH  11  12
ENDBRANCH   8  11
ENDBRANCH   1   7
BRANCH   2  20
HETATM   20  C   UNL     1       7.382  24.948  56.326  1.00  0.00     0.254 C 
HETATM   21  N   UNL     1       8.494  24.143  56.206  1.00  0.00    -0.353 N 
HETATM   22  H   UNL     1       9.407  24.587  56.184  1.00  0.00     0.163 HD
HETATM   23  O   UNL     1       6.268  24.531  56.616  1.00  0.00    -0.268 OA
BRANCH  21  24
HETATM   24  C   UNL     1       8.443  22.737  56.550  1.00  0.00     0.162 C 
BRANCH  24  25
HETATM   25  C   UNL     1       8.405  21.892  55.313  1.00  0.00    -0.023 A 
HETATM   26  C   UNL     1       8.851  20.574  55.345  1.00  0.00     0.125 A 
HETATM   27  N   UNL     1       8.834  19.738  54.284  1.00  0.00    -0.273 NA
HETATM   28  C   UNL     1       8.393  20.255  53.116  1.00  0.00     0.116 A 
HETATM   29  C   UNL     1       7.948  21.558  52.970  1.00  0.00     0.020 A 
HETATM   30  C   UNL     1       7.947  22.386  54.091  1.00  0.00     0.012 A 
ENDBRANCH  24  25
ENDBRANCH  21  24
ENDBRANCH   2  20
TORSDOF 7
ENDMDL
MODEL 7
REMARK VINA RESULT:      -8.9      3.495      6.829
REMARK  7 active torsions:
REMARK  status: ('A' for Active; 'I' for Inactive)
REMARK    1  A    between atoms: C_3  and  O_4 
REMARK    2  A    between atoms: O_4  and  C_5 
REMARK    3  A    between atoms: C_5  and  C_6 
REMARK       I    between atoms: C_6  and  N_7 
REMARK    4  A    between atoms: N_7  and  C_8 
REMARK    5  A    between atoms: C_9  and  C_10 
REMARK       I    between atoms: C_10  and  N_11 
REMARK    6  A    between atoms: N_11  and  C_12 
REMARK    7  A    between atoms: C_12  and  C_13 
ROOT
HETATM    1  C   UNL     1       7.158  24.697  53.964  1.00  0.00     0.050 A 
HETATM    2  C   UNL     1       7.557  24.517  55.305  1.00  0.00     0.058 A 
HETATM    3  C   UNL     1       8.420  23.467  55.664  1.00  0.00     0.019 A 
HETATM    4  C   UNL     1       8.871  22.570  54.701  1.00  0.00     0.001 A 
HETATM    5  C   UNL     1       8.466  22.721  53.381  1.00  0.00     0.002 A 
HETATM    6  C   UNL     1       7.621  23.776  53.016  1.00  0.00     0.030 A 
ENDROOT
BRANCH   1   7
HETATM    7  N   UNL     1       6.385  25.830  53.591  1.00  0.00    -0.324 N 
HETATM    8  C   UNL     1       5.081  25.820  53.113  1.00  0.00     0.246 C 
HETATM    9  O   UNL     1       4.318  24.858  53.183  1.00  0.00    -0.271 OA
HETATM   10  H   UNL     1       6.834  26.733  53.694  1.00  0.00     0.169 HD
BRANCH   8  11
HETATM   11  C   UNL     1       4.655  27.159  52.496  1.00  0.00     0.278 C 
BRANCH  11  12
HETATM   12  O   UNL     1       5.592  27.491  51.480  1.00  0.00    -0.342 OA
BRANCH  12  13
HETATM   13  C   UNL     1       5.175  27.470  50.179  1.00  0.00     0.075 A 
HETATM   14  C   UNL     1       5.236  28.705  49.505  1.00  0.00    -0.029 A 
HETATM   15  C   UNL     1       5.736  29.941  50.203  1.00  0.00     0.051 C 
HETATM   16  C   UNL     1       4.858  28.775  48.156  1.00  0.00     0.009 A 
HETATM   17  C   UNL     1       4.411  27.637  47.489  1.00  0.00     0.001 A 
HETATM   18  C   UNL     1       4.344  26.419  48.162  1.00  0.00     0.003 A 
HETATM   19  C   UNL     1       4.728  26.332  49.503  1.00  0.00     0.037 A 
ENDBRANCH  12  13
ENDBRANCH  11  12
ENDBRANCH   8  11
ENDBRANCH   1   7
BRANCH   2  20
HETATM   20  C   UNL     1       7.093  25.386  56.416  1.00  0.00     0.254 C 
HETATM   21  N   UNL     1       7.803  26.553  56.599  1.00  0.00    -0.353 N 
HETATM   22  H   UNL     1       8.448  26.841  55.870  1.00  0.00     0.163 HD
HETATM   23  O   UNL     1       6.119  25.069  57.087  1.00  0.00    -0.268 OA
BRANCH  21  24
HETATM   24  C   UNL     1       7.352  27.566  57.531  1.00  0.00     0.162 C 
BRANCH  24  25
HETATM   25  C   UNL     1       8.368  28.662  57.651  1.00  0.00    -0.023 A 
HETATM   26  C   UNL     1       8.191  29.689  58.573  1.00  0.00     0.125 A 
HETATM   27  N   UNL     1       9.065  30.702  58.760  1.00  0.00    -0.273 NA
HETATM   28  C   UNL     1      10.150  30.720  57.956  1.00  0.00     0.116 A 
HETATM   29  C   UNL     1      10.410  29.759  56.993  1.00  0.00     0.020 A 
HETATM   30  C   UNL     1       9.507  28.709  56.845  1.00  0.00     0.012 A 
ENDBRANCH  24  25
ENDBRANCH  21  24
ENDBRANCH   2  20
TORSDOF 7
ENDMDL
MODEL 8
REMARK VINA RESULT:      -8.9      2.163      9.335
REMARK  7 active torsions:
REMARK  status: ('A' for Active; 'I' for Inactive)
REMARK    1  A    between atoms: C_3  and  O_4 
REMARK    2  A    between atoms: O_4  and  C_5 
REMARK    3  A    between atoms: C_5  and  C_6 
REMARK       I    between atoms: C_6  and  N_7 
REMARK    4  A    between atoms: N_7  and  C_8 
REMARK    5  A    between atoms: C_9  and  C_10 
REMARK       I    between atoms: C_10  and  N_11 
REMARK    6  A    between atoms: N_11  and  C_12 
REMARK    7  A    between atoms: C_12  and  C_13 
ROOT
HETATM    1  C   UNL     1       8.315  30.595  58.316  1.00  0.00     0.050 A 
HETATM    2  C   UNL     1       8.189  29.628  57.297  1.00  0.00     0.058 A 
HETATM    3  C   UNL     1       9.298  29.256  56.518  1.00  0.00     0.019 A 
HETATM    4  C   UNL     1      10.535  29.861  56.723  1.00  0.00     0.001 A 
HETATM    5  C   UNL     1      10.666  30.833  57.707  1.00  0.00     0.002 A 
HETATM    6  C   UNL     1       9.568  31.194  58.498  1.00  0.00     0.030 A 
ENDROOT
BRANCH   1   7
HETATM    7  N   UNL     1       7.220  30.876  59.178  1.00  0.00    -0.324 N 
HETATM    8  C   UNL     1       6.387  31.987  59.121  1.00  0.00     0.246 C 
HETATM    9  O   UNL     1       6.314  32.757  58.166  1.00  0.00    -0.271 OA
HETATM   10  H   UNL     1       7.028  30.189  59.899  1.00  0.00     0.169 HD
BRANCH   8  11
HETATM   11  C   UNL     1       5.524  32.156  60.378  1.00  0.00     0.278 C 
BRANCH  11  12
HETATM   12  O   UNL     1       6.192  31.517  61.458  1.00  0.00    -0.342 OA
BRANCH  12  13
HETATM   13  C   UNL     1       6.313  32.194  62.639  1.00  0.00     0.075 A 
HETATM   14  C   UNL     1       7.635  32.459  63.050  1.00  0.00    -0.029 A 
HETATM   15  C   UNL     1       8.805  32.012  62.218  1.00  0.00     0.051 C 
HETATM   16  C   UNL     1       7.858  33.176  64.234  1.00  0.00     0.009 A 
HETATM   17  C   UNL     1       6.785  33.613  65.008  1.00  0.00     0.001 A 
HETATM   18  C   UNL     1       5.480  33.342  64.601  1.00  0.00     0.003 A 
HETATM   19  C   UNL     1       5.242  32.638  63.418  1.00  0.00     0.037 A 
ENDBRANCH  12  13
ENDBRANCH  11  12
ENDBRANCH   8  11
ENDBRANCH   1   7
BRANCH   2  20
HETATM   20  C   UNL     1       6.906  28.960  56.962  1.00  0.00     0.254 C 
HETATM   21  N   UNL     1       6.853  28.353  55.726  1.00  0.00    -0.353 N 
HETATM   22  H   UNL     1       7.723  28.225  55.217  1.00  0.00     0.163 HD
HETATM   23  O   UNL     1       5.986  28.942  57.769  1.00  0.00    -0.268 OA
BRANCH  21  24
HETATM   24  C   UNL     1       5.729  27.523  55.346  1.00  0.00     0.162 C 
BRANCH  24  25
HETATM   25  C   UNL     1       6.125  26.556  54.271  1.00  0.00    -0.023 A 
HETATM   26  C   UNL     1       7.436  26.519  53.805  1.00  0.00     0.125 A 
HETATM   27  N   UNL     1       7.882  25.668  52.855  1.00  0.00    -0.273 NA
HETATM   28  C   UNL     1       6.965  24.841  52.306  1.00  0.00     0.116 A 
HETATM   29  C   UNL     1       5.632  24.813  52.682  1.00  0.00     0.020 A 
HETATM   30  C   UNL     1       5.209  25.680  53.687  1.00  0.00     0.012 A 
ENDBRANCH  24  25
ENDBRANCH  21  24
ENDBRANCH   2  20
TORSDOF 7
ENDMDL
MODEL 9
REMARK VINA RESULT:      -8.7      4.273      8.493
REMARK  7 active torsions:
REMARK  status: ('A' for Active; 'I' for Inactive)
REMARK    1  A    between atoms: C_3  and  O_4 
REMARK    2  A    between atoms: O_4  and  C_5 
REMARK    3  A    between atoms: C_5  and  C_6 
REMARK       I    between atoms: C_6  and  N_7 
REMARK    4  A    between atoms: N_7  and  C_8 
REMARK    5  A    between atoms: C_9  and  C_10 
REMARK       I    between atoms: C_10  and  N_11 
REMARK    6  A    between atoms: N_11  and  C_12 
REMARK    7  A    between atoms: C_12  and  C_13 
ROOT
HETATM    1  C   UNL     1       7.337  23.481  54.939  1.00  0.00     0.050 A 
HETATM    2  C   UNL     1       7.470  23.373  53.538  1.00  0.00     0.058 A 
HETATM    3  C   UNL     1       7.752  22.135  52.936  1.00  0.00     0.019 A 
HETATM    4  C   UNL     1       7.932  20.999  53.719  1.00  0.00     0.001 A 
HETATM    5  C   UNL     1       7.827  21.096  55.101  1.00  0.00     0.002 A 
HETATM    6  C   UNL     1       7.529  22.324  55.704  1.00  0.00     0.030 A 
ENDROOT
BRANCH   1   7
HETATM    7  N   UNL     1       6.932  24.710  55.529  1.00  0.00    -0.324 N 
HETATM    8  C   UNL     1       7.545  25.354  56.597  1.00  0.00     0.246 C 
HETATM    9  O   UNL     1       8.668  25.091  57.021  1.00  0.00    -0.271 OA
HETATM   10  H   UNL     1       6.121  25.159  55.120  1.00  0.00     0.169 HD
BRANCH   8  11
HETATM   11  C   UNL     1       6.683  26.471  57.199  1.00  0.00     0.278 C 
BRANCH  11  12
HETATM   12  O   UNL     1       6.841  27.630  56.392  1.00  0.00    -0.342 OA
BRANCH  12  13
HETATM   13  C   UNL     1       7.975  28.378  56.543  1.00  0.00     0.075 A 
HETATM   14  C   UNL     1       8.656  28.690  55.349  1.00  0.00    -0.029 A 
HETATM   15  C   UNL     1       8.137  28.216  54.019  1.00  0.00     0.051 C 
HETATM   16  C   UNL     1       9.813  29.480  55.401  1.00  0.00     0.009 A 
HETATM   17  C   UNL     1      10.297  29.943  56.623  1.00  0.00     0.001 A 
HETATM   18  C   UNL     1       9.625  29.625  57.802  1.00  0.00     0.003 A 
HETATM   19  C   UNL     1       8.464  28.848  57.764  1.00  0.00     0.037 A 
ENDBRANCH  12  13
ENDBRANCH  11  12
ENDBRANCH   8  11
ENDBRANCH   1   7
BRANCH   2  20
HETATM   20  C   UNL     1       7.348  24.531  52.617  1.00  0.00     0.254 C 
HETATM   21  N   UNL     1       6.093  24.749  52.093  1.00  0.00    -0.353 N 
HETATM   22  H   UNL     1       5.309  24.251  52.504  1.00  0.00     0.163 HD
HETATM   23  O   UNL     1       8.316  25.245  52.386  1.00  0.00    -0.268 OA
BRANCH  21  24
HETATM   24  C   UNL     1       5.798  25.939  51.322  1.00  0.00     0.162 C 
BRANCH  24  25
HETATM   25  C   UNL     1       5.070  26.945  52.161  1.00  0.00    -0.023 A 
HETATM   26  C   UNL     1       4.920  26.745  53.530  1.00  0.00     0.125 A 
HETATM   27  N   UNL     1       4.296  27.609  54.361  1.00  0.00    -0.273 NA
HETATM   28  C   UNL     1       3.752  28.708  53.793  1.00  0.00     0.116 A 
HETATM   29  C   UNL     1       3.826  28.990  52.439  1.00  0.00     0.020 A 
HETATM   30  C   UNL     1       4.503  28.097  51.612  1.00  0.00     0.012 A 
ENDBRANCH  24  25
ENDBRANCH  21  24
ENDBRANCH   2  20
TORSDOF 7
ENDMDL
MODEL 10
REMARK VINA RESULT:      -8.7      3.644      9.268
REMARK  7 active torsions:
REMARK  status: ('A' for Active; 'I' for Inactive)
REMARK    1  A    between atoms: C_3  and  O_4 
REMARK    2  A    between atoms: O_4  and  C_5 
REMARK    3  A    between atoms: C_5  and  C_6 
REMARK       I    between atoms: C_6  and  N_7 
REMARK    4  A    between atoms: N_7  and  C_8 
REMARK    5  A    between atoms: C_9  and  C_10 
REMARK       I    between atoms: C_10  and  N_11 
REMARK    6  A    between atoms: N_11  and  C_12 
REMARK    7  A    between atoms: C_12  and  C_13 
ROOT
HETATM    1  C   UNL     1       7.359  24.745  54.659  1.00  0.00     0.050 A 
HETATM    2  C   UNL     1       6.781  24.203  53.492  1.00  0.00     0.058 A 
HETATM    3  C   UNL     1       7.243  22.988  52.959  1.00  0.00     0.019 A 
HETATM    4  C   UNL     1       8.301  22.314  53.562  1.00  0.00     0.001 A 
HETATM    5  C   UNL     1       8.895  22.850  54.697  1.00  0.00     0.002 A 
HETATM    6  C   UNL     1       8.427  24.052  55.242  1.00  0.00     0.030 A 
ENDROOT
BRANCH   1   7
HETATM    7  N   UNL     1       6.805  25.909  55.259  1.00  0.00    -0.324 N 
HETATM    8  C   UNL     1       7.150  27.227  54.979  1.00  0.00     0.246 C 
HETATM    9  O   UNL     1       7.794  27.587  53.997  1.00  0.00    -0.271 OA
HETATM   10  H   UNL     1       6.083  25.756  55.954  1.00  0.00     0.169 HD
BRANCH   8  11
HETATM   11  C   UNL     1       6.617  28.221  56.019  1.00  0.00     0.278 C 
BRANCH  11  12
HETATM   12  O   UNL     1       7.444  29.377  55.985  1.00  0.00    -0.342 OA
BRANCH  12  13
HETATM   13  C   UNL     1       8.005  29.809  57.154  1.00  0.00     0.075 A 
HETATM   14  C   UNL     1       9.406  29.953  57.135  1.00  0.00    -0.029 A 
HETATM   15  C   UNL     1      10.196  29.643  55.893  1.00  0.00     0.051 C 
HETATM   16  C   UNL     1      10.068  30.422  58.279  1.00  0.00     0.009 A 
HETATM   17  C   UNL     1       9.349  30.731  59.432  1.00  0.00     0.001 A 
HETATM   18  C   UNL     1       7.965  30.580  59.449  1.00  0.00     0.003 A 
HETATM   19  C   UNL     1       7.291  30.124  58.313  1.00  0.00     0.037 A 
ENDBRANCH  12  13
ENDBRANCH  11  12
ENDBRANCH   8  11
ENDBRANCH   1   7
BRANCH   2  20
HETATM   20  C   UNL     1       5.683  24.865  52.743  1.00  0.00     0.254 C 
HETATM   21  N   UNL     1       6.042  25.449  51.547  1.00  0.00    -0.353 N 
HETATM   22  H   UNL     1       6.956  25.230  51.162  1.00  0.00     0.163 HD
HETATM   23  O   UNL     1       4.537  24.847  53.175  1.00  0.00    -0.268 OA
BRANCH  21  24
HETATM   24  C   UNL     1       5.043  25.976  50.640  1.00  0.00     0.162 C 
BRANCH  24  25
HETATM   25  C   UNL     1       5.268  27.438  50.400  1.00  0.00    -0.023 A 
HETATM   26  C   UNL     1       5.518  28.298  51.465  1.00  0.00     0.125 A 
HETATM   27  N   UNL     1       5.750  29.622  51.336  1.00  0.00    -0.273 NA
HETATM   28  C   UNL     1       5.684  30.128  50.085  1.00  0.00     0.116 A 
HETATM   29  C   UNL     1       5.420  29.364  48.959  1.00  0.00     0.020 A 
HETATM   30  C   UNL     1       5.218  27.996  49.121  1.00  0.00     0.012 A 
ENDBRANCH  24  25
ENDBRANCH  21  24
ENDBRANCH   2  20
TORSDOF 7
ENDMDL
