MODEL 1
REMARK VINA RESULT:      -9.3      0.000      0.000
REMARK  7 active torsions:
REMARK  status: ('A' for Active; 'I' for Inactive)
REMARK    1  A    between atoms: N_3  and  C_4 
REMARK    2  A    between atoms: C_7  and  O_8 
REMARK    3  A    between atoms: C_14  and  C_15 
REMARK    4  A    between atoms: C_15  and  N_16 
REMARK       I    between atoms: N_16  and  C_17 
REMARK       I    between atoms: C_17  and  N_18 
REMARK    5  A    between atoms: N_18  and  C_19 
REMARK    6  A    between atoms: C_19  and  C_20 
REMARK    7  A    between atoms: C_20  and  C_21 
ROOT
HETATM    1  C   UNL     1       5.016  26.643  54.047  1.00  0.00     0.068 C 
HETATM    2  C   UNL     1       5.966  26.761  55.190  1.00  0.00     0.014 A 
HETATM    3  N   UNL     1       6.998  25.867  55.468  1.00  0.00    -0.319 N 
HETATM    4  C   UNL     1       7.705  26.358  56.567  1.00  0.00     0.021 A 
HETATM    5  C   UNL     1       8.805  25.611  57.253  1.00  0.00     0.069 C 
HETATM    6  C   UNL     1       7.160  27.582  56.938  1.00  0.00    -0.016 A 
HETATM    7  C   UNL     1       6.054  27.809  56.086  1.00  0.00     0.035 A 
ENDROOT
BRANCH   6   8
HETATM    8  C   UNL     1       7.615  28.484  58.035  1.00  0.00     0.165 C 
BRANCH   8   9
HETATM    9  N   UNL     1       7.161  29.826  57.755  1.00  0.00    -0.339 N 
HETATM   10  C   UNL     1       7.406  30.937  58.495  1.00  0.00     0.316 C 
HETATM   11  N   UNL     1       8.378  30.812  59.444  1.00  0.00    -0.343 N 
HETATM   12  O   UNL     1       6.758  31.961  58.308  1.00  0.00    -0.248 OA
HETATM   13  H   UNL     1       9.135  30.199  59.180  1.00  0.00     0.164 HD
HETATM   14  H   UNL     1       6.385  29.937  57.116  1.00  0.00     0.164 HD
BRANCH  11  15
HETATM   15  C   UNL     1       8.771  31.965  60.234  1.00  0.00     0.129 C 
BRANCH  15  16
HETATM   16  C   UNL     1       8.690  31.698  61.740  1.00  0.00     0.058 C 
BRANCH  16  17
HETATM   17  C   UNL     1       7.808  32.676  62.484  1.00  0.00    -0.057 A 
HETATM   18  C   UNL     1       7.910  32.821  63.875  1.00  0.00     0.007 A 
HETATM   19  C   UNL     1       7.081  33.712  64.557  1.00  0.00     0.001 A 
HETATM   20  C   UNL     1       6.145  34.473  63.856  1.00  0.00     0.000 A 
HETATM   21  C   UNL     1       6.042  34.345  62.473  1.00  0.00     0.001 A 
HETATM   22  C   UNL     1       6.868  33.451  61.790  1.00  0.00     0.007 A 
ENDBRANCH  16  17
ENDBRANCH  15  16
ENDBRANCH  11  15
ENDBRANCH   8   9
ENDBRANCH   6   8
BRANCH   3  23
HETATM   23  C   UNL     1       7.292  24.674  54.745  1.00  0.00     0.039 A 
HETATM   24  C   UNL     1       7.079  23.425  55.339  1.00  0.00     0.033 A 
HETATM   25  C   UNL     1       7.373  22.257  54.630  1.00  0.00     0.039 A 
HETATM   26  C   UNL     1       7.876  22.317  53.329  1.00  0.00     0.068 A 
HETATM   27  C   UNL     1       8.088  23.562  52.738  1.00  0.00     0.039 A 
HETATM   28  C   UNL     1       7.800  24.738  53.443  1.00  0.00     0.033 A 
BRANCH  26  29
HETATM   29  O   UNL     1       8.116  21.100  52.755  1.00  0.00    -0.356 OA
HETATM   30  C   UNL     1       8.821  20.146  53.539  1.00  0.00     0.210 C 
ENDBRANCH  26  29
ENDBRANCH   3  23
TORSDOF 7
ENDMDL
MODEL 2
REMARK VINA RESULT:      -9.2      2.110     10.515
REMARK  7 active torsions:
REMARK  status: ('A' for Active; 'I' for Inactive)
REMARK    1  A    between atoms: N_3  and  C_4 
REMARK    2  A    between atoms: C_7  and  O_8 
REMARK    3  A    between atoms: C_14  and  C_15 
REMARK    4  A    between atoms: C_15  and  N_16 
REMARK       I    between atoms: N_16  and  C_17 
REMARK       I    between atoms: C_17  and  N_18 
REMARK    5  A    between atoms: N_18  and  C_19 
REMARK    6  A    between atoms: C_19  and  C_20 
REMARK    7  A    between atoms: C_20  and  C_21 
ROOT
HETATM    1  C   UNL     1      10.904  30.330  57.528  1.00  0.00     0.068 C 
HETATM    2  C   UNL     1       9.517  29.904  57.187  1.00  0.00     0.014 A 
HETATM    3  N   UNL     1       8.391  30.146  57.971  1.00  0.00    -0.319 N 
HETATM    4  C   UNL     1       7.278  29.661  57.282  1.00  0.00     0.021 A 
HETATM    5  C   UNL     1       5.897  29.615  57.856  1.00  0.00     0.069 C 
HETATM    6  C   UNL     1       7.694  29.175  56.048  1.00  0.00    -0.016 A 
HETATM    7  C   UNL     1       9.102  29.307  56.013  1.00  0.00     0.035 A 
ENDROOT
BRANCH   6   8
HETATM    8  C   UNL     1       6.845  28.595  54.967  1.00  0.00     0.165 C 
BRANCH   8   9
HETATM    9  N   UNL     1       6.266  27.361  55.441  1.00  0.00    -0.339 N 
HETATM   10  C   UNL     1       6.067  26.228  54.720  1.00  0.00     0.316 C 
HETATM   11  N   UNL     1       6.706  26.174  53.516  1.00  0.00    -0.343 N 
HETATM   12  O   UNL     1       5.335  25.343  55.147  1.00  0.00    -0.248 OA
HETATM   13  H   UNL     1       7.606  26.633  53.506  1.00  0.00     0.164 HD
HETATM   14  H   UNL     1       5.717  27.393  56.289  1.00  0.00     0.164 HD
BRANCH  11  15
HETATM   15  C   UNL     1       6.623  24.973  52.704  1.00  0.00     0.129 C 
BRANCH  15  16
HETATM   16  C   UNL     1       7.942  24.196  52.673  1.00  0.00     0.058 C 
BRANCH  16  17
HETATM   17  C   UNL     1       7.920  22.927  53.497  1.00  0.00    -0.057 A 
HETATM   18  C   UNL     1       7.813  22.980  54.894  1.00  0.00     0.007 A 
HETATM   19  C   UNL     1       7.812  21.806  55.649  1.00  0.00     0.001 A 
HETATM   20  C   UNL     1       7.909  20.568  55.016  1.00  0.00     0.000 A 
HETATM   21  C   UNL     1       8.005  20.503  53.628  1.00  0.00     0.001 A 
HETATM   22  C   UNL     1       8.010  21.676  52.871  1.00  0.00     0.007 A 
ENDBRANCH  16  17
ENDBRANCH  15  16
ENDBRANCH  11  15
ENDBRANCH   8   9
ENDBRANCH   6   8
BRANCH   3  23
HETATM   23  C   UNL     1       8.376  30.793  59.242  1.00  0.00     0.039 A 
HETATM   24  C   UNL     1       8.969  30.176  60.349  1.00  0.00     0.033 A 
HETATM   25  C   UNL     1       8.949  30.809  61.594  1.00  0.00     0.039 A 
HETATM   26  C   UNL     1       8.346  32.059  61.752  1.00  0.00     0.068 A 
HETATM   27  C   UNL     1       7.755  32.673  60.647  1.00  0.00     0.039 A 
HETATM   28  C   UNL     1       7.768  32.043  59.397  1.00  0.00     0.033 A 
BRANCH  26  29
HETATM   29  O   UNL     1       8.401  32.562  63.021  1.00  0.00    -0.356 OA
HETATM   30  C   UNL     1       7.172  32.982  63.602  1.00  0.00     0.210 C 
ENDBRANCH  26  29
ENDBRANCH   3  23
TORSDOF 7
ENDMDL
MODEL 3
REMARK VINA RESULT:      -9.1      2.617      4.120
REMARK  7 active torsions:
REMARK  status: ('A' for Active; 'I' for Inactive)
REMARK    1  A    between atoms: N_3  and  C_4 
REMARK    2  A    between atoms: C_7  and  O_8 
REMARK    3  A    between atoms: C_14  and  C_15 
REMARK    4  A    between atoms: C_15  and  N_16 
REMARK       I    between atoms: N_16  and  C_17 
REMARK       I    between atoms: C_17  and  N_18 
REMARK    5  A    between atoms: N_18  and  C_19 
REMARK    6  A    between atoms: C_19  and  C_20 
REMARK    7  A    between atoms: C_20  and  C_21 
ROOT
HETATM    1  C   UNL     1       4.860  25.162  57.210  1.00  0.00     0.068 C 
HETATM    2  C   UNL     1       5.351  26.338  56.436  1.00  0.00     0.014 A 
HETATM    3  N   UNL     1       6.310  26.285  55.426  1.00  0.00    -0.319 N 
HETATM    4  C   UNL     1       6.444  27.571  54.897  1.00  0.00     0.021 A 
HETATM    5  C   UNL     1       7.475  27.951  53.883  1.00  0.00     0.069 C 
HETATM    6  C   UNL     1       5.533  28.410  55.528  1.00  0.00    -0.016 A 
HETATM    7  C   UNL     1       4.875  27.632  56.510  1.00  0.00     0.035 A 
ENDROOT
BRANCH   6   8
HETATM    8  C   UNL     1       5.298  29.859  55.262  1.00  0.00     0.165 C 
BRANCH   8   9
HETATM    9  N   UNL     1       4.418  30.384  56.279  1.00  0.00    -0.339 N 
HETATM   10  C   UNL     1       4.783  30.909  57.476  1.00  0.00     0.316 C 
HETATM   11  N   UNL     1       6.109  31.197  57.615  1.00  0.00    -0.343 N 
HETATM   12  O   UNL     1       3.949  31.077  58.359  1.00  0.00    -0.248 OA
HETATM   13  H   UNL     1       6.554  31.511  56.765  1.00  0.00     0.164 HD
HETATM   14  H   UNL     1       3.444  30.114  56.244  1.00  0.00     0.164 HD
BRANCH  11  15
HETATM   15  C   UNL     1       6.588  31.837  58.828  1.00  0.00     0.129 C 
BRANCH  15  16
HETATM   16  C   UNL     1       7.688  31.028  59.521  1.00  0.00     0.058 C 
BRANCH  16  17
HETATM   17  C   UNL     1       8.700  30.434  58.565  1.00  0.00    -0.057 A 
HETATM   18  C   UNL     1       8.461  29.202  57.941  1.00  0.00     0.007 A 
HETATM   19  C   UNL     1       9.408  28.653  57.074  1.00  0.00     0.001 A 
HETATM   20  C   UNL     1      10.598  29.331  56.817  1.00  0.00     0.000 A 
HETATM   21  C   UNL     1      10.841  30.562  57.424  1.00  0.00     0.001 A 
HETATM   22  C   UNL     1       9.897  31.111  58.294  1.00  0.00     0.007 A 
ENDBRANCH  16  17
ENDBRANCH  15  16
ENDBRANCH  11  15
ENDBRANCH   8   9
ENDBRANCH   6   8
BRANCH   3  23
HETATM   23  C   UNL     1       7.012  25.122  54.994  1.00  0.00     0.039 A 
HETATM   24  C   UNL     1       6.637  24.476  53.811  1.00  0.00     0.033 A 
HETATM   25  C   UNL     1       7.324  23.334  53.392  1.00  0.00     0.039 A 
HETATM   26  C   UNL     1       8.389  22.825  54.139  1.00  0.00     0.068 A 
HETATM   27  C   UNL     1       8.762  23.470  55.318  1.00  0.00     0.039 A 
HETATM   28  C   UNL     1       8.076  24.613  55.747  1.00  0.00     0.033 A 
BRANCH  26  29
HETATM   29  O   UNL     1       8.971  21.706  53.612  1.00  0.00    -0.356 OA
HETATM   30  C   UNL     1       8.098  20.713  53.087  1.00  0.00     0.210 C 
ENDBRANCH  26  29
ENDBRANCH   3  23
TORSDOF 7
ENDMDL
MODEL 4
REMARK VINA RESULT:      -8.8      1.596      1.901
REMARK  7 active torsions:
REMARK  status: ('A' for Active; 'I' for Inactive)
REMARK    1  A    between atoms: N_3  and  C_4 
REMARK    2  A    between atoms: C_7  and  O_8 
REMARK    3  A    between atoms: C_14  and  C_15 
REMARK    4  A    between atoms: C_15  and  N_16 
REMARK       I    between atoms: N_16  and  C_17 
REMARK       I    between atoms: C_17  and  N_18 
REMARK    5  A    between atoms: N_18  and  C_19 
REMARK    6  A    between atoms: C_19  and  C_20 
REMARK    7  A    between atoms: C_20  and  C_21 
ROOT
HETATM    1  C   UNL     1       4.812  25.218  57.122  1.00  0.00     0.068 C 
HETATM    2  C   UNL     1       5.511  26.422  56.589  1.00  0.00     0.014 A 
HETATM    3  N   UNL     1       6.405  26.420  55.521  1.00  0.00    -0.319 N 
HETATM    4  C   UNL     1       6.787  27.741  55.279  1.00  0.00     0.021 A 
HETATM    5  C   UNL     1       7.842  28.137  54.295  1.00  0.00     0.069 C 
HETATM    6  C   UNL     1       6.090  28.572  56.149  1.00  0.00    -0.016 A 
HETATM    7  C   UNL     1       5.317  27.732  56.983  1.00  0.00     0.035 A 
ENDROOT
BRANCH   6   8
HETATM    8  C   UNL     1       6.152  30.060  56.227  1.00  0.00     0.165 C 
BRANCH   8   9
HETATM    9  N   UNL     1       4.982  30.540  56.923  1.00  0.00    -0.339 N 
HETATM   10  C   UNL     1       4.958  31.253  58.077  1.00  0.00     0.316 C 
HETATM   11  N   UNL     1       6.154  31.776  58.473  1.00  0.00    -0.343 N 
HETATM   12  O   UNL     1       3.914  31.376  58.708  1.00  0.00    -0.248 OA
HETATM   13  H   UNL     1       6.751  32.062  57.711  1.00  0.00     0.164 HD
HETATM   14  H   UNL     1       4.094  30.107  56.704  1.00  0.00     0.164 HD
BRANCH  11  15
HETATM   15  C   UNL     1       6.220  32.621  59.652  1.00  0.00     0.129 C 
BRANCH  15  16
HETATM   16  C   UNL     1       7.101  32.023  60.752  1.00  0.00     0.058 C 
BRANCH  16  17
HETATM   17  C   UNL     1       7.028  32.772  62.064  1.00  0.00    -0.057 A 
HETATM   18  C   UNL     1       7.833  32.400  63.150  1.00  0.00     0.007 A 
HETATM   19  C   UNL     1       7.747  33.085  64.363  1.00  0.00     0.001 A 
HETATM   20  C   UNL     1       6.862  34.153  64.502  1.00  0.00     0.000 A 
HETATM   21  C   UNL     1       6.065  34.539  63.426  1.00  0.00     0.001 A 
HETATM   22  C   UNL     1       6.147  33.853  62.213  1.00  0.00     0.007 A 
ENDBRANCH  16  17
ENDBRANCH  15  16
ENDBRANCH  11  15
ENDBRANCH   8   9
ENDBRANCH   6   8
BRANCH   3  23
HETATM   23  C   UNL     1       6.837  25.274  54.790  1.00  0.00     0.039 A 
HETATM   24  C   UNL     1       7.860  24.465  55.296  1.00  0.00     0.033 A 
HETATM   25  C   UNL     1       8.285  23.345  54.576  1.00  0.00     0.039 A 
HETATM   26  C   UNL     1       7.698  23.017  53.352  1.00  0.00     0.068 A 
HETATM   27  C   UNL     1       6.678  23.825  52.848  1.00  0.00     0.039 A 
HETATM   28  C   UNL     1       6.249  24.950  53.562  1.00  0.00     0.033 A 
BRANCH  26  29
HETATM   29  O   UNL     1       8.209  21.897  52.758  1.00  0.00    -0.356 OA
HETATM   30  C   UNL     1       8.300  20.727  53.561  1.00  0.00     0.210 C 
ENDBRANCH  26  29
ENDBRANCH   3  23
TORSDOF 7
ENDMDL
MODEL 5
REMARK VINA RESULT:      -8.7      2.364     10.837
REMARK  7 active torsions:
REMARK  status: ('A' for Active; 'I' for Inactive)
REMARK    1  A    between atoms: N_3  and  C_4 
REMARK    2  A    between atoms: C_7  and  O_8 
REMARK    3  A    between atoms: C_14  and  C_15 
REMARK    4  A    between atoms: C_15  and  N_16 
REMARK       I    between atoms: N_16  and  C_17 
REMARK       I    between atoms: C_17  and  N_18 
REMARK    5  A    between atoms: N_18  and  C_19 
REMARK    6  A    between atoms: C_19  and  C_20 
REMARK    7  A    between atoms: C_20  and  C_21 
ROOT
HETATM    1  C   UNL     1       9.375  32.023  59.682  1.00  0.00     0.068 C 
HETATM    2  C   UNL     1       8.627  31.043  58.844  1.00  0.00     0.014 A 
HETATM    3  N   UNL     1       7.249  31.053  58.640  1.00  0.00    -0.319 N 
HETATM    4  C   UNL     1       6.942  30.028  57.743  1.00  0.00     0.021 A 
HETATM    5  C   UNL     1       5.547  29.632  57.376  1.00  0.00     0.069 C 
HETATM    6  C   UNL     1       8.125  29.419  57.339  1.00  0.00    -0.016 A 
HETATM    7  C   UNL     1       9.170  30.045  58.057  1.00  0.00     0.035 A 
ENDROOT
BRANCH   6   8
HETATM    8  C   UNL     1       8.284  28.303  56.363  1.00  0.00     0.165 C 
BRANCH   8   9
HETATM    9  N   UNL     1       8.109  27.049  57.056  1.00  0.00    -0.339 N 
HETATM   10  C   UNL     1       7.384  25.982  56.634  1.00  0.00     0.316 C 
HETATM   11  N   UNL     1       7.001  26.009  55.325  1.00  0.00    -0.343 N 
HETATM   12  O   UNL     1       7.093  25.083  57.415  1.00  0.00    -0.248 OA
HETATM   13  H   UNL     1       7.671  26.445  54.709  1.00  0.00     0.164 HD
HETATM   14  H   UNL     1       8.308  27.027  58.048  1.00  0.00     0.164 HD
BRANCH  11  15
HETATM   15  C   UNL     1       6.291  24.878  54.755  1.00  0.00     0.129 C 
BRANCH  15  16
HETATM   16  C   UNL     1       7.091  24.182  53.650  1.00  0.00     0.058 C 
BRANCH  16  17
HETATM   17  C   UNL     1       7.524  22.776  54.006  1.00  0.00    -0.057 A 
HETATM   18  C   UNL     1       7.510  22.336  55.336  1.00  0.00     0.007 A 
HETATM   19  C   UNL     1       7.928  21.044  55.659  1.00  0.00     0.001 A 
HETATM   20  C   UNL     1       8.357  20.177  54.656  1.00  0.00     0.000 A 
HETATM   21  C   UNL     1       8.365  20.600  53.329  1.00  0.00     0.001 A 
HETATM   22  C   UNL     1       7.951  21.893  53.004  1.00  0.00     0.007 A 
ENDBRANCH  16  17
ENDBRANCH  15  16
ENDBRANCH  11  15
ENDBRANCH   8   9
ENDBRANCH   6   8
BRANCH   3  23
HETATM   23  C   UNL     1       6.320  31.962  59.227  1.00  0.00     0.039 A 
HETATM   24  C   UNL     1       6.156  31.997  60.616  1.00  0.00     0.033 A 
HETATM   25  C   UNL     1       5.242  32.885  61.188  1.00  0.00     0.039 A 
HETATM   26  C   UNL     1       4.487  33.747  60.390  1.00  0.00     0.068 A 
HETATM   27  C   UNL     1       4.652  33.712  59.005  1.00  0.00     0.039 A 
HETATM   28  C   UNL     1       5.563  32.822  58.424  1.00  0.00     0.033 A 
BRANCH  26  29
HETATM   29  O   UNL     1       3.635  34.563  61.081  1.00  0.00    -0.356 OA
HETATM   30  C   UNL     1       2.918  33.977  62.160  1.00  0.00     0.210 C 
ENDBRANCH  26  29
ENDBRANCH   3  23
TORSDOF 7
ENDMDL
MODEL 6
REMARK VINA RESULT:      -8.6      2.523     11.406
REMARK  7 active torsions:
REMARK  status: ('A' for Active; 'I' for Inactive)
REMARK    1  A    between atoms: N_3  and  C_4 
REMARK    2  A    between atoms: C_7  and  O_8 
REMARK    3  A    between atoms: C_14  and  C_15 
REMARK    4  A    between atoms: C_15  and  N_16 
REMARK       I    between atoms: N_16  and  C_17 
REMARK       I    between atoms: C_17  and  N_18 
REMARK    5  A    between atoms: N_18  and  C_19 
REMARK    6  A    between atoms: C_19  and  C_20 
REMARK    7  A    between atoms: C_20  and  C_21 
ROOT
HETATM    1  C   UNL     1       9.008  31.948  61.916  1.00  0.00     0.068 C 
HETATM    2  C   UNL     1       7.885  31.839  60.941  1.00  0.00     0.014 A 
HETATM    3  N   UNL     1       6.629  32.421  61.101  1.00  0.00    -0.319 N 
HETATM    4  C   UNL     1       5.885  32.155  59.949  1.00  0.00     0.021 A 
HETATM    5  C   UNL     1       4.438  32.500  59.794  1.00  0.00     0.069 C 
HETATM    6  C   UNL     1       6.689  31.464  59.049  1.00  0.00    -0.016 A 
HETATM    7  C   UNL     1       7.929  31.247  59.694  1.00  0.00     0.035 A 
ENDROOT
BRANCH   6   8
HETATM    8  C   UNL     1       6.326  31.003  57.678  1.00  0.00     0.165 C 
BRANCH   8   9
HETATM    9  N   UNL     1       5.941  29.613  57.739  1.00  0.00    -0.339 N 
HETATM   10  C   UNL     1       5.784  28.768  56.689  1.00  0.00     0.316 C 
HETATM   11  N   UNL     1       6.283  29.206  55.497  1.00  0.00    -0.343 N 
HETATM   12  O   UNL     1       5.204  27.698  56.837  1.00  0.00    -0.248 OA
HETATM   13  H   UNL     1       7.120  29.762  55.581  1.00  0.00     0.164 HD
HETATM   14  H   UNL     1       5.492  29.286  58.584  1.00  0.00     0.164 HD
BRANCH  11  15
HETATM   15  C   UNL     1       6.236  28.342  54.331  1.00  0.00     0.129 C 
BRANCH  15  16
HETATM   16  C   UNL     1       7.588  27.687  54.034  1.00  0.00     0.058 C 
BRANCH  16  17
HETATM   17  C   UNL     1       7.513  26.185  53.870  1.00  0.00    -0.057 A 
HETATM   18  C   UNL     1       7.839  25.579  52.649  1.00  0.00     0.007 A 
HETATM   19  C   UNL     1       7.750  24.194  52.499  1.00  0.00     0.001 A 
HETATM   20  C   UNL     1       7.342  23.400  53.570  1.00  0.00     0.000 A 
HETATM   21  C   UNL     1       7.026  23.991  54.792  1.00  0.00     0.001 A 
HETATM   22  C   UNL     1       7.111  25.376  54.942  1.00  0.00     0.007 A 
ENDBRANCH  16  17
ENDBRANCH  15  16
ENDBRANCH  11  15
ENDBRANCH   8   9
ENDBRANCH   6   8
BRANCH   3  23
HETATM   23  C   UNL     1       6.190  33.174  62.229  1.00  0.00     0.039 A 
HETATM   24  C   UNL     1       5.693  32.516  63.360  1.00  0.00     0.033 A 
HETATM   25  C   UNL     1       5.259  33.256  64.462  1.00  0.00     0.039 A 
HETATM   26  C   UNL     1       5.316  34.652  64.455  1.00  0.00     0.068 A 
HETATM   27  C   UNL     1       5.811  35.306  63.328  1.00  0.00     0.039 A 
HETATM   28  C   UNL     1       6.246  34.572  62.217  1.00  0.00     0.033 A 
BRANCH  26  29
HETATM   29  O   UNL     1       4.861  35.246  65.599  1.00  0.00    -0.356 OA
HETATM   30  C   UNL     1       3.514  34.982  65.970  1.00  0.00     0.210 C 
ENDBRANCH  26  29
ENDBRANCH   3  23
TORSDOF 7
ENDMDL
MODEL 7
REMARK VINA RESULT:      -8.5      1.974      2.895
REMARK  7 active torsions:
REMARK  status: ('A' for Active; 'I' for Inactive)
REMARK    1  A    between atoms: N_3  and  C_4 
REMARK    2  A    between atoms: C_7  and  O_8 
REMARK    3  A    between atoms: C_14  and  C_15 
REMARK    4  A    between atoms: C_15  and  N_16 
REMARK       I    between atoms: N_16  and  C_17 
REMARK       I    between atoms: C_17  and  N_18 
REMARK    5  A    between atoms: N_18  and  C_19 
REMARK    6  A    between atoms: C_19  and  C_20 
REMARK    7  A    between atoms: C_20  and  C_21 
ROOT
HETATM    1  C   UNL     1       4.794  25.252  57.329  1.00  0.00     0.068 C 
HETATM    2  C   UNL     1       5.386  26.406  56.594  1.00  0.00     0.014 A 
HETATM    3  N   UNL     1       6.385  26.311  55.628  1.00  0.00    -0.319 N 
HETATM    4  C   UNL     1       6.616  27.592  55.124  1.00  0.00     0.021 A 
HETATM    5  C   UNL     1       7.713  27.924  54.162  1.00  0.00     0.069 C 
HETATM    6  C   UNL     1       5.726  28.475  55.725  1.00  0.00    -0.016 A 
HETATM    7  C   UNL     1       4.981  27.725  56.664  1.00  0.00     0.035 A 
ENDROOT
BRANCH   6   8
HETATM    8  C   UNL     1       5.586  29.938  55.468  1.00  0.00     0.165 C 
BRANCH   8   9
HETATM    9  N   UNL     1       4.389  30.413  56.120  1.00  0.00    -0.339 N 
HETATM   10  C   UNL     1       4.322  31.237  57.196  1.00  0.00     0.316 C 
HETATM   11  N   UNL     1       5.484  31.871  57.527  1.00  0.00    -0.343 N 
HETATM   12  O   UNL     1       3.274  31.360  57.819  1.00  0.00    -0.248 OA
HETATM   13  H   UNL     1       6.061  32.114  56.735  1.00  0.00     0.164 HD
HETATM   14  H   UNL     1       3.529  29.906  55.954  1.00  0.00     0.164 HD
BRANCH  11  15
HETATM   15  C   UNL     1       5.500  32.835  58.613  1.00  0.00     0.129 C 
BRANCH  15  16
HETATM   16  C   UNL     1       5.613  32.168  59.986  1.00  0.00     0.058 C 
BRANCH  16  17
HETATM   17  C   UNL     1       7.026  32.121  60.525  1.00  0.00    -0.057 A 
HETATM   18  C   UNL     1       8.123  32.053  59.656  1.00  0.00     0.007 A 
HETATM   19  C   UNL     1       9.423  31.992  60.161  1.00  0.00     0.001 A 
HETATM   20  C   UNL     1       9.640  32.005  61.538  1.00  0.00     0.000 A 
HETATM   21  C   UNL     1       8.557  32.083  62.411  1.00  0.00     0.001 A 
HETATM   22  C   UNL     1       7.256  32.140  61.908  1.00  0.00     0.007 A 
ENDBRANCH  16  17
ENDBRANCH  15  16
ENDBRANCH  11  15
ENDBRANCH   8   9
ENDBRANCH   6   8
BRANCH   3  23
HETATM   23  C   UNL     1       7.040  25.114  55.213  1.00  0.00     0.039 A 
HETATM   24  C   UNL     1       8.141  24.633  55.929  1.00  0.00     0.033 A 
HETATM   25  C   UNL     1       8.784  23.463  55.518  1.00  0.00     0.039 A 
HETATM   26  C   UNL     1       8.340  22.759  54.396  1.00  0.00     0.068 A 
HETATM   27  C   UNL     1       7.242  23.240  53.683  1.00  0.00     0.039 A 
HETATM   28  C   UNL     1       6.594  24.414  54.087  1.00  0.00     0.033 A 
BRANCH  26  29
HETATM   29  O   UNL     1       9.059  21.633  54.109  1.00  0.00    -0.356 OA
HETATM   30  C   UNL     1       8.591  20.826  53.036  1.00  0.00     0.210 C 
ENDBRANCH  26  29
ENDBRANCH   3  23
TORSDOF 7
ENDMDL
MODEL 8
REMARK VINA RESULT:      -8.5      2.269     11.270
REMARK  7 active torsions:
REMARK  status: ('A' for Active; 'I' for Inactive)
REMARK    1  A    between atoms: N_3  and  C_4 
REMARK    2  A    between atoms: C_7  and  O_8 
REMARK    3  A    between atoms: C_14  and  C_15 
REMARK    4  A    between atoms: C_15  and  N_16 
REMARK       I    between atoms: N_16  and  C_17 
REMARK       I    between atoms: C_17  and  N_18 
REMARK    5  A    between atoms: N_18  and  C_19 
REMARK    6  A    between atoms: C_19  and  C_20 
REMARK    7  A    between atoms: C_20  and  C_21 
ROOT
HETATM    1  C   UNL     1       8.538  31.283  62.627  1.00  0.00     0.068 C 
HETATM    2  C   UNL     1       7.959  31.224  61.254  1.00  0.00     0.014 A 
HETATM    3  N   UNL     1       6.868  31.970  60.815  1.00  0.00    -0.319 N 
HETATM    4  C   UNL     1       6.678  31.691  59.460  1.00  0.00     0.021 A 
HETATM    5  C   UNL     1       5.520  32.198  58.659  1.00  0.00     0.069 C 
HETATM    6  C   UNL     1       7.680  30.824  59.038  1.00  0.00    -0.016 A 
HETATM    7  C   UNL     1       8.458  30.517  60.178  1.00  0.00     0.035 A 
ENDROOT
BRANCH   6   8
HETATM    8  C   UNL     1       7.895  30.286  57.664  1.00  0.00     0.165 C 
BRANCH   8   9
HETATM    9  N   UNL     1       8.443  28.954  57.765  1.00  0.00    -0.339 N 
HETATM   10  C   UNL     1       7.850  27.799  57.368  1.00  0.00     0.316 C 
HETATM   11  N   UNL     1       6.751  27.943  56.572  1.00  0.00    -0.343 N 
HETATM   12  O   UNL     1       8.290  26.717  57.740  1.00  0.00    -0.248 OA
HETATM   13  H   UNL     1       6.796  28.734  55.946  1.00  0.00     0.164 HD
HETATM   14  H   UNL     1       9.205  28.807  58.413  1.00  0.00     0.164 HD
BRANCH  11  15
HETATM   15  C   UNL     1       6.092  26.769  56.028  1.00  0.00     0.129 C 
BRANCH  15  16
HETATM   16  C   UNL     1       6.458  26.519  54.563  1.00  0.00     0.058 C 
BRANCH  16  17
HETATM   17  C   UNL     1       6.965  25.119  54.293  1.00  0.00    -0.057 A 
HETATM   18  C   UNL     1       6.938  24.140  55.295  1.00  0.00     0.007 A 
HETATM   19  C   UNL     1       7.424  22.856  55.043  1.00  0.00     0.001 A 
HETATM   20  C   UNL     1       7.934  22.535  53.787  1.00  0.00     0.000 A 
HETATM   21  C   UNL     1       7.956  23.497  52.780  1.00  0.00     0.001 A 
HETATM   22  C   UNL     1       7.474  24.783  53.030  1.00  0.00     0.007 A 
ENDBRANCH  16  17
ENDBRANCH  15  16
ENDBRANCH  11  15
ENDBRANCH   8   9
ENDBRANCH   6   8
BRANCH   3  23
HETATM   23  C   UNL     1       6.097  32.874  61.602  1.00  0.00     0.039 A 
HETATM   24  C   UNL     1       6.547  34.183  61.808  1.00  0.00     0.033 A 
HETATM   25  C   UNL     1       5.791  35.066  62.584  1.00  0.00     0.039 A 
HETATM   26  C   UNL     1       4.584  34.661  63.159  1.00  0.00     0.068 A 
HETATM   27  C   UNL     1       4.137  33.356  62.952  1.00  0.00     0.039 A 
HETATM   28  C   UNL     1       4.890  32.464  62.179  1.00  0.00     0.033 A 
BRANCH  26  29
HETATM   29  O   UNL     1       3.950  35.626  63.890  1.00  0.00    -0.356 OA
HETATM   30  C   UNL     1       4.669  36.829  64.129  1.00  0.00     0.210 C 
ENDBRANCH  26  29
ENDBRANCH   3  23
TORSDOF 7
ENDMDL
MODEL 9
REMARK VINA RESULT:      -8.5      2.547      4.298
REMARK  7 active torsions:
REMARK  status: ('A' for Active; 'I' for Inactive)
REMARK    1  A    between atoms: N_3  and  C_4 
REMARK    2  A    between atoms: C_7  and  O_8 
REMARK    3  A    between atoms: C_14  and  C_15 
REMARK    4  A    between atoms: C_15  and  N_16 
REMARK       I    between atoms: N_16  and  C_17 
REMARK       I    between atoms: C_17  and  N_18 
REMARK    5  A    between atoms: N_18  and  C_19 
REMARK    6  A    between atoms: C_19  and  C_20 
REMARK    7  A    between atoms: C_20  and  C_21 
ROOT
HETATM    1  C   UNL     1       4.996  28.878  52.084  1.00  0.00     0.068 C 
HETATM    2  C   UNL     1       4.847  28.797  53.565  1.00  0.00     0.014 A 
HETATM    3  N   UNL     1       5.285  27.736  54.356  1.00  0.00    -0.319 N 
HETATM    4  C   UNL     1       5.032  28.065  55.689  1.00  0.00     0.021 A 
HETATM    5  C   UNL     1       5.238  27.122  56.833  1.00  0.00     0.069 C 
HETATM    6  C   UNL     1       4.497  29.347  55.740  1.00  0.00    -0.016 A 
HETATM    7  C   UNL     1       4.360  29.783  54.401  1.00  0.00     0.035 A 
ENDROOT
BRANCH   6   8
HETATM    8  C   UNL     1       4.107  30.121  56.953  1.00  0.00     0.165 C 
BRANCH   8   9
HETATM    9  N   UNL     1       4.684  31.441  56.870  1.00  0.00    -0.339 N 
HETATM   10  C   UNL     1       5.502  32.028  57.780  1.00  0.00     0.316 C 
HETATM   11  N   UNL     1       6.024  31.197  58.728  1.00  0.00    -0.343 N 
HETATM   12  O   UNL     1       5.714  33.235  57.735  1.00  0.00    -0.248 OA
HETATM   13  H   UNL     1       6.219  30.265  58.395  1.00  0.00     0.164 HD
HETATM   14  H   UNL     1       4.259  32.102  56.233  1.00  0.00     0.164 HD
BRANCH  11  15
HETATM   15  C   UNL     1       6.973  31.712  59.699  1.00  0.00     0.129 C 
BRANCH  15  16
HETATM   16  C   UNL     1       8.100  30.720  59.998  1.00  0.00     0.058 C 
BRANCH  16  17
HETATM   17  C   UNL     1       8.884  30.303  58.773  1.00  0.00    -0.057 A 
HETATM   18  C   UNL     1       8.465  29.222  57.985  1.00  0.00     0.007 A 
HETATM   19  C   UNL     1       9.203  28.833  56.867  1.00  0.00     0.001 A 
HETATM   20  C   UNL     1      10.364  29.522  56.520  1.00  0.00     0.000 A 
HETATM   21  C   UNL     1      10.785  30.605  57.290  1.00  0.00     0.001 A 
HETATM   22  C   UNL     1      10.049  30.994  58.411  1.00  0.00     0.007 A 
ENDBRANCH  16  17
ENDBRANCH  15  16
ENDBRANCH  11  15
ENDBRANCH   8   9
ENDBRANCH   6   8
BRANCH   3  23
HETATM   23  C   UNL     1       5.901  26.538  53.888  1.00  0.00     0.039 A 
HETATM   24  C   UNL     1       7.295  26.417  53.901  1.00  0.00     0.033 A 
HETATM   25  C   UNL     1       7.897  25.244  53.438  1.00  0.00     0.039 A 
HETATM   26  C   UNL     1       7.124  24.183  52.963  1.00  0.00     0.068 A 
HETATM   27  C   UNL     1       5.735  24.305  52.950  1.00  0.00     0.039 A 
HETATM   28  C   UNL     1       5.124  25.479  53.409  1.00  0.00     0.033 A 
BRANCH  26  29
HETATM   29  O   UNL     1       7.843  23.098  52.544  1.00  0.00    -0.356 OA
HETATM   30  C   UNL     1       8.029  22.047  53.484  1.00  0.00     0.210 C 
ENDBRANCH  26  29
ENDBRANCH   3  23
TORSDOF 7
ENDMDL
MODEL 10
REMARK VINA RESULT:      -8.4      5.664      9.777
REMARK  7 active torsions:
REMARK  status: ('A' for Active; 'I' for Inactive)
REMARK    1  A    between atoms: N_3  and  C_4 
REMARK    2  A    between atoms: C_7  and  O_8 
REMARK    3  A    between atoms: C_14  and  C_15 
REMARK    4  A    between atoms: C_15  and  N_16 
REMARK       I    between atoms: N_16  and  C_17 
REMARK       I    between atoms: C_17  and  N_18 
REMARK    5  A    between atoms: N_18  and  C_19 
REMARK    6  A    between atoms: C_19  and  C_20 
REMARK    7  A    between atoms: C_20  and  C_21 
ROOT
HETATM    1  C   UNL     1       7.926  27.005  55.989  1.00  0.00     0.068 C 
HETATM    2  C   UNL     1       7.104  27.096  54.748  1.00  0.00     0.014 A 
HETATM    3  N   UNL     1       6.784  26.022  53.921  1.00  0.00    -0.319 N 
HETATM    4  C   UNL     1       5.945  26.496  52.910  1.00  0.00     0.021 A 
HETATM    5  C   UNL     1       5.492  25.671  51.747  1.00  0.00     0.069 C 
HETATM    6  C   UNL     1       5.691  27.844  53.137  1.00  0.00    -0.016 A 
HETATM    7  C   UNL     1       6.446  28.214  54.274  1.00  0.00     0.035 A 
ENDROOT
BRANCH   6   8
HETATM    8  C   UNL     1       4.821  28.751  52.335  1.00  0.00     0.165 C 
BRANCH   8   9
HETATM    9  N   UNL     1       5.649  29.739  51.684  1.00  0.00    -0.339 N 
HETATM   10  C   UNL     1       5.481  30.247  50.437  1.00  0.00     0.316 C 
HETATM   11  N   UNL     1       4.276  29.987  49.852  1.00  0.00    -0.343 N 
HETATM   12  O   UNL     1       6.385  30.873  49.896  1.00  0.00    -0.248 OA
HETATM   13  H   UNL     1       3.502  29.957  50.498  1.00  0.00     0.164 HD
HETATM   14  H   UNL     1       6.580  29.888  52.052  1.00  0.00     0.164 HD
BRANCH  11  15
HETATM   15  C   UNL     1       3.966  30.553  48.551  1.00  0.00     0.129 C 
BRANCH  15  16
HETATM   16  C   UNL     1       4.385  29.636  47.399  1.00  0.00     0.058 C 
BRANCH  16  17
HETATM   17  C   UNL     1       3.800  28.243  47.487  1.00  0.00    -0.057 A 
HETATM   18  C   UNL     1       4.614  27.140  47.778  1.00  0.00     0.007 A 
HETATM   19  C   UNL     1       4.070  25.856  47.841  1.00  0.00     0.001 A 
HETATM   20  C   UNL     1       2.708  25.662  47.620  1.00  0.00     0.000 A 
HETATM   21  C   UNL     1       1.887  26.752  47.341  1.00  0.00     0.001 A 
HETATM   22  C   UNL     1       2.430  28.037  47.274  1.00  0.00     0.007 A 
ENDBRANCH  16  17
ENDBRANCH  15  16
ENDBRANCH  11  15
ENDBRANCH   8   9
ENDBRANCH   6   8
BRANCH   3  23
HETATM   23  C   UNL     1       7.217  24.674  54.089  1.00  0.00     0.039 A 
HETATM   24  C   UNL     1       7.981  24.055  53.093  1.00  0.00     0.033 A 
HETATM   25  C   UNL     1       8.401  22.732  53.257  1.00  0.00     0.039 A 
HETATM   26  C   UNL     1       8.071  22.015  54.410  1.00  0.00     0.068 A 
HETATM   27  C   UNL     1       7.310  22.634  55.402  1.00  0.00     0.039 A 
HETATM   28  C   UNL     1       6.883  23.958  55.242  1.00  0.00     0.033 A 
BRANCH  26  29
HETATM   29  O   UNL     1       8.549  20.734  54.439  1.00  0.00    -0.356 OA
HETATM   30  C   UNL     1       8.991  20.241  55.697  1.00  0.00     0.210 C 
ENDBRANCH  26  29
ENDBRANCH   3  23
TORSDOF 7
ENDMDL
