MODEL 1
REMARK VINA RESULT:     -10.8      0.000      0.000
REMARK  7 active torsions:
REMARK  status: ('A' for Active; 'I' for Inactive)
REMARK    1  A    between atoms: C_3  and  C_4 
REMARK    2  A    between atoms: C_4  and  S_5 
REMARK    3  A    between atoms: S_5  and  C_6 
REMARK    4  A    between atoms: C_6  and  C_7 
REMARK    5  A    between atoms: C_16  and  C_17 
REMARK       I    between atoms: C_17  and  N_18 
REMARK    6  A    between atoms: N_18  and  C_19 
REMARK    7  A    between atoms: C_19  and  C_20 
ROOT
HETATM    1  C   UNL     1       8.722  30.326  58.820  1.00  0.00     0.162 C 
HETATM    2  N   UNL     1       7.310  30.105  58.421  1.00  0.00    -0.277 NA
HETATM    3  C   UNL     1       7.130  29.002  57.563  1.00  0.00     0.036 A 
HETATM    4  C   UNL     1       8.159  28.528  56.731  1.00  0.00     0.057 A 
HETATM    5  N   UNL     1       9.411  29.156  56.757  1.00  0.00    -0.324 N 
HETATM    6  C   UNL     1       9.719  30.146  57.658  1.00  0.00     0.240 C 
HETATM    7  O   UNL     1      10.786  30.752  57.575  1.00  0.00    -0.271 OA
HETATM    8  C   UNL     1       5.853  28.453  57.433  1.00  0.00     0.027 A 
HETATM    9  C   UNL     1       5.627  27.389  56.558  1.00  0.00     0.019 A 
HETATM   10  C   UNL     1       6.676  26.876  55.783  1.00  0.00     0.034 A 
HETATM   11  C   UNL     1       7.941  27.471  55.845  1.00  0.00     0.048 A 
HETATM   12  H   UNL     1       6.912  30.940  57.988  1.00  0.00     0.128 HD
HETATM   13  H   UNL     1      10.113  28.943  56.061  1.00  0.00     0.169 HD
ENDROOT
BRANCH  10  14
HETATM   14  C   UNL     1       6.395  25.707  54.903  1.00  0.00     0.252 C 
HETATM   15  N   UNL     1       7.460  24.872  54.643  1.00  0.00    -0.353 N 
HETATM   16  H   UNL     1       8.282  24.947  55.226  1.00  0.00     0.163 HD
HETATM   17  O   UNL     1       5.258  25.503  54.493  1.00  0.00    -0.268 OA
BRANCH  15  18
HETATM   18  C   UNL     1       7.257  23.591  54.002  1.00  0.00     0.163 C 
BRANCH  18  19
HETATM   19  C   UNL     1       7.751  22.455  54.861  1.00  0.00    -0.019 A 
HETATM   20  C   UNL     1       8.012  21.171  54.354  1.00  0.00     0.042 A 
HETATM   21 CL   UNL     1       7.762  20.784  52.687  1.00  0.00    -0.084 Cl
HETATM   22  C   UNL     1       8.474  20.152  55.193  1.00  0.00     0.024 A 
HETATM   23  C   UNL     1       8.684  20.402  56.549  1.00  0.00     0.002 A 
HETATM   24  C   UNL     1       8.429  21.668  57.067  1.00  0.00     0.001 A 
HETATM   25  C   UNL     1       7.964  22.685  56.232  1.00  0.00     0.010 A 
ENDBRANCH  18  19
ENDBRANCH  15  18
ENDBRANCH  10  14
BRANCH   1  26
HETATM   26  C   UNL     1       8.920  31.708  59.468  1.00  0.00     0.103 C 
BRANCH  26  27
HETATM   27  S   UNL     1       9.380  31.697  61.245  1.00  0.00    -0.162 SA
BRANCH  27  28
HETATM   28  C   UNL     1       7.749  31.360  61.983  1.00  0.00     0.112 C 
BRANCH  28  29
HETATM   29  C   UNL     1       7.238  32.533  62.789  1.00  0.00    -0.043 A 
HETATM   30  C   UNL     1       6.253  33.417  62.293  1.00  0.00    -0.055 A 
HETATM   31  C   UNL     1       5.635  33.246  60.930  1.00  0.00     0.049 C 
HETATM   32  C   UNL     1       5.795  34.462  63.113  1.00  0.00     0.007 A 
HETATM   33  C   UNL     1       6.319  34.653  64.391  1.00  0.00     0.001 A 
HETATM   34  C   UNL     1       7.309  33.802  64.870  1.00  0.00     0.001 A 
HETATM   35  C   UNL     1       7.765  32.751  64.075  1.00  0.00     0.008 A 
ENDBRANCH  28  29
ENDBRANCH  27  28
ENDBRANCH  26  27
ENDBRANCH   1  26
TORSDOF 7
ENDMDL
MODEL 2
REMARK VINA RESULT:     -10.6      4.158     10.968
REMARK  7 active torsions:
REMARK  status: ('A' for Active; 'I' for Inactive)
REMARK    1  A    between atoms: C_3  and  C_4 
REMARK    2  A    between atoms: C_4  and  S_5 
REMARK    3  A    between atoms: S_5  and  C_6 
REMARK    4  A    between atoms: C_6  and  C_7 
REMARK    5  A    between atoms: C_16  and  C_17 
REMARK       I    between atoms: C_17  and  N_18 
REMARK    6  A    between atoms: N_18  and  C_19 
REMARK    7  A    between atoms: C_19  and  C_20 
ROOT
HETATM    1  C   UNL     1       6.784  27.028  54.509  1.00  0.00     0.162 C 
HETATM    2  N   UNL     1       7.656  27.510  55.609  1.00  0.00    -0.277 NA
HETATM    3  C   UNL     1       7.132  28.617  56.304  1.00  0.00     0.036 A 
HETATM    4  C   UNL     1       6.224  29.511  55.709  1.00  0.00     0.057 A 
HETATM    5  N   UNL     1       5.811  29.295  54.388  1.00  0.00    -0.324 N 
HETATM    6  C   UNL     1       6.160  28.170  53.682  1.00  0.00     0.240 C 
HETATM    7  O   UNL     1       5.876  28.071  52.490  1.00  0.00    -0.271 OA
HETATM    8  C   UNL     1       7.636  28.914  57.572  1.00  0.00     0.027 A 
HETATM    9  C   UNL     1       7.173  30.031  58.272  1.00  0.00     0.019 A 
HETATM   10  C   UNL     1       6.215  30.878  57.699  1.00  0.00     0.034 A 
HETATM   11  C   UNL     1       5.763  30.636  56.396  1.00  0.00     0.048 A 
HETATM   12  H   UNL     1       8.592  27.735  55.268  1.00  0.00     0.128 HD
HETATM   13  H   UNL     1       5.291  30.002  53.885  1.00  0.00     0.169 HD
ENDROOT
BRANCH  10  14
HETATM   14  C   UNL     1       5.716  32.026  58.507  1.00  0.00     0.252 C 
HETATM   15  N   UNL     1       5.302  31.732  59.788  1.00  0.00    -0.353 N 
HETATM   16  H   UNL     1       5.568  30.843  60.187  1.00  0.00     0.163 HD
HETATM   17  O   UNL     1       5.734  33.160  58.043  1.00  0.00    -0.268 OA
BRANCH  15  18
HETATM   18  C   UNL     1       5.023  32.789  60.735  1.00  0.00     0.163 C 
BRANCH  18  19
HETATM   19  C   UNL     1       6.025  32.807  61.861  1.00  0.00    -0.019 A 
HETATM   20  C   UNL     1       5.725  33.293  63.144  1.00  0.00     0.042 A 
HETATM   21 CL   UNL     1       4.168  33.938  63.531  1.00  0.00    -0.084 Cl
HETATM   22  C   UNL     1       6.691  33.283  64.156  1.00  0.00     0.024 A 
HETATM   23  C   UNL     1       7.968  32.785  63.900  1.00  0.00     0.002 A 
HETATM   24  C   UNL     1       8.282  32.301  62.634  1.00  0.00     0.001 A 
HETATM   25  C   UNL     1       7.321  32.314  61.622  1.00  0.00     0.010 A 
ENDBRANCH  18  19
ENDBRANCH  15  18
ENDBRANCH  10  14
BRANCH   1  26
HETATM   26  C   UNL     1       7.528  26.055  53.578  1.00  0.00     0.103 C 
BRANCH  26  27
HETATM   27  S   UNL     1       6.652  24.487  53.198  1.00  0.00    -0.162 SA
BRANCH  27  28
HETATM   28  C   UNL     1       8.078  23.363  53.063  1.00  0.00     0.112 C 
BRANCH  28  29
HETATM   29  C   UNL     1       8.187  22.438  54.254  1.00  0.00    -0.043 A 
HETATM   30  C   UNL     1       8.276  21.035  54.115  1.00  0.00    -0.055 A 
HETATM   31  C   UNL     1       8.280  20.362  52.768  1.00  0.00     0.049 C 
HETATM   32  C   UNL     1       8.415  20.240  55.265  1.00  0.00     0.007 A 
HETATM   33  C   UNL     1       8.438  20.813  56.535  1.00  0.00     0.001 A 
HETATM   34  C   UNL     1       8.321  22.191  56.677  1.00  0.00     0.001 A 
HETATM   35  C   UNL     1       8.196  22.998  55.546  1.00  0.00     0.008 A 
ENDBRANCH  28  29
ENDBRANCH  27  28
ENDBRANCH  26  27
ENDBRANCH   1  26
TORSDOF 7
ENDMDL
MODEL 3
REMARK VINA RESULT:     -10.4      3.946     11.320
REMARK  7 active torsions:
REMARK  status: ('A' for Active; 'I' for Inactive)
REMARK    1  A    between atoms: C_3  and  C_4 
REMARK    2  A    between atoms: C_4  and  S_5 
REMARK    3  A    between atoms: S_5  and  C_6 
REMARK    4  A    between atoms: C_6  and  C_7 
REMARK    5  A    between atoms: C_16  and  C_17 
REMARK       I    between atoms: C_17  and  N_18 
REMARK    6  A    between atoms: N_18  and  C_19 
REMARK    7  A    between atoms: C_19  and  C_20 
ROOT
HETATM    1  C   UNL     1       6.491  27.385  55.100  1.00  0.00     0.162 C 
HETATM    2  N   UNL     1       7.822  28.014  55.293  1.00  0.00    -0.277 NA
HETATM    3  C   UNL     1       7.873  28.910  56.379  1.00  0.00     0.036 A 
HETATM    4  C   UNL     1       6.727  29.572  56.855  1.00  0.00     0.057 A 
HETATM    5  N   UNL     1       5.489  29.330  56.246  1.00  0.00    -0.324 N 
HETATM    6  C   UNL     1       5.320  28.373  55.276  1.00  0.00     0.240 C 
HETATM    7  O   UNL     1       4.247  28.269  54.685  1.00  0.00    -0.271 OA
HETATM    8  C   UNL     1       9.118  29.257  56.906  1.00  0.00     0.027 A 
HETATM    9  C   UNL     1       9.210  30.177  57.953  1.00  0.00     0.019 A 
HETATM   10  C   UNL     1       8.055  30.780  58.469  1.00  0.00     0.034 A 
HETATM   11  C   UNL     1       6.810  30.501  57.894  1.00  0.00     0.048 A 
HETATM   12  H   UNL     1       8.134  28.490  54.446  1.00  0.00     0.128 HD
HETATM   13  H   UNL     1       4.685  29.906  56.458  1.00  0.00     0.169 HD
ENDROOT
BRANCH  10  14
HETATM   14  C   UNL     1       8.203  31.715  59.619  1.00  0.00     0.252 C 
HETATM   15  N   UNL     1       7.400  31.466  60.711  1.00  0.00    -0.353 N 
HETATM   16  H   UNL     1       6.947  30.566  60.779  1.00  0.00     0.163 HD
HETATM   17  O   UNL     1       9.036  32.613  59.580  1.00  0.00    -0.268 OA
BRANCH  15  18
HETATM   18  C   UNL     1       7.620  32.157  61.963  1.00  0.00     0.163 C 
BRANCH  18  19
HETATM   19  C   UNL     1       6.568  33.208  62.211  1.00  0.00    -0.019 A 
HETATM   20  C   UNL     1       6.465  33.917  63.419  1.00  0.00     0.042 A 
HETATM   21 CL   UNL     1       7.540  33.621  64.741  1.00  0.00    -0.084 Cl
HETATM   22  C   UNL     1       5.472  34.885  63.597  1.00  0.00     0.024 A 
HETATM   23  C   UNL     1       4.570  35.160  62.569  1.00  0.00     0.002 A 
HETATM   24  C   UNL     1       4.656  34.465  61.367  1.00  0.00     0.001 A 
HETATM   25  C   UNL     1       5.644  33.496  61.189  1.00  0.00     0.010 A 
ENDBRANCH  18  19
ENDBRANCH  15  18
ENDBRANCH  10  14
BRANCH   1  26
HETATM   26  C   UNL     1       6.385  26.688  53.732  1.00  0.00     0.103 C 
BRANCH  26  27
HETATM   27  S   UNL     1       6.160  24.867  53.780  1.00  0.00    -0.162 SA
BRANCH  27  28
HETATM   28  C   UNL     1       7.882  24.337  53.513  1.00  0.00     0.112 C 
BRANCH  28  29
HETATM   29  C   UNL     1       8.104  22.900  53.925  1.00  0.00    -0.043 A 
HETATM   30  C   UNL     1       8.506  22.543  55.232  1.00  0.00    -0.055 A 
HETATM   31  C   UNL     1       8.731  23.570  56.310  1.00  0.00     0.049 C 
HETATM   32  C   UNL     1       8.655  21.184  55.556  1.00  0.00     0.007 A 
HETATM   33  C   UNL     1       8.440  20.191  54.601  1.00  0.00     0.001 A 
HETATM   34  C   UNL     1       8.072  20.541  53.307  1.00  0.00     0.001 A 
HETATM   35  C   UNL     1       7.906  21.884  52.971  1.00  0.00     0.008 A 
ENDBRANCH  28  29
ENDBRANCH  27  28
ENDBRANCH  26  27
ENDBRANCH   1  26
TORSDOF 7
ENDMDL
MODEL 4
REMARK VINA RESULT:     -10.0      1.873      2.596
REMARK  7 active torsions:
REMARK  status: ('A' for Active; 'I' for Inactive)
REMARK    1  A    between atoms: C_3  and  C_4 
REMARK    2  A    between atoms: C_4  and  S_5 
REMARK    3  A    between atoms: S_5  and  C_6 
REMARK    4  A    between atoms: C_6  and  C_7 
REMARK    5  A    between atoms: C_16  and  C_17 
REMARK       I    between atoms: C_17  and  N_18 
REMARK    6  A    between atoms: N_18  and  C_19 
REMARK    7  A    between atoms: C_19  and  C_20 
ROOT
HETATM    1  C   UNL     1       5.860  31.411  58.722  1.00  0.00     0.162 C 
HETATM    2  N   UNL     1       5.088  30.637  57.719  1.00  0.00    -0.277 NA
HETATM    3  C   UNL     1       5.567  29.327  57.521  1.00  0.00     0.036 A 
HETATM    4  C   UNL     1       6.905  28.976  57.775  1.00  0.00     0.057 A 
HETATM    5  N   UNL     1       7.794  29.948  58.251  1.00  0.00    -0.324 N 
HETATM    6  C   UNL     1       7.384  31.211  58.603  1.00  0.00     0.240 C 
HETATM    7  O   UNL     1       8.210  32.071  58.906  1.00  0.00    -0.271 OA
HETATM    8  C   UNL     1       4.726  28.386  56.925  1.00  0.00     0.027 A 
HETATM    9  C   UNL     1       5.182  27.090  56.672  1.00  0.00     0.019 A 
HETATM   10  C   UNL     1       6.497  26.729  56.993  1.00  0.00     0.034 A 
HETATM   11  C   UNL     1       7.374  27.686  57.516  1.00  0.00     0.048 A 
HETATM   12  H   UNL     1       5.052  31.124  56.822  1.00  0.00     0.128 HD
HETATM   13  H   UNL     1       8.788  29.768  58.288  1.00  0.00     0.169 HD
ENDROOT
BRANCH  10  14
HETATM   14  C   UNL     1       6.919  25.320  56.751  1.00  0.00     0.252 C 
HETATM   15  N   UNL     1       8.267  25.116  56.551  1.00  0.00    -0.353 N 
HETATM   16  H   UNL     1       8.908  25.855  56.806  1.00  0.00     0.163 HD
HETATM   17  O   UNL     1       6.094  24.416  56.784  1.00  0.00    -0.268 OA
BRANCH  15  18
HETATM   18  C   UNL     1       8.819  23.779  56.541  1.00  0.00     0.163 C 
BRANCH  18  19
HETATM   19  C   UNL     1       8.475  23.046  55.269  1.00  0.00    -0.019 A 
HETATM   20  C   UNL     1       8.353  21.647  55.202  1.00  0.00     0.042 A 
HETATM   21 CL   UNL     1       8.612  20.645  56.587  1.00  0.00    -0.084 Cl
HETATM   22  C   UNL     1       8.028  21.016  53.997  1.00  0.00     0.024 A 
HETATM   23  C   UNL     1       7.817  21.772  52.845  1.00  0.00     0.002 A 
HETATM   24  C   UNL     1       7.936  23.157  52.894  1.00  0.00     0.001 A 
HETATM   25  C   UNL     1       8.264  23.789  54.094  1.00  0.00     0.010 A 
ENDBRANCH  18  19
ENDBRANCH  15  18
ENDBRANCH  10  14
BRANCH   1  26
HETATM   26  C   UNL     1       5.525  32.912  58.664  1.00  0.00     0.103 C 
BRANCH  26  27
HETATM   27  S   UNL     1       5.079  33.691  60.265  1.00  0.00    -0.162 SA
BRANCH  27  28
HETATM   28  C   UNL     1       5.504  32.331  61.398  1.00  0.00     0.112 C 
BRANCH  28  29
HETATM   29  C   UNL     1       5.933  32.836  62.757  1.00  0.00    -0.043 A 
HETATM   30  C   UNL     1       7.266  32.736  63.213  1.00  0.00    -0.055 A 
HETATM   31  C   UNL     1       8.358  32.129  62.372  1.00  0.00     0.049 C 
HETATM   32  C   UNL     1       7.601  33.263  64.472  1.00  0.00     0.007 A 
HETATM   33  C   UNL     1       6.634  33.854  65.283  1.00  0.00     0.001 A 
HETATM   34  C   UNL     1       5.315  33.927  64.848  1.00  0.00     0.001 A 
HETATM   35  C   UNL     1       4.967  33.422  63.596  1.00  0.00     0.008 A 
ENDBRANCH  28  29
ENDBRANCH  27  28
ENDBRANCH  26  27
ENDBRANCH   1  26
TORSDOF 7
ENDMDL
MODEL 5
REMARK VINA RESULT:      -9.8      4.533     10.962
REMARK  7 active torsions:
REMARK  status: ('A' for Active; 'I' for Inactive)
REMARK    1  A    between atoms: C_3  and  C_4 
REMARK    2  A    between atoms: C_4  and  S_5 
REMARK    3  A    between atoms: S_5  and  C_6 
REMARK    4  A    between atoms: C_6  and  C_7 
REMARK    5  A    between atoms: C_16  and  C_17 
REMARK       I    between atoms: C_17  and  N_18 
REMARK    6  A    between atoms: N_18  and  C_19 
REMARK    7  A    between atoms: C_19  and  C_20 
ROOT
HETATM    1  C   UNL     1       5.556  27.959  53.782  1.00  0.00     0.162 C 
HETATM    2  N   UNL     1       6.488  28.820  54.550  1.00  0.00    -0.277 NA
HETATM    3  C   UNL     1       5.892  29.455  55.658  1.00  0.00     0.036 A 
HETATM    4  C   UNL     1       4.512  29.720  55.712  1.00  0.00     0.057 A 
HETATM    5  N   UNL     1       3.693  29.335  54.643  1.00  0.00    -0.324 N 
HETATM    6  C   UNL     1       4.163  28.591  53.588  1.00  0.00     0.240 C 
HETATM    7  O   UNL     1       3.445  28.371  52.614  1.00  0.00    -0.271 OA
HETATM    8  C   UNL     1       6.714  29.959  56.667  1.00  0.00     0.027 A 
HETATM    9  C   UNL     1       6.161  30.634  57.758  1.00  0.00     0.019 A 
HETATM   10  C   UNL     1       4.777  30.833  57.838  1.00  0.00     0.034 A 
HETATM   11  C   UNL     1       3.951  30.404  56.793  1.00  0.00     0.048 A 
HETATM   12  H   UNL     1       6.923  29.523  53.951  1.00  0.00     0.128 HD
HETATM   13  H   UNL     1       2.736  29.653  54.581  1.00  0.00     0.169 HD
ENDROOT
BRANCH  10  14
HETATM   14  C   UNL     1       4.232  31.514  59.047  1.00  0.00     0.252 C 
HETATM   15  N   UNL     1       5.157  31.919  59.984  1.00  0.00    -0.353 N 
HETATM   16  H   UNL     1       6.131  31.955  59.714  1.00  0.00     0.163 HD
HETATM   17  O   UNL     1       3.030  31.727  59.144  1.00  0.00    -0.268 OA
BRANCH  15  18
HETATM   18  C   UNL     1       4.773  32.789  61.074  1.00  0.00     0.163 C 
BRANCH  18  19
HETATM   19  C   UNL     1       5.845  32.862  62.131  1.00  0.00    -0.019 A 
HETATM   20  C   UNL     1       5.641  33.457  63.387  1.00  0.00     0.042 A 
HETATM   21 CL   UNL     1       4.129  34.180  63.816  1.00  0.00    -0.084 Cl
HETATM   22  C   UNL     1       6.669  33.496  64.335  1.00  0.00     0.024 A 
HETATM   23  C   UNL     1       7.913  32.938  64.043  1.00  0.00     0.002 A 
HETATM   24  C   UNL     1       8.132  32.347  62.802  1.00  0.00     0.001 A 
HETATM   25  C   UNL     1       7.109  32.311  61.854  1.00  0.00     0.010 A 
ENDBRANCH  18  19
ENDBRANCH  15  18
ENDBRANCH  10  14
BRANCH   1  26
HETATM   26  C   UNL     1       6.143  27.561  52.417  1.00  0.00     0.103 C 
BRANCH  26  27
HETATM   27  S   UNL     1       6.475  25.770  52.184  1.00  0.00    -0.162 SA
BRANCH  27  28
HETATM   28  C   UNL     1       7.502  25.454  53.654  1.00  0.00     0.112 C 
BRANCH  28  29
HETATM   29  C   UNL     1       7.644  23.976  53.940  1.00  0.00    -0.043 A 
HETATM   30  C   UNL     1       7.569  23.450  55.250  1.00  0.00    -0.055 A 
HETATM   31  C   UNL     1       7.330  24.325  56.452  1.00  0.00     0.049 C 
HETATM   32  C   UNL     1       7.670  22.062  55.437  1.00  0.00     0.007 A 
HETATM   33  C   UNL     1       7.872  21.204  54.357  1.00  0.00     0.001 A 
HETATM   34  C   UNL     1       7.975  21.722  53.070  1.00  0.00     0.001 A 
HETATM   35  C   UNL     1       7.863  23.097  52.864  1.00  0.00     0.008 A 
ENDBRANCH  28  29
ENDBRANCH  27  28
ENDBRANCH  26  27
ENDBRANCH   1  26
TORSDOF 7
ENDMDL
MODEL 6
REMARK VINA RESULT:      -9.7      4.352     11.137
REMARK  7 active torsions:
REMARK  status: ('A' for Active; 'I' for Inactive)
REMARK    1  A    between atoms: C_3  and  C_4 
REMARK    2  A    between atoms: C_4  and  S_5 
REMARK    3  A    between atoms: S_5  and  C_6 
REMARK    4  A    between atoms: C_6  and  C_7 
REMARK    5  A    between atoms: C_16  and  C_17 
REMARK       I    between atoms: C_17  and  N_18 
REMARK    6  A    between atoms: N_18  and  C_19 
REMARK    7  A    between atoms: C_19  and  C_20 
ROOT
HETATM    1  C   UNL     1       6.898  28.280  55.336  1.00  0.00     0.162 C 
HETATM    2  N   UNL     1       5.443  28.432  55.581  1.00  0.00    -0.277 NA
HETATM    3  C   UNL     1       5.128  29.428  56.526  1.00  0.00     0.036 A 
HETATM    4  C   UNL     1       6.035  29.823  57.525  1.00  0.00     0.057 A 
HETATM    5  N   UNL     1       7.299  29.222  57.584  1.00  0.00    -0.324 N 
HETATM    6  C   UNL     1       7.742  28.345  56.625  1.00  0.00     0.240 C 
HETATM    7  O   UNL     1       8.809  27.751  56.771  1.00  0.00    -0.271 OA
HETATM    8  C   UNL     1       3.829  29.938  56.557  1.00  0.00     0.027 A 
HETATM    9  C   UNL     1       3.468  30.894  57.510  1.00  0.00     0.019 A 
HETATM   10  C   UNL     1       4.400  31.333  58.459  1.00  0.00     0.034 A 
HETATM   11  C   UNL     1       5.681  30.770  58.489  1.00  0.00     0.048 A 
HETATM   12  H   UNL     1       5.021  27.548  55.867  1.00  0.00     0.128 HD
HETATM   13  H   UNL     1       7.906  29.367  58.380  1.00  0.00     0.169 HD
ENDROOT
BRANCH  10  14
HETATM   14  C   UNL     1       3.980  32.392  59.421  1.00  0.00     0.252 C 
HETATM   15  N   UNL     1       4.730  32.497  60.572  1.00  0.00    -0.353 N 
HETATM   16  H   UNL     1       5.631  32.041  60.603  1.00  0.00     0.163 HD
HETATM   17  O   UNL     1       3.049  33.139  59.147  1.00  0.00    -0.268 OA
BRANCH  15  18
HETATM   18  C   UNL     1       4.565  33.628  61.460  1.00  0.00     0.163 C 
BRANCH  18  19
HETATM   19  C   UNL     1       5.489  33.540  62.648  1.00  0.00    -0.019 A 
HETATM   20  C   UNL     1       5.094  33.888  63.951  1.00  0.00     0.042 A 
HETATM   21 CL   UNL     1       3.503  34.470  64.293  1.00  0.00    -0.084 Cl
HETATM   22  C   UNL     1       5.990  33.785  65.020  1.00  0.00     0.024 A 
HETATM   23  C   UNL     1       7.291  33.331  64.803  1.00  0.00     0.002 A 
HETATM   24  C   UNL     1       7.698  32.984  63.519  1.00  0.00     0.001 A 
HETATM   25  C   UNL     1       6.807  33.091  62.450  1.00  0.00     0.010 A 
ENDBRANCH  18  19
ENDBRANCH  15  18
ENDBRANCH  10  14
BRANCH   1  26
HETATM   26  C   UNL     1       7.214  26.983  54.570  1.00  0.00     0.103 C 
BRANCH  26  27
HETATM   27  S   UNL     1       6.515  25.444  55.287  1.00  0.00    -0.162 SA
BRANCH  27  28
HETATM   28  C   UNL     1       8.047  24.485  55.509  1.00  0.00     0.112 C 
BRANCH  28  29
HETATM   29  C   UNL     1       7.946  23.105  54.901  1.00  0.00    -0.043 A 
HETATM   30  C   UNL     1       7.936  22.896  53.503  1.00  0.00    -0.055 A 
HETATM   31  C   UNL     1       8.038  24.033  52.521  1.00  0.00     0.049 C 
HETATM   32  C   UNL     1       7.881  21.582  53.008  1.00  0.00     0.007 A 
HETATM   33  C   UNL     1       7.806  20.491  53.873  1.00  0.00     0.001 A 
HETATM   34  C   UNL     1       7.785  20.696  55.248  1.00  0.00     0.001 A 
HETATM   35  C   UNL     1       7.854  21.993  55.758  1.00  0.00     0.008 A 
ENDBRANCH  28  29
ENDBRANCH  27  28
ENDBRANCH  26  27
ENDBRANCH   1  26
TORSDOF 7
ENDMDL
MODEL 7
REMARK VINA RESULT:      -9.6      2.169      3.026
REMARK  7 active torsions:
REMARK  status: ('A' for Active; 'I' for Inactive)
REMARK    1  A    between atoms: C_3  and  C_4 
REMARK    2  A    between atoms: C_4  and  S_5 
REMARK    3  A    between atoms: S_5  and  C_6 
REMARK    4  A    between atoms: C_6  and  C_7 
REMARK    5  A    between atoms: C_16  and  C_17 
REMARK       I    between atoms: C_17  and  N_18 
REMARK    6  A    between atoms: N_18  and  C_19 
REMARK    7  A    between atoms: C_19  and  C_20 
ROOT
HETATM    1  C   UNL     1       7.342  31.543  59.994  1.00  0.00     0.162 C 
HETATM    2  N   UNL     1       6.696  32.101  58.780  1.00  0.00    -0.277 NA
HETATM    3  C   UNL     1       6.309  31.122  57.843  1.00  0.00     0.036 A 
HETATM    4  C   UNL     1       6.943  29.869  57.768  1.00  0.00     0.057 A 
HETATM    5  N   UNL     1       7.985  29.570  58.655  1.00  0.00    -0.324 N 
HETATM    6  C   UNL     1       8.336  30.406  59.686  1.00  0.00     0.240 C 
HETATM    7  O   UNL     1       9.328  30.164  60.372  1.00  0.00    -0.271 OA
HETATM    8  C   UNL     1       5.364  31.458  56.872  1.00  0.00     0.027 A 
HETATM    9  C   UNL     1       4.989  30.527  55.900  1.00  0.00     0.019 A 
HETATM   10  C   UNL     1       5.576  29.255  55.875  1.00  0.00     0.034 A 
HETATM   11  C   UNL     1       6.583  28.936  56.793  1.00  0.00     0.048 A 
HETATM   12  H   UNL     1       7.297  32.788  58.323  1.00  0.00     0.128 HD
HETATM   13  H   UNL     1       8.561  28.750  58.520  1.00  0.00     0.169 HD
ENDROOT
BRANCH  10  14
HETATM   14  C   UNL     1       5.105  28.283  54.849  1.00  0.00     0.252 C 
HETATM   15  N   UNL     1       5.910  27.184  54.640  1.00  0.00    -0.353 N 
HETATM   16  H   UNL     1       6.620  26.971  55.326  1.00  0.00     0.163 HD
HETATM   17  O   UNL     1       4.034  28.457  54.280  1.00  0.00    -0.268 OA
BRANCH  15  18
HETATM   18  C   UNL     1       5.443  26.066  53.848  1.00  0.00     0.163 C 
BRANCH  18  19
HETATM   19  C   UNL     1       6.407  24.909  53.898  1.00  0.00    -0.019 A 
HETATM   20  C   UNL     1       6.732  24.235  55.088  1.00  0.00     0.042 A 
HETATM   21 CL   UNL     1       6.057  24.703  56.610  1.00  0.00    -0.084 Cl
HETATM   22  C   UNL     1       7.631  23.164  55.080  1.00  0.00     0.024 A 
HETATM   23  C   UNL     1       8.215  22.748  53.884  1.00  0.00     0.002 A 
HETATM   24  C   UNL     1       7.906  23.405  52.697  1.00  0.00     0.001 A 
HETATM   25  C   UNL     1       7.012  24.478  52.704  1.00  0.00     0.010 A 
ENDBRANCH  18  19
ENDBRANCH  15  18
ENDBRANCH  10  14
BRANCH   1  26
HETATM   26  C   UNL     1       8.041  32.638  60.820  1.00  0.00     0.103 C 
BRANCH  26  27
HETATM   27  S   UNL     1       7.804  32.537  62.638  1.00  0.00    -0.162 SA
BRANCH  27  28
HETATM   28  C   UNL     1       6.442  33.730  62.837  1.00  0.00     0.112 C 
BRANCH  28  29
HETATM   29  C   UNL     1       6.051  33.908  64.286  1.00  0.00    -0.043 A 
HETATM   30  C   UNL     1       4.710  34.099  64.688  1.00  0.00    -0.055 A 
HETATM   31  C   UNL     1       3.573  34.127  63.700  1.00  0.00     0.049 C 
HETATM   32  C   UNL     1       4.414  34.218  66.056  1.00  0.00     0.007 A 
HETATM   33  C   UNL     1       5.426  34.178  67.015  1.00  0.00     0.001 A 
HETATM   34  C   UNL     1       6.750  34.019  66.620  1.00  0.00     0.001 A 
HETATM   35  C   UNL     1       7.060  33.886  65.267  1.00  0.00     0.008 A 
ENDBRANCH  28  29
ENDBRANCH  27  28
ENDBRANCH  26  27
ENDBRANCH   1  26
TORSDOF 7
ENDMDL
MODEL 8
REMARK VINA RESULT:      -9.6      1.681      2.197
REMARK  7 active torsions:
REMARK  status: ('A' for Active; 'I' for Inactive)
REMARK    1  A    between atoms: C_3  and  C_4 
REMARK    2  A    between atoms: C_4  and  S_5 
REMARK    3  A    between atoms: S_5  and  C_6 
REMARK    4  A    between atoms: C_6  and  C_7 
REMARK    5  A    between atoms: C_16  and  C_17 
REMARK       I    between atoms: C_17  and  N_18 
REMARK    6  A    between atoms: N_18  and  C_19 
REMARK    7  A    between atoms: C_19  and  C_20 
ROOT
HETATM    1  C   UNL     1       5.842  31.079  58.247  1.00  0.00     0.162 C 
HETATM    2  N   UNL     1       5.305  30.846  56.883  1.00  0.00    -0.277 NA
HETATM    3  C   UNL     1       5.811  29.686  56.265  1.00  0.00     0.036 A 
HETATM    4  C   UNL     1       7.061  29.141  56.611  1.00  0.00     0.057 A 
HETATM    5  N   UNL     1       7.827  29.755  57.609  1.00  0.00    -0.324 N 
HETATM    6  C   UNL     1       7.355  30.804  58.360  1.00  0.00     0.240 C 
HETATM    7  O   UNL     1       8.097  31.390  59.146  1.00  0.00    -0.271 OA
HETATM    8  C   UNL     1       5.118  29.145  55.181  1.00  0.00     0.027 A 
HETATM    9  C   UNL     1       5.614  28.022  54.514  1.00  0.00     0.019 A 
HETATM   10  C   UNL     1       6.827  27.443  54.911  1.00  0.00     0.034 A 
HETATM   11  C   UNL     1       7.571  28.026  55.943  1.00  0.00     0.048 A 
HETATM   12  H   UNL     1       5.467  31.652  56.278  1.00  0.00     0.128 HD
HETATM   13  H   UNL     1       8.789  29.484  57.765  1.00  0.00     0.169 HD
ENDROOT
BRANCH  10  14
HETATM   14  C   UNL     1       7.287  26.217  54.200  1.00  0.00     0.252 C 
HETATM   15  N   UNL     1       6.851  25.016  54.717  1.00  0.00    -0.353 N 
HETATM   16  H   UNL     1       6.081  25.026  55.371  1.00  0.00     0.163 HD
HETATM   17  O   UNL     1       7.972  26.311  53.190  1.00  0.00    -0.268 OA
BRANCH  15  18
HETATM   18  C   UNL     1       7.037  23.784  53.982  1.00  0.00     0.163 C 
BRANCH  18  19
HETATM   19  C   UNL     1       7.609  22.697  54.856  1.00  0.00    -0.019 A 
HETATM   20  C   UNL     1       7.971  21.431  54.363  1.00  0.00     0.042 A 
HETATM   21 CL   UNL     1       7.768  21.012  52.698  1.00  0.00    -0.084 Cl
HETATM   22  C   UNL     1       8.502  20.458  55.216  1.00  0.00     0.024 A 
HETATM   23  C   UNL     1       8.679  20.736  56.571  1.00  0.00     0.002 A 
HETATM   24  C   UNL     1       8.323  21.983  57.075  1.00  0.00     0.001 A 
HETATM   25  C   UNL     1       7.790  22.954  56.227  1.00  0.00     0.010 A 
ENDBRANCH  18  19
ENDBRANCH  15  18
ENDBRANCH  10  14
BRANCH   1  26
HETATM   26  C   UNL     1       5.532  32.502  58.745  1.00  0.00     0.103 C 
BRANCH  26  27
HETATM   27  S   UNL     1       4.523  32.608  60.275  1.00  0.00    -0.162 SA
BRANCH  27  28
HETATM   28  C   UNL     1       5.199  34.144  60.983  1.00  0.00     0.112 C 
BRANCH  28  29
HETATM   29  C   UNL     1       6.039  33.882  62.212  1.00  0.00    -0.043 A 
HETATM   30  C   UNL     1       5.852  34.591  63.419  1.00  0.00    -0.055 A 
HETATM   31  C   UNL     1       4.793  35.651  63.571  1.00  0.00     0.049 C 
HETATM   32  C   UNL     1       6.644  34.267  64.534  1.00  0.00     0.007 A 
HETATM   33  C   UNL     1       7.625  33.280  64.455  1.00  0.00     0.001 A 
HETATM   34  C   UNL     1       7.831  32.601  63.259  1.00  0.00     0.001 A 
HETATM   35  C   UNL     1       7.045  32.900  62.146  1.00  0.00     0.008 A 
ENDBRANCH  28  29
ENDBRANCH  27  28
ENDBRANCH  26  27
ENDBRANCH   1  26
TORSDOF 7
ENDMDL
MODEL 9
REMARK VINA RESULT:      -9.6      2.406      3.380
REMARK  7 active torsions:
REMARK  status: ('A' for Active; 'I' for Inactive)
REMARK    1  A    between atoms: C_3  and  C_4 
REMARK    2  A    between atoms: C_4  and  S_5 
REMARK    3  A    between atoms: S_5  and  C_6 
REMARK    4  A    between atoms: C_6  and  C_7 
REMARK    5  A    between atoms: C_16  and  C_17 
REMARK       I    between atoms: C_17  and  N_18 
REMARK    6  A    between atoms: N_18  and  C_19 
REMARK    7  A    between atoms: C_19  and  C_20 
ROOT
HETATM    1  C   UNL     1       5.016  31.102  57.231  1.00  0.00     0.162 C 
HETATM    2  N   UNL     1       6.084  30.422  58.004  1.00  0.00    -0.277 NA
HETATM    3  C   UNL     1       6.275  29.074  57.644  1.00  0.00     0.036 A 
HETATM    4  C   UNL     1       5.248  28.302  57.071  1.00  0.00     0.057 A 
HETATM    5  N   UNL     1       3.998  28.886  56.835  1.00  0.00    -0.324 N 
HETATM    6  C   UNL     1       3.763  30.226  57.025  1.00  0.00     0.240 C 
HETATM    7  O   UNL     1       2.625  30.680  56.918  1.00  0.00    -0.271 OA
HETATM    8  C   UNL     1       7.472  28.447  57.995  1.00  0.00     0.027 A 
HETATM    9  C   UNL     1       7.678  27.098  57.694  1.00  0.00     0.019 A 
HETATM   10  C   UNL     1       6.675  26.354  57.059  1.00  0.00     0.034 A 
HETATM   11  C   UNL     1       5.440  26.950  56.777  1.00  0.00     0.048 A 
HETATM   12  H   UNL     1       5.912  30.484  59.009  1.00  0.00     0.128 HD
HETATM   13  H   UNL     1       3.201  28.320  56.577  1.00  0.00     0.169 HD
ENDROOT
BRANCH  10  14
HETATM   14  C   UNL     1       6.963  24.934  56.715  1.00  0.00     0.252 C 
HETATM   15  N   UNL     1       8.292  24.568  56.709  1.00  0.00    -0.353 N 
HETATM   16  H   UNL     1       8.961  25.181  57.153  1.00  0.00     0.163 HD
HETATM   17  O   UNL     1       6.044  24.152  56.503  1.00  0.00    -0.268 OA
BRANCH  15  18
HETATM   18  C   UNL     1       8.675  23.176  56.621  1.00  0.00     0.163 C 
BRANCH  18  19
HETATM   19  C   UNL     1       8.405  22.611  55.249  1.00  0.00    -0.019 A 
HETATM   20  C   UNL     1       8.165  21.246  55.018  1.00  0.00     0.042 A 
HETATM   21 CL   UNL     1       8.180  20.090  56.304  1.00  0.00    -0.084 Cl
HETATM   22  C   UNL     1       7.916  20.773  53.726  1.00  0.00     0.024 A 
HETATM   23  C   UNL     1       7.901  21.657  52.647  1.00  0.00     0.002 A 
HETATM   24  C   UNL     1       8.139  23.011  52.859  1.00  0.00     0.001 A 
HETATM   25  C   UNL     1       8.392  23.485  54.147  1.00  0.00     0.010 A 
ENDBRANCH  18  19
ENDBRANCH  15  18
ENDBRANCH  10  14
BRANCH   1  26
HETATM   26  C   UNL     1       4.616  32.443  57.871  1.00  0.00     0.103 C 
BRANCH  26  27
HETATM   27  S   UNL     1       4.394  32.421  59.694  1.00  0.00    -0.162 SA
BRANCH  27  28
HETATM   28  C   UNL     1       5.679  33.619  60.174  1.00  0.00     0.112 C 
BRANCH  28  29
HETATM   29  C   UNL     1       6.355  33.237  61.471  1.00  0.00    -0.043 A 
HETATM   30  C   UNL     1       7.647  32.668  61.511  1.00  0.00    -0.055 A 
HETATM   31  C   UNL     1       8.448  32.411  60.262  1.00  0.00     0.049 C 
HETATM   32  C   UNL     1       8.229  32.375  62.755  1.00  0.00     0.007 A 
HETATM   33  C   UNL     1       7.540  32.611  63.944  1.00  0.00     0.001 A 
HETATM   34  C   UNL     1       6.256  33.144  63.907  1.00  0.00     0.001 A 
HETATM   35  C   UNL     1       5.668  33.454  62.681  1.00  0.00     0.008 A 
ENDBRANCH  28  29
ENDBRANCH  27  28
ENDBRANCH  26  27
ENDBRANCH   1  26
TORSDOF 7
ENDMDL
MODEL 10
REMARK VINA RESULT:      -9.4      5.857     10.399
REMARK  7 active torsions:
REMARK  status: ('A' for Active; 'I' for Inactive)
REMARK    1  A    between atoms: C_3  and  C_4 
REMARK    2  A    between atoms: C_4  and  S_5 
REMARK    3  A    between atoms: S_5  and  C_6 
REMARK    4  A    between atoms: C_6  and  C_7 
REMARK    5  A    between atoms: C_16  and  C_17 
REMARK       I    between atoms: C_17  and  N_18 
REMARK    6  A    between atoms: N_18  and  C_19 
REMARK    7  A    between atoms: C_19  and  C_20 
ROOT
HETATM    1  C   UNL     1       7.432  26.645  55.339  1.00  0.00     0.162 C 
HETATM    2  N   UNL     1       6.486  25.955  54.427  1.00  0.00    -0.277 NA
HETATM    3  C   UNL     1       6.137  26.713  53.292  1.00  0.00     0.036 A 
HETATM    4  C   UNL     1       6.190  28.119  53.289  1.00  0.00     0.057 A 
HETATM    5  N   UNL     1       6.613  28.795  54.441  1.00  0.00    -0.324 N 
HETATM    6  C   UNL     1       7.101  28.137  55.543  1.00  0.00     0.240 C 
HETATM    7  O   UNL     1       7.354  28.756  56.575  1.00  0.00    -0.271 OA
HETATM    8  C   UNL     1       5.592  26.058  52.187  1.00  0.00     0.027 A 
HETATM    9  C   UNL     1       5.192  26.783  51.062  1.00  0.00     0.019 A 
HETATM   10  C   UNL     1       5.313  28.179  51.041  1.00  0.00     0.034 A 
HETATM   11  C   UNL     1       5.783  28.853  52.173  1.00  0.00     0.048 A 
HETATM   12  H   UNL     1       5.638  25.670  54.918  1.00  0.00     0.128 HD
HETATM   13  H   UNL     1       6.507  29.797  54.522  1.00  0.00     0.169 HD
ENDROOT
BRANCH  10  14
HETATM   14  C   UNL     1       4.920  28.901  49.798  1.00  0.00     0.252 C 
HETATM   15  N   UNL     1       5.268  28.296  48.609  1.00  0.00    -0.353 N 
HETATM   16  H   UNL     1       5.542  27.324  48.627  1.00  0.00     0.163 HD
HETATM   17  O   UNL     1       4.282  29.944  49.867  1.00  0.00    -0.268 OA
BRANCH  15  18
HETATM   18  C   UNL     1       4.740  28.780  47.352  1.00  0.00     0.163 C 
BRANCH  18  19
HETATM   19  C   UNL     1       3.308  28.355  47.151  1.00  0.00    -0.019 A 
HETATM   20  C   UNL     1       2.272  29.264  46.879  1.00  0.00     0.042 A 
HETATM   21 CL   UNL     1       2.560  30.966  46.774  1.00  0.00    -0.084 Cl
HETATM   22  C   UNL     1       0.959  28.818  46.697  1.00  0.00     0.024 A 
HETATM   23  C   UNL     1       0.663  27.458  46.780  1.00  0.00     0.002 A 
HETATM   24  C   UNL     1       1.677  26.544  47.051  1.00  0.00     0.001 A 
HETATM   25  C   UNL     1       2.987  26.988  47.237  1.00  0.00     0.010 A 
ENDBRANCH  18  19
ENDBRANCH  15  18
ENDBRANCH  10  14
BRANCH   1  26
HETATM   26  C   UNL     1       7.522  25.939  56.704  1.00  0.00     0.103 C 
BRANCH  26  27
HETATM   27  S   UNL     1       8.704  24.538  56.799  1.00  0.00    -0.162 SA
BRANCH  27  28
HETATM   28  C   UNL     1       7.548  23.146  56.592  1.00  0.00     0.112 C 
BRANCH  28  29
HETATM   29  C   UNL     1       7.823  22.362  55.329  1.00  0.00    -0.043 A 
HETATM   30  C   UNL     1       8.318  21.039  55.355  1.00  0.00    -0.055 A 
HETATM   31  C   UNL     1       8.596  20.312  56.644  1.00  0.00     0.049 C 
HETATM   32  C   UNL     1       8.513  20.356  54.143  1.00  0.00     0.007 A 
HETATM   33  C   UNL     1       8.253  20.975  52.921  1.00  0.00     0.001 A 
HETATM   34  C   UNL     1       7.793  22.287  52.892  1.00  0.00     0.001 A 
HETATM   35  C   UNL     1       7.581  22.975  54.086  1.00  0.00     0.008 A 
ENDBRANCH  28  29
ENDBRANCH  27  28
ENDBRANCH  26  27
ENDBRANCH   1  26
TORSDOF 7
ENDMDL
