MODEL 1
REMARK VINA RESULT:     -10.5      0.000      0.000
REMARK  5 active torsions:
REMARK  status: ('A' for Active; 'I' for Inactive)
REMARK    1  A    between atoms: C_7  and  C_8 
REMARK    2  A    between atoms: C_16  and  C_17 
REMARK    3  A    between atoms: C_20  and  O_21 
REMARK    4  A    between atoms: C_24  and  C_25 
REMARK       I    between atoms: C_25  and  N_26 
REMARK    5  A    between atoms: N_26  and  C_27 
ROOT
HETATM    1  C   UNL     1       3.255  28.625  52.874  1.00  0.00     0.070 C 
HETATM    2  C   UNL     1       4.312  27.841  53.619  1.00  0.00     0.037 A 
HETATM    3  N   UNL     1       4.735  26.676  52.986  1.00  0.00    -0.192 N 
HETATM    4  C   UNL     1       5.578  25.791  53.541  1.00  0.00     0.726 A 
HETATM    5  N   UNL     1       6.128  26.072  54.755  1.00  0.00    -0.083 N 
HETATM    6  N   UNL     1       6.837  25.031  55.231  1.00  0.00    -0.135 NA
HETATM    7  C   UNL     1       6.770  24.172  54.196  1.00  0.00     0.199 A 
HETATM    8  N   UNL     1       5.983  24.614  53.145  1.00  0.00    -0.041 NA
HETATM    9  C   UNL     1       5.861  27.300  55.514  1.00  0.00     0.202 A 
HETATM   10  C   UNL     1       4.817  28.187  54.837  1.00  0.00     0.062 A 
HETATM   11  H   UNL     1       4.305  26.443  52.094  1.00  0.00     0.184 HD
ENDROOT
BRANCH  10  12
HETATM   12  C   UNL     1       4.395  29.468  55.508  1.00  0.00     0.256 C 
HETATM   13  N   UNL     1       5.086  30.599  55.121  1.00  0.00    -0.323 N 
HETATM   14  H   UNL     1       5.725  30.549  54.344  1.00  0.00     0.169 HD
HETATM   15  O   UNL     1       3.463  29.457  56.307  1.00  0.00    -0.267 OA
BRANCH  13  16
HETATM   16  C   UNL     1       4.957  31.900  55.665  1.00  0.00     0.035 A 
HETATM   17  C   UNL     1       5.149  32.209  57.012  1.00  0.00     0.029 A 
HETATM   18  C   UNL     1       5.034  33.529  57.461  1.00  0.00     0.002 A 
HETATM   19  C   UNL     1       4.718  34.550  56.568  1.00  0.00     0.000 A 
HETATM   20  C   UNL     1       4.522  34.253  55.222  1.00  0.00     0.002 A 
HETATM   21  C   UNL     1       4.646  32.936  54.773  1.00  0.00     0.029 A 
ENDBRANCH  13  16
ENDBRANCH  10  12
BRANCH   9  22
HETATM   22  C   UNL     1       7.183  28.003  55.813  1.00  0.00    -0.028 A 
HETATM   23  C   UNL     1       7.589  28.293  57.128  1.00  0.00     0.012 A 
HETATM   24  C   UNL     1       8.793  28.960  57.371  1.00  0.00     0.037 A 
HETATM   25  C   UNL     1       9.590  29.350  56.301  1.00  0.00     0.065 A 
HETATM   26  C   UNL     1       9.203  29.086  54.994  1.00  0.00     0.037 A 
HETATM   27  C   UNL     1       8.004  28.418  54.748  1.00  0.00     0.012 A 
BRANCH  25  28
HETATM   28  O   UNL     1      10.767  30.010  56.493  1.00  0.00    -0.361 OA
HETATM   29  H   UNL     1      10.687  30.559  57.291  1.00  0.00     0.217 HD
ENDBRANCH  25  28
ENDBRANCH   9  22
BRANCH   7  30
HETATM   30  C   UNL     1       7.441  22.877  54.175  1.00  0.00     0.016 A 
HETATM   31  C   UNL     1       7.885  22.279  55.364  1.00  0.00     0.039 A 
HETATM   32  C   UNL     1       8.529  21.043  55.329  1.00  0.00     0.035 A 
HETATM   33 CL   UNL     1       9.072  20.321  56.794  1.00  0.00    -0.084 Cl
HETATM   34  C   UNL     1       8.741  20.386  54.118  1.00  0.00     0.024 A 
HETATM   35  C   UNL     1       8.304  20.971  52.930  1.00  0.00     0.003 A 
HETATM   36  C   UNL     1       7.658  22.210  52.960  1.00  0.00     0.015 A 
ENDBRANCH   7  30
TORSDOF 5
ENDMDL
MODEL 2
REMARK VINA RESULT:     -10.5      1.954      2.742
REMARK  5 active torsions:
REMARK  status: ('A' for Active; 'I' for Inactive)
REMARK    1  A    between atoms: C_7  and  C_8 
REMARK    2  A    between atoms: C_16  and  C_17 
REMARK    3  A    between atoms: C_20  and  O_21 
REMARK    4  A    between atoms: C_24  and  C_25 
REMARK       I    between atoms: C_25  and  N_26 
REMARK    5  A    between atoms: N_26  and  C_27 
ROOT
HETATM    1  C   UNL     1       3.742  30.619  54.593  1.00  0.00     0.070 C 
HETATM    2  C   UNL     1       4.763  29.610  55.069  1.00  0.00     0.037 A 
HETATM    3  N   UNL     1       4.892  28.481  54.265  1.00  0.00    -0.192 N 
HETATM    4  C   UNL     1       5.659  27.426  54.583  1.00  0.00     0.726 A 
HETATM    5  N   UNL     1       6.427  27.479  55.706  1.00  0.00    -0.083 N 
HETATM    6  N   UNL     1       7.026  26.299  55.953  1.00  0.00    -0.135 NA
HETATM    7  C   UNL     1       6.664  25.588  54.868  1.00  0.00     0.199 A 
HETATM    8  N   UNL     1       5.806  26.259  54.013  1.00  0.00    -0.041 NA
HETATM    9  C   UNL     1       6.479  28.632  56.612  1.00  0.00     0.202 A 
HETATM   10  C   UNL     1       5.498  29.733  56.211  1.00  0.00     0.062 A 
HETATM   11  H   UNL     1       4.298  28.420  53.442  1.00  0.00     0.184 HD
ENDROOT
BRANCH  10  12
HETATM   12  C   UNL     1       5.394  30.971  57.062  1.00  0.00     0.256 C 
HETATM   13  N   UNL     1       5.042  30.762  58.380  1.00  0.00    -0.323 N 
HETATM   14  H   UNL     1       5.001  29.821  58.739  1.00  0.00     0.169 HD
HETATM   15  O   UNL     1       5.657  32.067  56.575  1.00  0.00    -0.267 OA
BRANCH  13  16
HETATM   16  C   UNL     1       4.781  31.752  59.357  1.00  0.00     0.035 A 
HETATM   17  C   UNL     1       3.508  32.235  59.662  1.00  0.00     0.029 A 
HETATM   18  C   UNL     1       3.334  33.193  60.667  1.00  0.00     0.002 A 
HETATM   19  C   UNL     1       4.432  33.681  61.370  1.00  0.00     0.000 A 
HETATM   20  C   UNL     1       5.707  33.208  61.073  1.00  0.00     0.002 A 
HETATM   21  C   UNL     1       5.879  32.244  60.076  1.00  0.00     0.029 A 
ENDBRANCH  13  16
ENDBRANCH  10  12
BRANCH   9  22
HETATM   22  C   UNL     1       7.927  29.100  56.747  1.00  0.00    -0.028 A 
HETATM   23  C   UNL     1       8.781  29.201  55.635  1.00  0.00     0.012 A 
HETATM   24  C   UNL     1      10.109  29.609  55.791  1.00  0.00     0.037 A 
HETATM   25  C   UNL     1      10.590  29.907  57.061  1.00  0.00     0.065 A 
HETATM   26  C   UNL     1       9.769  29.802  58.175  1.00  0.00     0.037 A 
HETATM   27  C   UNL     1       8.443  29.398  58.021  1.00  0.00     0.012 A 
BRANCH  25  28
HETATM   28  O   UNL     1      11.881  30.299  57.259  1.00  0.00    -0.361 OA
HETATM   29  H   UNL     1      12.052  31.086  56.716  1.00  0.00     0.217 HD
ENDBRANCH  25  28
ENDBRANCH   9  22
BRANCH   7  30
HETATM   30  C   UNL     1       7.109  24.223  54.609  1.00  0.00     0.016 A 
HETATM   31  C   UNL     1       7.374  23.342  55.668  1.00  0.00     0.039 A 
HETATM   32  C   UNL     1       7.803  22.041  55.407  1.00  0.00     0.035 A 
HETATM   33 CL   UNL     1       8.126  20.969  56.715  1.00  0.00    -0.084 Cl
HETATM   34  C   UNL     1       7.975  21.599  54.097  1.00  0.00     0.024 A 
HETATM   35  C   UNL     1       7.715  22.466  53.037  1.00  0.00     0.003 A 
HETATM   36  C   UNL     1       7.286  23.771  53.293  1.00  0.00     0.015 A 
ENDBRANCH   7  30
TORSDOF 5
ENDMDL
MODEL 3
REMARK VINA RESULT:     -10.2      4.897      9.905
REMARK  5 active torsions:
REMARK  status: ('A' for Active; 'I' for Inactive)
REMARK    1  A    between atoms: C_7  and  C_8 
REMARK    2  A    between atoms: C_16  and  C_17 
REMARK    3  A    between atoms: C_20  and  O_21 
REMARK    4  A    between atoms: C_24  and  C_25 
REMARK       I    between atoms: C_25  and  N_26 
REMARK    5  A    between atoms: N_26  and  C_27 
ROOT
HETATM    1  C   UNL     1      10.958  29.758  56.887  1.00  0.00     0.070 C 
HETATM    2  C   UNL     1       9.728  30.106  57.695  1.00  0.00     0.037 A 
HETATM    3  N   UNL     1       9.896  31.148  58.603  1.00  0.00    -0.192 N 
HETATM    4  C   UNL     1       8.958  31.523  59.486  1.00  0.00     0.726 A 
HETATM    5  N   UNL     1       7.737  30.922  59.451  1.00  0.00    -0.083 N 
HETATM    6  N   UNL     1       6.962  31.312  60.482  1.00  0.00    -0.135 NA
HETATM    7  C   UNL     1       7.742  32.248  61.056  1.00  0.00     0.199 A 
HETATM    8  N   UNL     1       8.987  32.386  60.467  1.00  0.00    -0.041 NA
HETATM    9  C   UNL     1       7.364  29.872  58.496  1.00  0.00     0.202 A 
HETATM   10  C   UNL     1       8.534  29.455  57.605  1.00  0.00     0.062 A 
HETATM   11  H   UNL     1      10.815  31.580  58.656  1.00  0.00     0.184 HD
ENDROOT
BRANCH  10  12
HETATM   12  C   UNL     1       8.332  28.355  56.595  1.00  0.00     0.256 C 
HETATM   13  N   UNL     1       8.026  27.114  57.117  1.00  0.00    -0.323 N 
HETATM   14  H   UNL     1       7.827  27.026  58.101  1.00  0.00     0.169 HD
HETATM   15  O   UNL     1       8.406  28.610  55.397  1.00  0.00    -0.267 OA
BRANCH  13  16
HETATM   16  C   UNL     1       7.888  25.902  56.400  1.00  0.00     0.035 A 
HETATM   17  C   UNL     1       7.089  25.748  55.266  1.00  0.00     0.029 A 
HETATM   18  C   UNL     1       7.035  24.521  54.596  1.00  0.00     0.002 A 
HETATM   19  C   UNL     1       7.774  23.436  55.058  1.00  0.00     0.000 A 
HETATM   20  C   UNL     1       8.574  23.576  56.189  1.00  0.00     0.002 A 
HETATM   21  C   UNL     1       8.635  24.805  56.852  1.00  0.00     0.029 A 
ENDBRANCH  13  16
ENDBRANCH  10  12
BRANCH   9  22
HETATM   22  C   UNL     1       6.116  30.308  57.731  1.00  0.00    -0.028 A 
HETATM   23  C   UNL     1       5.903  31.647  57.360  1.00  0.00     0.012 A 
HETATM   24  C   UNL     1       4.740  32.022  56.682  1.00  0.00     0.037 A 
HETATM   25  C   UNL     1       3.780  31.061  56.383  1.00  0.00     0.065 A 
HETATM   26  C   UNL     1       3.963  29.736  56.751  1.00  0.00     0.037 A 
HETATM   27  C   UNL     1       5.124  29.358  57.425  1.00  0.00     0.012 A 
BRANCH  25  28
HETATM   28  O   UNL     1       2.628  31.386  55.731  1.00  0.00    -0.361 OA
HETATM   29  H   UNL     1       2.299  30.595  55.272  1.00  0.00     0.217 HD
ENDBRANCH  25  28
ENDBRANCH   9  22
BRANCH   7  30
HETATM   30  C   UNL     1       7.335  33.043  62.211  1.00  0.00     0.016 A 
HETATM   31  C   UNL     1       6.421  34.097  62.070  1.00  0.00     0.039 A 
HETATM   32  C   UNL     1       6.044  34.851  63.180  1.00  0.00     0.035 A 
HETATM   33 CL   UNL     1       4.923  36.144  62.994  1.00  0.00    -0.084 Cl
HETATM   34  C   UNL     1       6.567  34.569  64.441  1.00  0.00     0.024 A 
HETATM   35  C   UNL     1       7.476  33.524  64.593  1.00  0.00     0.003 A 
HETATM   36  C   UNL     1       7.858  32.766  63.483  1.00  0.00     0.015 A 
ENDBRANCH   7  30
TORSDOF 5
ENDMDL
MODEL 4
REMARK VINA RESULT:      -9.6      3.845      5.456
REMARK  5 active torsions:
REMARK  status: ('A' for Active; 'I' for Inactive)
REMARK    1  A    between atoms: C_7  and  C_8 
REMARK    2  A    between atoms: C_16  and  C_17 
REMARK    3  A    between atoms: C_20  and  O_21 
REMARK    4  A    between atoms: C_24  and  C_25 
REMARK       I    between atoms: C_25  and  N_26 
REMARK    5  A    between atoms: N_26  and  C_27 
ROOT
HETATM    1  C   UNL     1       3.478  30.000  54.157  1.00  0.00     0.070 C 
HETATM    2  C   UNL     1       4.287  28.925  53.465  1.00  0.00     0.037 A 
HETATM    3  N   UNL     1       4.460  27.756  54.201  1.00  0.00    -0.192 N 
HETATM    4  C   UNL     1       5.241  26.738  53.806  1.00  0.00     0.726 A 
HETATM    5  N   UNL     1       5.835  26.796  52.582  1.00  0.00    -0.083 N 
HETATM    6  N   UNL     1       6.686  25.768  52.396  1.00  0.00    -0.135 NA
HETATM    7  C   UNL     1       6.481  25.050  53.516  1.00  0.00     0.199 A 
HETATM    8  N   UNL     1       5.602  25.638  54.411  1.00  0.00    -0.041 NA
HETATM    9  C   UNL     1       5.679  27.913  51.644  1.00  0.00     0.202 A 
HETATM   10  C   UNL     1       4.854  29.056  52.233  1.00  0.00     0.062 A 
HETATM   11  H   UNL     1       4.046  27.719  55.129  1.00  0.00     0.184 HD
ENDROOT
BRANCH  10  12
HETATM   12  C   UNL     1       4.633  30.301  51.414  1.00  0.00     0.256 C 
HETATM   13  N   UNL     1       5.771  31.016  51.096  1.00  0.00    -0.323 N 
HETATM   14  H   UNL     1       6.676  30.623  51.301  1.00  0.00     0.169 HD
HETATM   15  O   UNL     1       3.499  30.593  51.044  1.00  0.00    -0.267 OA
BRANCH  13  16
HETATM   16  C   UNL     1       5.832  32.263  50.429  1.00  0.00     0.035 A 
HETATM   17  C   UNL     1       5.578  33.491  51.040  1.00  0.00     0.029 A 
HETATM   18  C   UNL     1       5.692  34.682  50.315  1.00  0.00     0.002 A 
HETATM   19  C   UNL     1       6.055  34.654  48.971  1.00  0.00     0.000 A 
HETATM   20  C   UNL     1       6.309  33.434  48.350  1.00  0.00     0.002 A 
HETATM   21  C   UNL     1       6.204  32.246  49.078  1.00  0.00     0.029 A 
ENDBRANCH  13  16
ENDBRANCH  10  12
BRANCH   9  22
HETATM   22  C   UNL     1       5.155  27.381  50.312  1.00  0.00    -0.028 A 
HETATM   23  C   UNL     1       5.376  28.063  49.101  1.00  0.00     0.012 A 
HETATM   24  C   UNL     1       4.863  27.566  47.900  1.00  0.00     0.037 A 
HETATM   25  C   UNL     1       4.118  26.392  47.905  1.00  0.00     0.065 A 
HETATM   26  C   UNL     1       3.875  25.710  49.090  1.00  0.00     0.037 A 
HETATM   27  C   UNL     1       4.389  26.202  50.290  1.00  0.00     0.012 A 
BRANCH  25  28
HETATM   28  O   UNL     1       3.591  25.877  46.758  1.00  0.00    -0.361 OA
HETATM   29  H   UNL     1       4.211  25.220  46.401  1.00  0.00     0.217 HD
ENDBRANCH  25  28
ENDBRANCH   9  22
BRANCH   7  30
HETATM   30  C   UNL     1       7.133  23.774  53.791  1.00  0.00     0.016 A 
HETATM   31  C   UNL     1       7.358  23.353  55.109  1.00  0.00     0.039 A 
HETATM   32  C   UNL     1       7.986  22.133  55.358  1.00  0.00     0.035 A 
HETATM   33 CL   UNL     1       8.258  21.627  56.981  1.00  0.00    -0.084 Cl
HETATM   34  C   UNL     1       8.398  21.319  54.305  1.00  0.00     0.024 A 
HETATM   35  C   UNL     1       8.180  21.728  52.990  1.00  0.00     0.003 A 
HETATM   36  C   UNL     1       7.552  22.950  52.736  1.00  0.00     0.015 A 
ENDBRANCH   7  30
TORSDOF 5
ENDMDL
MODEL 5
REMARK VINA RESULT:      -9.6      4.855      9.495
REMARK  5 active torsions:
REMARK  status: ('A' for Active; 'I' for Inactive)
REMARK    1  A    between atoms: C_7  and  C_8 
REMARK    2  A    between atoms: C_16  and  C_17 
REMARK    3  A    between atoms: C_20  and  O_21 
REMARK    4  A    between atoms: C_24  and  C_25 
REMARK       I    between atoms: C_25  and  N_26 
REMARK    5  A    between atoms: N_26  and  C_27 
ROOT
HETATM    1  C   UNL     1      10.613  29.862  56.554  1.00  0.00     0.070 C 
HETATM    2  C   UNL     1       9.428  30.200  57.431  1.00  0.00     0.037 A 
HETATM    3  N   UNL     1       9.653  31.217  58.355  1.00  0.00    -0.192 N 
HETATM    4  C   UNL     1       8.764  31.579  59.293  1.00  0.00     0.726 A 
HETATM    5  N   UNL     1       7.536  30.990  59.304  1.00  0.00    -0.083 N 
HETATM    6  N   UNL     1       6.819  31.361  60.383  1.00  0.00    -0.135 NA
HETATM    7  C   UNL     1       7.636  32.275  60.941  1.00  0.00     0.199 A 
HETATM    8  N   UNL     1       8.852  32.416  60.293  1.00  0.00    -0.041 NA
HETATM    9  C   UNL     1       7.105  29.969  58.343  1.00  0.00     0.202 A 
HETATM   10  C   UNL     1       8.224  29.564  57.384  1.00  0.00     0.062 A 
HETATM   11  H   UNL     1      10.578  31.639  58.373  1.00  0.00     0.184 HD
ENDROOT
BRANCH  10  12
HETATM   12  C   UNL     1       7.960  28.493  56.358  1.00  0.00     0.256 C 
HETATM   13  N   UNL     1       7.427  28.930  55.162  1.00  0.00    -0.323 N 
HETATM   14  H   UNL     1       7.363  29.919  54.980  1.00  0.00     0.169 HD
HETATM   15  O   UNL     1       8.258  27.328  56.606  1.00  0.00    -0.267 OA
BRANCH  13  16
HETATM   16  C   UNL     1       6.997  28.126  54.079  1.00  0.00     0.035 A 
HETATM   17  C   UNL     1       7.662  26.981  53.641  1.00  0.00     0.029 A 
HETATM   18  C   UNL     1       7.150  26.223  52.582  1.00  0.00     0.002 A 
HETATM   19  C   UNL     1       5.972  26.609  51.949  1.00  0.00     0.000 A 
HETATM   20  C   UNL     1       5.300  27.751  52.376  1.00  0.00     0.002 A 
HETATM   21  C   UNL     1       5.807  28.502  53.440  1.00  0.00     0.029 A 
ENDBRANCH  13  16
ENDBRANCH  10  12
BRANCH   9  22
HETATM   22  C   UNL     1       5.825  30.437  57.653  1.00  0.00    -0.028 A 
HETATM   23  C   UNL     1       5.655  31.766  57.226  1.00  0.00     0.012 A 
HETATM   24  C   UNL     1       4.464  32.173  56.620  1.00  0.00     0.037 A 
HETATM   25  C   UNL     1       3.433  31.255  56.447  1.00  0.00     0.065 A 
HETATM   26  C   UNL     1       3.573  29.941  56.873  1.00  0.00     0.037 A 
HETATM   27  C   UNL     1       4.763  29.532  57.476  1.00  0.00     0.012 A 
BRANCH  25  28
HETATM   28  O   UNL     1       2.252  31.612  55.869  1.00  0.00    -0.361 OA
HETATM   29  H   UNL     1       2.354  32.494  55.475  1.00  0.00     0.217 HD
ENDBRANCH  25  28
ENDBRANCH   9  22
BRANCH   7  30
HETATM   30  C   UNL     1       7.296  33.043  62.134  1.00  0.00     0.016 A 
HETATM   31  C   UNL     1       6.404  34.123  62.061  1.00  0.00     0.039 A 
HETATM   32  C   UNL     1       6.091  34.851  63.208  1.00  0.00     0.035 A 
HETATM   33 CL   UNL     1       4.996  36.176  63.107  1.00  0.00    -0.084 Cl
HETATM   34  C   UNL     1       6.657  34.519  64.437  1.00  0.00     0.024 A 
HETATM   35  C   UNL     1       7.545  33.448  64.521  1.00  0.00     0.003 A 
HETATM   36  C   UNL     1       7.863  32.715  63.374  1.00  0.00     0.015 A 
ENDBRANCH   7  30
TORSDOF 5
ENDMDL
MODEL 6
REMARK VINA RESULT:      -9.2      3.604      9.072
REMARK  5 active torsions:
REMARK  status: ('A' for Active; 'I' for Inactive)
REMARK    1  A    between atoms: C_7  and  C_8 
REMARK    2  A    between atoms: C_16  and  C_17 
REMARK    3  A    between atoms: C_20  and  O_21 
REMARK    4  A    between atoms: C_24  and  C_25 
REMARK       I    between atoms: C_25  and  N_26 
REMARK    5  A    between atoms: N_26  and  C_27 
ROOT
HETATM    1  C   UNL     1       8.490  27.159  57.297  1.00  0.00     0.070 C 
HETATM    2  C   UNL     1       7.302  27.620  56.483  1.00  0.00     0.037 A 
HETATM    3  N   UNL     1       7.079  28.995  56.496  1.00  0.00    -0.192 N 
HETATM    4  C   UNL     1       6.012  29.580  55.932  1.00  0.00     0.726 A 
HETATM    5  N   UNL     1       5.131  28.816  55.229  1.00  0.00    -0.083 N 
HETATM    6  N   UNL     1       4.053  29.527  54.846  1.00  0.00    -0.135 NA
HETATM    7  C   UNL     1       4.393  30.763  55.259  1.00  0.00     0.199 A 
HETATM    8  N   UNL     1       5.594  30.818  55.947  1.00  0.00    -0.041 NA
HETATM    9  C   UNL     1       5.269  27.367  55.039  1.00  0.00     0.202 A 
HETATM   10  C   UNL     1       6.461  26.791  55.802  1.00  0.00     0.062 A 
HETATM   11  H   UNL     1       7.714  29.568  57.046  1.00  0.00     0.184 HD
ENDROOT
BRANCH  10  12
HETATM   12  C   UNL     1       6.721  25.309  55.749  1.00  0.00     0.256 C 
HETATM   13  N   UNL     1       7.695  24.905  54.857  1.00  0.00    -0.323 N 
HETATM   14  H   UNL     1       8.261  25.598  54.394  1.00  0.00     0.169 HD
HETATM   15  O   UNL     1       6.109  24.556  56.502  1.00  0.00    -0.267 OA
BRANCH  13  16
HETATM   16  C   UNL     1       8.059  23.574  54.542  1.00  0.00     0.035 A 
HETATM   17  C   UNL     1       8.816  22.750  55.375  1.00  0.00     0.029 A 
HETATM   18  C   UNL     1       9.104  21.433  55.001  1.00  0.00     0.002 A 
HETATM   19  C   UNL     1       8.642  20.932  53.787  1.00  0.00     0.000 A 
HETATM   20  C   UNL     1       7.888  21.745  52.946  1.00  0.00     0.002 A 
HETATM   21  C   UNL     1       7.593  23.057  53.325  1.00  0.00     0.029 A 
ENDBRANCH  13  16
ENDBRANCH  10  12
BRANCH   9  22
HETATM   22  C   UNL     1       5.272  27.055  53.544  1.00  0.00    -0.028 A 
HETATM   23  C   UNL     1       4.871  25.802  53.046  1.00  0.00     0.012 A 
HETATM   24  C   UNL     1       4.907  25.535  51.675  1.00  0.00     0.037 A 
HETATM   25  C   UNL     1       5.354  26.516  50.796  1.00  0.00     0.065 A 
HETATM   26  C   UNL     1       5.767  27.755  51.265  1.00  0.00     0.037 A 
HETATM   27  C   UNL     1       5.729  28.025  52.633  1.00  0.00     0.012 A 
BRANCH  25  28
HETATM   28  O   UNL     1       5.413  26.294  49.453  1.00  0.00    -0.361 OA
HETATM   29  H   UNL     1       4.613  25.813  49.182  1.00  0.00     0.217 HD
ENDBRANCH  25  28
ENDBRANCH   9  22
BRANCH   7  30
HETATM   30  C   UNL     1       3.572  31.947  55.030  1.00  0.00     0.016 A 
HETATM   31  C   UNL     1       2.181  31.899  55.201  1.00  0.00     0.039 A 
HETATM   32  C   UNL     1       1.407  33.036  54.974  1.00  0.00     0.035 A 
HETATM   33 CL   UNL     1      -0.300  32.965  55.186  1.00  0.00    -0.084 Cl
HETATM   34  C   UNL     1       2.002  34.232  54.577  1.00  0.00     0.024 A 
HETATM   35  C   UNL     1       3.384  34.291  54.404  1.00  0.00     0.003 A 
HETATM   36  C   UNL     1       4.164  33.154  54.628  1.00  0.00     0.015 A 
ENDBRANCH   7  30
TORSDOF 5
ENDMDL
MODEL 7
REMARK VINA RESULT:      -8.8      2.552      4.232
REMARK  5 active torsions:
REMARK  status: ('A' for Active; 'I' for Inactive)
REMARK    1  A    between atoms: C_7  and  C_8 
REMARK    2  A    between atoms: C_16  and  C_17 
REMARK    3  A    between atoms: C_20  and  O_21 
REMARK    4  A    between atoms: C_24  and  C_25 
REMARK       I    between atoms: C_25  and  N_26 
REMARK    5  A    between atoms: N_26  and  C_27 
ROOT
HETATM    1  C   UNL     1       3.197  30.098  57.217  1.00  0.00     0.070 C 
HETATM    2  C   UNL     1       3.946  29.370  56.123  1.00  0.00     0.037 A 
HETATM    3  N   UNL     1       4.180  28.020  56.371  1.00  0.00    -0.192 N 
HETATM    4  C   UNL     1       4.926  27.237  55.575  1.00  0.00     0.726 A 
HETATM    5  N   UNL     1       5.417  27.750  54.413  1.00  0.00    -0.083 N 
HETATM    6  N   UNL     1       6.251  26.885  53.803  1.00  0.00    -0.135 NA
HETATM    7  C   UNL     1       6.139  25.805  54.601  1.00  0.00     0.199 A 
HETATM    8  N   UNL     1       5.336  26.004  55.712  1.00  0.00    -0.041 NA
HETATM    9  C   UNL     1       5.184  29.125  53.958  1.00  0.00     0.202 A 
HETATM   10  C   UNL     1       4.409  29.953  54.981  1.00  0.00     0.062 A 
HETATM   11  H   UNL     1       3.844  27.639  57.251  1.00  0.00     0.184 HD
ENDROOT
BRANCH  10  12
HETATM   12  C   UNL     1       4.121  31.402  54.688  1.00  0.00     0.256 C 
HETATM   13  N   UNL     1       5.158  32.279  54.938  1.00  0.00    -0.323 N 
HETATM   14  H   UNL     1       6.069  31.917  55.169  1.00  0.00     0.169 HD
HETATM   15  O   UNL     1       3.033  31.723  54.218  1.00  0.00    -0.267 OA
BRANCH  13  16
HETATM   16  C   UNL     1       5.117  33.691  54.844  1.00  0.00     0.035 A 
HETATM   17  C   UNL     1       5.297  34.403  53.657  1.00  0.00     0.029 A 
HETATM   18  C   UNL     1       5.209  35.799  53.646  1.00  0.00     0.002 A 
HETATM   19  C   UNL     1       4.946  36.495  54.823  1.00  0.00     0.000 A 
HETATM   20  C   UNL     1       4.767  35.796  56.013  1.00  0.00     0.002 A 
HETATM   21  C   UNL     1       4.846  34.401  56.022  1.00  0.00     0.029 A 
ENDBRANCH  13  16
ENDBRANCH  10  12
BRANCH   9  22
HETATM   22  C   UNL     1       4.552  29.093  52.568  1.00  0.00    -0.028 A 
HETATM   23  C   UNL     1       5.291  29.387  51.408  1.00  0.00     0.012 A 
HETATM   24  C   UNL     1       4.681  29.375  50.152  1.00  0.00     0.037 A 
HETATM   25  C   UNL     1       3.326  29.080  50.049  1.00  0.00     0.065 A 
HETATM   26  C   UNL     1       2.572  28.800  51.181  1.00  0.00     0.037 A 
HETATM   27  C   UNL     1       3.180  28.809  52.437  1.00  0.00     0.012 A 
BRANCH  25  28
HETATM   28  O   UNL     1       2.689  29.066  48.844  1.00  0.00    -0.361 OA
HETATM   29  H   UNL     1       3.051  29.781  48.295  1.00  0.00     0.217 HD
ENDBRANCH  25  28
ENDBRANCH   9  22
BRANCH   7  30
HETATM   30  C   UNL     1       6.812  24.536  54.344  1.00  0.00     0.016 A 
HETATM   31  C   UNL     1       7.101  23.653  55.394  1.00  0.00     0.039 A 
HETATM   32  C   UNL     1       7.749  22.445  55.136  1.00  0.00     0.035 A 
HETATM   33 CL   UNL     1       8.100  21.370  56.434  1.00  0.00    -0.084 Cl
HETATM   34  C   UNL     1       8.117  22.100  53.837  1.00  0.00     0.024 A 
HETATM   35  C   UNL     1       7.835  22.971  52.786  1.00  0.00     0.003 A 
HETATM   36  C   UNL     1       7.187  24.183  53.039  1.00  0.00     0.015 A 
ENDBRANCH   7  30
TORSDOF 5
ENDMDL
MODEL 8
REMARK VINA RESULT:      -8.7      6.893     11.535
REMARK  5 active torsions:
REMARK  status: ('A' for Active; 'I' for Inactive)
REMARK    1  A    between atoms: C_7  and  C_8 
REMARK    2  A    between atoms: C_16  and  C_17 
REMARK    3  A    between atoms: C_20  and  O_21 
REMARK    4  A    between atoms: C_24  and  C_25 
REMARK       I    between atoms: C_25  and  N_26 
REMARK    5  A    between atoms: N_26  and  C_27 
ROOT
HETATM    1  C   UNL     1       8.664  31.899  59.478  1.00  0.00     0.070 C 
HETATM    2  C   UNL     1       7.556  32.347  60.405  1.00  0.00     0.037 A 
HETATM    3  N   UNL     1       7.975  32.755  61.668  1.00  0.00    -0.192 N 
HETATM    4  C   UNL     1       7.133  33.075  62.663  1.00  0.00     0.726 A 
HETATM    5  N   UNL     1       5.794  33.092  62.418  1.00  0.00    -0.083 N 
HETATM    6  N   UNL     1       5.086  33.298  63.546  1.00  0.00    -0.135 NA
HETATM    7  C   UNL     1       6.071  33.510  64.439  1.00  0.00     0.199 A 
HETATM    8  N   UNL     1       7.347  33.363  63.920  1.00  0.00    -0.041 NA
HETATM    9  C   UNL     1       5.192  32.780  61.117  1.00  0.00     0.202 A 
HETATM   10  C   UNL     1       6.230  32.335  60.088  1.00  0.00     0.062 A 
HETATM   11  H   UNL     1       8.971  32.715  61.868  1.00  0.00     0.184 HD
ENDROOT
BRANCH  10  12
HETATM   12  C   UNL     1       5.774  31.936  58.709  1.00  0.00     0.256 C 
HETATM   13  N   UNL     1       5.314  30.640  58.584  1.00  0.00    -0.323 N 
HETATM   14  H   UNL     1       5.183  30.079  59.410  1.00  0.00     0.169 HD
HETATM   15  O   UNL     1       5.790  32.761  57.800  1.00  0.00    -0.267 OA
BRANCH  13  16
HETATM   16  C   UNL     1       4.926  29.988  57.389  1.00  0.00     0.035 A 
HETATM   17  C   UNL     1       4.302  30.625  56.316  1.00  0.00     0.029 A 
HETATM   18  C   UNL     1       3.980  29.912  55.156  1.00  0.00     0.002 A 
HETATM   19  C   UNL     1       4.273  28.554  55.062  1.00  0.00     0.000 A 
HETATM   20  C   UNL     1       4.894  27.907  56.128  1.00  0.00     0.002 A 
HETATM   21  C   UNL     1       5.224  28.622  57.282  1.00  0.00     0.029 A 
ENDBRANCH  13  16
ENDBRANCH  10  12
BRANCH   9  22
HETATM   22  C   UNL     1       4.327  33.955  60.668  1.00  0.00    -0.028 A 
HETATM   23  C   UNL     1       4.740  35.289  60.837  1.00  0.00     0.012 A 
HETATM   24  C   UNL     1       3.917  36.346  60.439  1.00  0.00     0.037 A 
HETATM   25  C   UNL     1       2.673  36.075  59.882  1.00  0.00     0.065 A 
HETATM   26  C   UNL     1       2.237  34.767  59.718  1.00  0.00     0.037 A 
HETATM   27  C   UNL     1       3.058  33.710  60.111  1.00  0.00     0.012 A 
BRANCH  25  28
HETATM   28  O   UNL     1       1.835  37.076  59.489  1.00  0.00    -0.361 OA
HETATM   29  H   UNL     1       2.194  37.481  58.682  1.00  0.00     0.217 HD
ENDBRANCH  25  28
ENDBRANCH   9  22
BRANCH   7  30
HETATM   30  C   UNL     1       5.835  33.846  65.839  1.00  0.00     0.016 A 
HETATM   31  C   UNL     1       6.908  34.108  66.705  1.00  0.00     0.039 A 
HETATM   32  C   UNL     1       6.669  34.424  68.041  1.00  0.00     0.035 A 
HETATM   33 CL   UNL     1       7.993  34.741  69.095  1.00  0.00    -0.084 Cl
HETATM   34  C   UNL     1       5.367  34.484  68.535  1.00  0.00     0.024 A 
HETATM   35  C   UNL     1       4.294  34.225  67.684  1.00  0.00     0.003 A 
HETATM   36  C   UNL     1       4.528  33.907  66.344  1.00  0.00     0.015 A 
ENDBRANCH   7  30
TORSDOF 5
ENDMDL
MODEL 9
REMARK VINA RESULT:      -8.7      4.653      6.535
REMARK  5 active torsions:
REMARK  status: ('A' for Active; 'I' for Inactive)
REMARK    1  A    between atoms: C_7  and  C_8 
REMARK    2  A    between atoms: C_16  and  C_17 
REMARK    3  A    between atoms: C_20  and  O_21 
REMARK    4  A    between atoms: C_24  and  C_25 
REMARK       I    between atoms: C_25  and  N_26 
REMARK    5  A    between atoms: N_26  and  C_27 
ROOT
HETATM    1  C   UNL     1       3.436  32.008  52.768  1.00  0.00     0.070 C 
HETATM    2  C   UNL     1       4.130  30.717  52.395  1.00  0.00     0.037 A 
HETATM    3  N   UNL     1       4.148  29.750  53.396  1.00  0.00    -0.192 N 
HETATM    4  C   UNL     1       4.814  28.589  53.296  1.00  0.00     0.726 A 
HETATM    5  N   UNL     1       5.441  28.283  52.127  1.00  0.00    -0.083 N 
HETATM    6  N   UNL     1       6.171  27.156  52.235  1.00  0.00    -0.135 NA
HETATM    7  C   UNL     1       5.856  26.757  53.482  1.00  0.00     0.199 A 
HETATM    8  N   UNL     1       5.029  27.636  54.164  1.00  0.00    -0.041 NA
HETATM    9  C   UNL     1       5.439  29.149  50.942  1.00  0.00     0.202 A 
HETATM   10  C   UNL     1       4.738  30.483  51.198  1.00  0.00     0.062 A 
HETATM   11  H   UNL     1       3.710  29.983  54.283  1.00  0.00     0.184 HD
ENDROOT
BRANCH  10  12
HETATM   12  C   UNL     1       4.685  31.508  50.096  1.00  0.00     0.256 C 
HETATM   13  N   UNL     1       5.854  32.208  49.874  1.00  0.00    -0.323 N 
HETATM   14  H   UNL     1       6.698  31.926  50.347  1.00  0.00     0.169 HD
HETATM   15  O   UNL     1       3.656  31.642  49.440  1.00  0.00    -0.267 OA
BRANCH  13  16
HETATM   16  C   UNL     1       6.041  33.286  48.976  1.00  0.00     0.035 A 
HETATM   17  C   UNL     1       6.188  33.139  47.596  1.00  0.00     0.029 A 
HETATM   18  C   UNL     1       6.336  34.261  46.774  1.00  0.00     0.002 A 
HETATM   19  C   UNL     1       6.346  35.539  47.326  1.00  0.00     0.000 A 
HETATM   20  C   UNL     1       6.202  35.698  48.702  1.00  0.00     0.002 A 
HETATM   21  C   UNL     1       6.045  34.577  49.521  1.00  0.00     0.029 A 
ENDBRANCH  13  16
ENDBRANCH  10  12
BRANCH   9  22
HETATM   22  C   UNL     1       4.889  28.369  49.750  1.00  0.00    -0.028 A 
HETATM   23  C   UNL     1       5.651  28.155  48.587  1.00  0.00     0.012 A 
HETATM   24  C   UNL     1       5.113  27.458  47.502  1.00  0.00     0.037 A 
HETATM   25  C   UNL     1       3.808  26.984  47.569  1.00  0.00     0.065 A 
HETATM   26  C   UNL     1       3.032  27.196  48.700  1.00  0.00     0.037 A 
HETATM   27  C   UNL     1       3.568  27.888  49.787  1.00  0.00     0.012 A 
BRANCH  25  28
HETATM   28  O   UNL     1       3.241  26.309  46.529  1.00  0.00    -0.361 OA
HETATM   29  H   UNL     1       2.664  26.920  46.041  1.00  0.00     0.217 HD
ENDBRANCH  25  28
ENDBRANCH   9  22
BRANCH   7  30
HETATM   30  C   UNL     1       6.348  25.524  54.086  1.00  0.00     0.016 A 
HETATM   31  C   UNL     1       6.792  24.461  53.286  1.00  0.00     0.039 A 
HETATM   32  C   UNL     1       7.256  23.286  53.876  1.00  0.00     0.035 A 
HETATM   33 CL   UNL     1       7.798  21.988  52.884  1.00  0.00    -0.084 Cl
HETATM   34  C   UNL     1       7.285  23.151  55.263  1.00  0.00     0.024 A 
HETATM   35  C   UNL     1       6.845  24.201  56.068  1.00  0.00     0.003 A 
HETATM   36  C   UNL     1       6.378  25.380  55.482  1.00  0.00     0.015 A 
ENDBRANCH   7  30
TORSDOF 5
ENDMDL
MODEL 10
REMARK VINA RESULT:      -8.7      4.257      7.743
REMARK  5 active torsions:
REMARK  status: ('A' for Active; 'I' for Inactive)
REMARK    1  A    between atoms: C_7  and  C_8 
REMARK    2  A    between atoms: C_16  and  C_17 
REMARK    3  A    between atoms: C_20  and  O_21 
REMARK    4  A    between atoms: C_24  and  C_25 
REMARK       I    between atoms: C_25  and  N_26 
REMARK    5  A    between atoms: N_26  and  C_27 
ROOT
HETATM    1  C   UNL     1       2.756  31.236  54.634  1.00  0.00     0.070 C 
HETATM    2  C   UNL     1       3.989  30.785  55.385  1.00  0.00     0.037 A 
HETATM    3  N   UNL     1       4.175  31.390  56.625  1.00  0.00    -0.192 N 
HETATM    4  C   UNL     1       5.266  31.207  57.385  1.00  0.00     0.726 A 
HETATM    5  N   UNL     1       6.215  30.319  56.980  1.00  0.00    -0.083 N 
HETATM    6  N   UNL     1       7.300  30.353  57.777  1.00  0.00    -0.135 NA
HETATM    7  C   UNL     1       6.899  31.218  58.729  1.00  0.00     0.199 A 
HETATM    8  N   UNL     1       5.650  31.771  58.499  1.00  0.00    -0.041 NA
HETATM    9  C   UNL     1       6.128  29.529  55.746  1.00  0.00     0.202 A 
HETATM   10  C   UNL     1       4.898  29.887  54.911  1.00  0.00     0.062 A 
HETATM   11  H   UNL     1       3.487  32.078  56.920  1.00  0.00     0.184 HD
ENDROOT
BRANCH  10  12
HETATM   12  C   UNL     1       4.681  29.198  53.590  1.00  0.00     0.256 C 
HETATM   13  N   UNL     1       5.476  29.636  52.550  1.00  0.00    -0.323 N 
HETATM   14  H   UNL     1       6.229  30.278  52.738  1.00  0.00     0.169 HD
HETATM   15  O   UNL     1       3.866  28.282  53.509  1.00  0.00    -0.267 OA
BRANCH  13  16
HETATM   16  C   UNL     1       5.403  29.229  51.196  1.00  0.00     0.035 A 
HETATM   17  C   UNL     1       5.269  27.904  50.782  1.00  0.00     0.029 A 
HETATM   18  C   UNL     1       5.171  27.591  49.422  1.00  0.00     0.002 A 
HETATM   19  C   UNL     1       5.214  28.601  48.464  1.00  0.00     0.000 A 
HETATM   20  C   UNL     1       5.350  29.927  48.865  1.00  0.00     0.002 A 
HETATM   21  C   UNL     1       5.437  30.239  50.224  1.00  0.00     0.029 A 
ENDBRANCH  13  16
ENDBRANCH  10  12
BRANCH   9  22
HETATM   22  C   UNL     1       6.243  28.046  56.089  1.00  0.00    -0.028 A 
HETATM   23  C   UNL     1       5.195  27.343  56.711  1.00  0.00     0.012 A 
HETATM   24  C   UNL     1       5.338  25.992  57.036  1.00  0.00     0.037 A 
HETATM   25  C   UNL     1       6.532  25.340  56.751  1.00  0.00     0.065 A 
HETATM   26  C   UNL     1       7.585  26.016  56.151  1.00  0.00     0.037 A 
HETATM   27  C   UNL     1       7.445  27.364  55.822  1.00  0.00     0.012 A 
BRANCH  25  28
HETATM   28  O   UNL     1       6.717  24.025  57.060  1.00  0.00    -0.361 OA
HETATM   29  H   UNL     1       5.935  23.526  56.769  1.00  0.00     0.217 HD
ENDBRANCH  25  28
ENDBRANCH   9  22
BRANCH   7  30
HETATM   30  C   UNL     1       7.704  31.570  59.893  1.00  0.00     0.016 A 
HETATM   31  C   UNL     1       7.095  31.947  61.099  1.00  0.00     0.039 A 
HETATM   32  C   UNL     1       7.876  32.285  62.203  1.00  0.00     0.035 A 
HETATM   33 CL   UNL     1       7.116  32.748  63.678  1.00  0.00    -0.084 Cl
HETATM   34  C   UNL     1       9.267  32.254  62.126  1.00  0.00     0.024 A 
HETATM   35  C   UNL     1       9.883  31.881  60.932  1.00  0.00     0.003 A 
HETATM   36  C   UNL     1       9.105  31.543  59.822  1.00  0.00     0.015 A 
ENDBRANCH   7  30
TORSDOF 5
ENDMDL
