MODEL 1
REMARK VINA RESULT:     -10.4      0.000      0.000
REMARK  7 active torsions:
REMARK  status: ('A' for Active; 'I' for Inactive)
REMARK    1  A    between atoms: C_5  and  C_6 
REMARK    2  A    between atoms: C_6  and  C_7 
REMARK    3  A    between atoms: C_7  and  S_8 
REMARK    4  A    between atoms: S_8  and  C_9 
REMARK    5  A    between atoms: C_15  and  C_16 
REMARK    6  A    between atoms: C_16  and  C_17 
REMARK    7  A    between atoms: C_25  and  N_26 
ROOT
HETATM    1  C   UNL     1       6.589  28.629  56.850  1.00  0.00     0.116 A 
HETATM    2  N   UNL     1       5.336  28.515  56.383  1.00  0.00    -0.203 NA
HETATM    3  S   UNL     1       4.433  29.810  56.967  1.00  0.00     0.020 SA
HETATM    4  C   UNL     1       5.694  30.481  57.831  1.00  0.00     0.080 A 
HETATM    5  C   UNL     1       6.803  29.742  57.687  1.00  0.00     0.053 A 
HETATM    6  S   UNL     1       5.883  31.823  58.789  1.00  0.00    -0.074 SA
HETATM    7  C   UNL     1       7.556  31.401  59.075  1.00  0.00     0.084 A 
HETATM    8  C   UNL     1       7.919  30.247  58.380  1.00  0.00     0.062 A 
ENDROOT
BRANCH   1   9
HETATM    9  S   UNL     1       7.790  27.419  56.423  1.00  0.00    -0.101 SA
BRANCH   9  10
HETATM   10  C   UNL     1       6.893  26.495  55.146  1.00  0.00     0.164 C 
BRANCH  10  11
HETATM   11  C   UNL     1       6.598  25.100  55.650  1.00  0.00     0.169 C 
HETATM   12  O   UNL     1       5.978  24.916  56.698  1.00  0.00    -0.291 OA
BRANCH  11  13
HETATM   13  C   UNL     1       7.082  23.918  54.874  1.00  0.00     0.011 A 
HETATM   14  C   UNL     1       7.248  23.943  53.485  1.00  0.00     0.016 A 
HETATM   15  C   UNL     1       7.711  22.807  52.813  1.00  0.00     0.007 A 
HETATM   16  C   UNL     1       8.017  21.637  53.516  1.00  0.00    -0.062 A 
HETATM   17  C   UNL     1       8.490  20.408  52.796  1.00  0.00     0.048 C 
HETATM   18  C   UNL     1       7.829  21.607  54.902  1.00  0.00     0.007 A 
HETATM   19  C   UNL     1       7.366  22.739  55.576  1.00  0.00     0.016 A 
ENDBRANCH  11  13
ENDBRANCH  10  11
ENDBRANCH   9  10
ENDBRANCH   1   9
BRANCH   8  20
HETATM   20  N   UNL     1       9.156  29.706  58.363  1.00  0.00    -0.397 N 
HETATM   21  H   UNL     1       9.400  28.847  58.851  1.00  0.00     0.156 HD
HETATM   22  H   UNL     1       9.976  30.277  58.151  1.00  0.00     0.156 HD
ENDBRANCH   8  20
BRANCH   7  23
HETATM   23  C   UNL     1       8.319  32.287  59.942  1.00  0.00     0.201 C 
HETATM   24  O   UNL     1       9.397  32.782  59.611  1.00  0.00    -0.286 OA
BRANCH  23  25
HETATM   25  C   UNL     1       7.794  32.642  61.294  1.00  0.00     0.015 A 
HETATM   26  C   UNL     1       6.715  33.517  61.471  1.00  0.00     0.016 A 
HETATM   27  C   UNL     1       6.274  33.840  62.757  1.00  0.00     0.007 A 
HETATM   28  C   UNL     1       6.917  33.313  63.883  1.00  0.00    -0.062 A 
HETATM   29  C   UNL     1       6.451  33.654  65.268  1.00  0.00     0.048 C 
HETATM   30  C   UNL     1       8.003  32.447  63.705  1.00  0.00     0.007 A 
HETATM   31  C   UNL     1       8.443  32.119  62.421  1.00  0.00     0.016 A 
ENDBRANCH  23  25
ENDBRANCH   7  23
TORSDOF 7
ENDMDL
MODEL 2
REMARK VINA RESULT:     -10.2      1.250      1.778
REMARK  7 active torsions:
REMARK  status: ('A' for Active; 'I' for Inactive)
REMARK    1  A    between atoms: C_5  and  C_6 
REMARK    2  A    between atoms: C_6  and  C_7 
REMARK    3  A    between atoms: C_7  and  S_8 
REMARK    4  A    between atoms: S_8  and  C_9 
REMARK    5  A    between atoms: C_15  and  C_16 
REMARK    6  A    between atoms: C_16  and  C_17 
REMARK    7  A    between atoms: C_25  and  N_26 
ROOT
HETATM    1  C   UNL     1       5.448  28.639  55.504  1.00  0.00     0.116 A 
HETATM    2  N   UNL     1       4.151  28.960  55.374  1.00  0.00    -0.203 NA
HETATM    3  S   UNL     1       3.800  30.198  56.460  1.00  0.00     0.020 SA
HETATM    4  C   UNL     1       5.344  30.273  57.089  1.00  0.00     0.080 A 
HETATM    5  C   UNL     1       6.137  29.375  56.489  1.00  0.00     0.053 A 
HETATM    6  S   UNL     1       6.101  31.191  58.246  1.00  0.00    -0.074 SA
HETATM    7  C   UNL     1       7.598  30.330  57.972  1.00  0.00     0.084 A 
HETATM    8  C   UNL     1       7.464  29.381  56.957  1.00  0.00     0.062 A 
ENDROOT
BRANCH   1   9
HETATM    9  S   UNL     1       6.134  27.366  54.505  1.00  0.00    -0.101 SA
BRANCH   9  10
HETATM   10  C   UNL     1       5.846  25.921  55.562  1.00  0.00     0.164 C 
BRANCH  10  11
HETATM   11  C   UNL     1       7.153  25.193  55.784  1.00  0.00     0.169 C 
HETATM   12  O   UNL     1       7.976  25.590  56.609  1.00  0.00    -0.291 OA
BRANCH  11  13
HETATM   13  C   UNL     1       7.466  23.977  54.972  1.00  0.00     0.011 A 
HETATM   14  C   UNL     1       7.636  24.018  53.584  1.00  0.00     0.016 A 
HETATM   15  C   UNL     1       7.933  22.848  52.878  1.00  0.00     0.007 A 
HETATM   16  C   UNL     1       8.068  21.626  53.546  1.00  0.00    -0.062 A 
HETATM   17  C   UNL     1       8.362  20.364  52.789  1.00  0.00     0.048 C 
HETATM   18  C   UNL     1       7.875  21.583  54.931  1.00  0.00     0.007 A 
HETATM   19  C   UNL     1       7.577  22.749  55.639  1.00  0.00     0.016 A 
ENDBRANCH  11  13
ENDBRANCH  10  11
ENDBRANCH   9  10
ENDBRANCH   1   9
BRANCH   8  20
HETATM   20  N   UNL     1       8.460  28.599  56.487  1.00  0.00    -0.397 N 
HETATM   21  H   UNL     1       8.744  28.578  55.510  1.00  0.00     0.156 HD
HETATM   22  H   UNL     1       8.754  27.762  56.994  1.00  0.00     0.156 HD
ENDBRANCH   8  20
BRANCH   7  23
HETATM   23  C   UNL     1       8.740  30.719  58.785  1.00  0.00     0.201 C 
HETATM   24  O   UNL     1       9.903  30.643  58.387  1.00  0.00    -0.286 OA
BRANCH  23  25
HETATM   25  C   UNL     1       8.528  31.252  60.164  1.00  0.00     0.015 A 
HETATM   26  C   UNL     1       8.793  30.490  61.309  1.00  0.00     0.016 A 
HETATM   27  C   UNL     1       8.555  31.021  62.579  1.00  0.00     0.007 A 
HETATM   28  C   UNL     1       8.030  32.310  62.724  1.00  0.00    -0.062 A 
HETATM   29  C   UNL     1       7.771  32.890  64.084  1.00  0.00     0.048 C 
HETATM   30  C   UNL     1       7.754  33.067  61.579  1.00  0.00     0.007 A 
HETATM   31  C   UNL     1       7.995  32.540  60.308  1.00  0.00     0.016 A 
ENDBRANCH  23  25
ENDBRANCH   7  23
TORSDOF 7
ENDMDL
MODEL 3
REMARK VINA RESULT:     -10.1      1.631      2.358
REMARK  7 active torsions:
REMARK  status: ('A' for Active; 'I' for Inactive)
REMARK    1  A    between atoms: C_5  and  C_6 
REMARK    2  A    between atoms: C_6  and  C_7 
REMARK    3  A    between atoms: C_7  and  S_8 
REMARK    4  A    between atoms: S_8  and  C_9 
REMARK    5  A    between atoms: C_15  and  C_16 
REMARK    6  A    between atoms: C_16  and  C_17 
REMARK    7  A    between atoms: C_25  and  N_26 
ROOT
HETATM    1  C   UNL     1       8.715  28.883  56.719  1.00  0.00     0.116 A 
HETATM    2  N   UNL     1      10.034  28.875  56.473  1.00  0.00    -0.203 NA
HETATM    3  S   UNL     1      10.752  30.090  57.392  1.00  0.00     0.020 SA
HETATM    4  C   UNL     1       9.321  30.612  58.075  1.00  0.00     0.080 A 
HETATM    5  C   UNL     1       8.293  29.879  57.623  1.00  0.00     0.053 A 
HETATM    6  S   UNL     1       8.895  31.790  59.164  1.00  0.00    -0.074 SA
HETATM    7  C   UNL     1       7.214  31.334  59.024  1.00  0.00     0.084 A 
HETATM    8  C   UNL     1       7.047  30.250  58.160  1.00  0.00     0.062 A 
ENDROOT
BRANCH   1   9
HETATM    9  S   UNL     1       7.671  27.728  55.904  1.00  0.00    -0.101 SA
BRANCH   9  10
HETATM   10  C   UNL     1       8.098  26.207  56.795  1.00  0.00     0.164 C 
BRANCH  10  11
HETATM   11  C   UNL     1       7.037  25.160  56.538  1.00  0.00     0.169 C 
HETATM   12  O   UNL     1       5.952  25.191  57.120  1.00  0.00    -0.291 OA
BRANCH  11  13
HETATM   13  C   UNL     1       7.313  24.052  55.573  1.00  0.00     0.011 A 
HETATM   14  C   UNL     1       7.157  24.198  54.190  1.00  0.00     0.016 A 
HETATM   15  C   UNL     1       7.436  23.128  53.335  1.00  0.00     0.007 A 
HETATM   16  C   UNL     1       7.878  21.902  53.846  1.00  0.00    -0.062 A 
HETATM   17  C   UNL     1       8.155  20.743  52.933  1.00  0.00     0.048 C 
HETATM   18  C   UNL     1       8.012  21.751  55.230  1.00  0.00     0.007 A 
HETATM   19  C   UNL     1       7.732  22.818  56.087  1.00  0.00     0.016 A 
ENDBRANCH  11  13
ENDBRANCH  10  11
ENDBRANCH   9  10
ENDBRANCH   1   9
BRANCH   8  20
HETATM   20  N   UNL     1       5.871  29.642  57.892  1.00  0.00    -0.397 N 
HETATM   21  H   UNL     1       5.460  28.928  58.489  1.00  0.00     0.156 HD
HETATM   22  H   UNL     1       5.499  29.613  56.941  1.00  0.00     0.156 HD
ENDBRANCH   8  20
BRANCH   7  23
HETATM   23  C   UNL     1       6.257  32.095  59.813  1.00  0.00     0.201 C 
HETATM   24  O   UNL     1       5.143  32.410  59.394  1.00  0.00    -0.286 OA
BRANCH  23  25
HETATM   25  C   UNL     1       6.605  32.520  61.201  1.00  0.00     0.015 A 
HETATM   26  C   UNL     1       7.410  31.741  62.041  1.00  0.00     0.016 A 
HETATM   27  C   UNL     1       7.689  32.167  63.343  1.00  0.00     0.007 A 
HETATM   28  C   UNL     1       7.152  33.363  63.830  1.00  0.00    -0.062 A 
HETATM   29  C   UNL     1       7.445  33.830  65.227  1.00  0.00     0.048 C 
HETATM   30  C   UNL     1       6.338  34.137  62.994  1.00  0.00     0.007 A 
HETATM   31  C   UNL     1       6.061  33.716  61.691  1.00  0.00     0.016 A 
ENDBRANCH  23  25
ENDBRANCH   7  23
TORSDOF 7
ENDMDL
MODEL 4
REMARK VINA RESULT:     -10.0      1.585     10.247
REMARK  7 active torsions:
REMARK  status: ('A' for Active; 'I' for Inactive)
REMARK    1  A    between atoms: C_5  and  C_6 
REMARK    2  A    between atoms: C_6  and  C_7 
REMARK    3  A    between atoms: C_7  and  S_8 
REMARK    4  A    between atoms: S_8  and  C_9 
REMARK    5  A    between atoms: C_15  and  C_16 
REMARK    6  A    between atoms: C_16  and  C_17 
REMARK    7  A    between atoms: C_25  and  N_26 
ROOT
HETATM    1  C   UNL     1       6.268  29.320  56.223  1.00  0.00     0.116 A 
HETATM    2  N   UNL     1       5.075  29.676  55.721  1.00  0.00    -0.203 NA
HETATM    3  S   UNL     1       4.245  28.276  55.289  1.00  0.00     0.020 SA
HETATM    4  C   UNL     1       5.470  27.239  55.749  1.00  0.00     0.080 A 
HETATM    5  C   UNL     1       6.510  27.932  56.234  1.00  0.00     0.053 A 
HETATM    6  S   UNL     1       5.680  25.593  55.754  1.00  0.00    -0.074 SA
HETATM    7  C   UNL     1       7.284  25.785  56.422  1.00  0.00     0.084 A 
HETATM    8  C   UNL     1       7.585  27.128  56.654  1.00  0.00     0.062 A 
ENDROOT
BRANCH   1   9
HETATM    9  S   UNL     1       7.387  30.561  56.768  1.00  0.00    -0.101 SA
BRANCH   9  10
HETATM   10  C   UNL     1       6.679  30.961  58.389  1.00  0.00     0.164 C 
BRANCH  10  11
HETATM   11  C   UNL     1       7.721  30.734  59.462  1.00  0.00     0.169 C 
HETATM   12  O   UNL     1       8.631  29.919  59.308  1.00  0.00    -0.291 OA
BRANCH  11  13
HETATM   13  C   UNL     1       7.637  31.497  60.744  1.00  0.00     0.011 A 
HETATM   14  C   UNL     1       6.839  32.637  60.893  1.00  0.00     0.016 A 
HETATM   15  C   UNL     1       6.795  33.308  62.120  1.00  0.00     0.007 A 
HETATM   16  C   UNL     1       7.541  32.849  63.211  1.00  0.00    -0.062 A 
HETATM   17  C   UNL     1       7.517  33.581  64.521  1.00  0.00     0.048 C 
HETATM   18  C   UNL     1       8.355  31.723  63.053  1.00  0.00     0.007 A 
HETATM   19  C   UNL     1       8.403  31.052  61.830  1.00  0.00     0.016 A 
ENDBRANCH  11  13
ENDBRANCH  10  11
ENDBRANCH   9  10
ENDBRANCH   1   9
BRANCH   8  20
HETATM   20  N   UNL     1       8.728  27.584  57.212  1.00  0.00    -0.397 N 
HETATM   21  H   UNL     1       8.750  28.246  57.984  1.00  0.00     0.156 HD
HETATM   22  H   UNL     1       9.609  27.560  56.696  1.00  0.00     0.156 HD
ENDBRANCH   8  20
BRANCH   7  23
HETATM   23  C   UNL     1       8.048  24.569  56.660  1.00  0.00     0.201 C 
HETATM   24  O   UNL     1       8.651  24.352  57.711  1.00  0.00    -0.286 OA
BRANCH  23  25
HETATM   25  C   UNL     1       8.113  23.511  55.608  1.00  0.00     0.015 A 
HETATM   26  C   UNL     1       8.251  23.815  54.249  1.00  0.00     0.016 A 
HETATM   27  C   UNL     1       8.282  22.792  53.297  1.00  0.00     0.007 A 
HETATM   28  C   UNL     1       8.155  21.454  53.688  1.00  0.00    -0.062 A 
HETATM   29  C   UNL     1       8.188  20.348  52.674  1.00  0.00     0.048 C 
HETATM   30  C   UNL     1       8.006  21.151  55.046  1.00  0.00     0.007 A 
HETATM   31  C   UNL     1       7.979  22.171  55.999  1.00  0.00     0.016 A 
ENDBRANCH  23  25
ENDBRANCH   7  23
TORSDOF 7
ENDMDL
MODEL 5
REMARK VINA RESULT:      -9.9      1.563     10.408
REMARK  7 active torsions:
REMARK  status: ('A' for Active; 'I' for Inactive)
REMARK    1  A    between atoms: C_5  and  C_6 
REMARK    2  A    between atoms: C_6  and  C_7 
REMARK    3  A    between atoms: C_7  and  S_8 
REMARK    4  A    between atoms: S_8  and  C_9 
REMARK    5  A    between atoms: C_15  and  C_16 
REMARK    6  A    between atoms: C_16  and  C_17 
REMARK    7  A    between atoms: C_25  and  N_26 
ROOT
HETATM    1  C   UNL     1       6.188  29.334  57.234  1.00  0.00     0.116 A 
HETATM    2  N   UNL     1       4.987  29.926  57.326  1.00  0.00    -0.203 NA
HETATM    3  S   UNL     1       3.981  29.273  56.145  1.00  0.00     0.020 SA
HETATM    4  C   UNL     1       5.142  28.244  55.527  1.00  0.00     0.080 A 
HETATM    5  C   UNL     1       6.292  28.379  56.202  1.00  0.00     0.053 A 
HETATM    6  S   UNL     1       5.189  27.116  54.310  1.00  0.00    -0.074 SA
HETATM    7  C   UNL     1       6.868  26.783  54.664  1.00  0.00     0.084 A 
HETATM    8  C   UNL     1       7.323  27.537  55.748  1.00  0.00     0.062 A 
ENDROOT
BRANCH   1   9
HETATM    9  S   UNL     1       7.476  29.801  58.334  1.00  0.00    -0.101 SA
BRANCH   9  10
HETATM   10  C   UNL     1       6.876  31.423  58.880  1.00  0.00     0.164 C 
BRANCH  10  11
HETATM   11  C   UNL     1       7.974  32.134  59.640  1.00  0.00     0.169 C 
HETATM   12  O   UNL     1       9.042  32.423  59.100  1.00  0.00    -0.291 OA
BRANCH  11  13
HETATM   13  C   UNL     1       7.769  32.479  61.079  1.00  0.00     0.011 A 
HETATM   14  C   UNL     1       8.640  32.055  62.089  1.00  0.00     0.016 A 
HETATM   15  C   UNL     1       8.401  32.414  63.420  1.00  0.00     0.007 A 
HETATM   16  C   UNL     1       7.295  33.202  63.758  1.00  0.00    -0.062 A 
HETATM   17  C   UNL     1       7.021  33.568  65.188  1.00  0.00     0.048 C 
HETATM   18  C   UNL     1       6.413  33.606  62.751  1.00  0.00     0.007 A 
HETATM   19  C   UNL     1       6.648  33.248  61.421  1.00  0.00     0.016 A 
ENDBRANCH  11  13
ENDBRANCH  10  11
ENDBRANCH   9  10
ENDBRANCH   1   9
BRANCH   8  20
HETATM   20  N   UNL     1       8.559  27.458  56.286  1.00  0.00    -0.397 N 
HETATM   21  H   UNL     1       9.091  26.593  56.346  1.00  0.00     0.156 HD
HETATM   22  H   UNL     1       8.889  28.162  56.949  1.00  0.00     0.156 HD
ENDBRANCH   8  20
BRANCH   7  23
HETATM   23  C   UNL     1       7.531  25.787  53.835  1.00  0.00     0.201 C 
HETATM   24  O   UNL     1       8.037  26.054  52.744  1.00  0.00    -0.286 OA
BRANCH  23  25
HETATM   25  C   UNL     1       7.631  24.373  54.303  1.00  0.00     0.015 A 
HETATM   26  C   UNL     1       7.717  24.039  55.660  1.00  0.00     0.016 A 
HETATM   27  C   UNL     1       7.834  22.702  56.050  1.00  0.00     0.007 A 
HETATM   28  C   UNL     1       7.890  21.684  55.092  1.00  0.00    -0.062 A 
HETATM   29  C   UNL     1       8.016  20.245  55.501  1.00  0.00     0.048 C 
HETATM   30  C   UNL     1       7.815  22.019  53.735  1.00  0.00     0.007 A 
HETATM   31  C   UNL     1       7.693  23.354  53.342  1.00  0.00     0.016 A 
ENDBRANCH  23  25
ENDBRANCH   7  23
TORSDOF 7
ENDMDL
MODEL 6
REMARK VINA RESULT:      -9.4      6.811     10.209
REMARK  7 active torsions:
REMARK  status: ('A' for Active; 'I' for Inactive)
REMARK    1  A    between atoms: C_5  and  C_6 
REMARK    2  A    between atoms: C_6  and  C_7 
REMARK    3  A    between atoms: C_7  and  S_8 
REMARK    4  A    between atoms: S_8  and  C_9 
REMARK    5  A    between atoms: C_15  and  C_16 
REMARK    6  A    between atoms: C_16  and  C_17 
REMARK    7  A    between atoms: C_25  and  N_26 
ROOT
HETATM    1  C   UNL     1       4.835  27.614  53.723  1.00  0.00     0.116 A 
HETATM    2  N   UNL     1       4.547  28.503  54.687  1.00  0.00    -0.203 NA
HETATM    3  S   UNL     1       3.968  29.906  53.959  1.00  0.00     0.020 SA
HETATM    4  C   UNL     1       4.125  29.329  52.400  1.00  0.00     0.080 A 
HETATM    5  C   UNL     1       4.609  28.079  52.412  1.00  0.00     0.053 A 
HETATM    6  S   UNL     1       3.814  29.929  50.884  1.00  0.00    -0.074 SA
HETATM    7  C   UNL     1       4.385  28.443  50.162  1.00  0.00     0.084 A 
HETATM    8  C   UNL     1       4.762  27.514  51.133  1.00  0.00     0.062 A 
ENDROOT
BRANCH   1   9
HETATM    9  S   UNL     1       5.471  26.034  54.157  1.00  0.00    -0.101 SA
BRANCH   9  10
HETATM   10  C   UNL     1       7.231  26.271  53.790  1.00  0.00     0.164 C 
BRANCH  10  11
HETATM   11  C   UNL     1       7.759  25.056  53.059  1.00  0.00     0.169 C 
HETATM   12  O   UNL     1       8.016  25.094  51.856  1.00  0.00    -0.291 OA
BRANCH  11  13
HETATM   13  C   UNL     1       7.955  23.776  53.805  1.00  0.00     0.011 A 
HETATM   14  C   UNL     1       8.351  23.736  55.147  1.00  0.00     0.016 A 
HETATM   15  C   UNL     1       8.513  22.508  55.796  1.00  0.00     0.007 A 
HETATM   16  C   UNL     1       8.279  21.307  55.117  1.00  0.00    -0.062 A 
HETATM   17  C   UNL     1       8.476  19.986  55.802  1.00  0.00     0.048 C 
HETATM   18  C   UNL     1       7.905  21.348  53.770  1.00  0.00     0.007 A 
HETATM   19  C   UNL     1       7.744  22.573  53.119  1.00  0.00     0.016 A 
ENDBRANCH  11  13
ENDBRANCH  10  11
ENDBRANCH   9  10
ENDBRANCH   1   9
BRANCH   8  20
HETATM   20  N   UNL     1       5.194  26.259  50.882  1.00  0.00    -0.397 N 
HETATM   21  H   UNL     1       5.007  25.764  50.013  1.00  0.00     0.156 HD
HETATM   22  H   UNL     1       5.435  25.624  51.645  1.00  0.00     0.156 HD
ENDBRANCH   8  20
BRANCH   7  23
HETATM   23  C   UNL     1       4.366  28.368  48.709  1.00  0.00     0.201 C 
HETATM   24  O   UNL     1       5.390  28.375  48.025  1.00  0.00    -0.286 OA
BRANCH  23  25
HETATM   25  C   UNL     1       3.065  28.264  47.984  1.00  0.00     0.015 A 
HETATM   26  C   UNL     1       2.549  29.317  47.219  1.00  0.00     0.016 A 
HETATM   27  C   UNL     1       1.314  29.183  46.578  1.00  0.00     0.007 A 
HETATM   28  C   UNL     1       0.569  28.006  46.708  1.00  0.00    -0.062 A 
HETATM   29  C   UNL     1      -0.758  27.852  46.024  1.00  0.00     0.048 C 
HETATM   30  C   UNL     1       1.081  26.957  47.482  1.00  0.00     0.007 A 
HETATM   31  C   UNL     1       2.316  27.087  48.120  1.00  0.00     0.016 A 
ENDBRANCH  23  25
ENDBRANCH   7  23
TORSDOF 7
ENDMDL
MODEL 7
REMARK VINA RESULT:      -9.1      5.261      8.576
REMARK  7 active torsions:
REMARK  status: ('A' for Active; 'I' for Inactive)
REMARK    1  A    between atoms: C_5  and  C_6 
REMARK    2  A    between atoms: C_6  and  C_7 
REMARK    3  A    between atoms: C_7  and  S_8 
REMARK    4  A    between atoms: S_8  and  C_9 
REMARK    5  A    between atoms: C_15  and  C_16 
REMARK    6  A    between atoms: C_16  and  C_17 
REMARK    7  A    between atoms: C_25  and  N_26 
ROOT
HETATM    1  C   UNL     1       6.109  27.777  55.968  1.00  0.00     0.116 A 
HETATM    2  N   UNL     1       5.374  28.471  56.851  1.00  0.00    -0.203 NA
HETATM    3  S   UNL     1       4.031  29.093  56.048  1.00  0.00     0.020 SA
HETATM    4  C   UNL     1       4.450  28.458  54.562  1.00  0.00     0.080 A 
HETATM    5  C   UNL     1       5.598  27.771  54.655  1.00  0.00     0.053 A 
HETATM    6  S   UNL     1       3.781  28.472  53.044  1.00  0.00    -0.074 SA
HETATM    7  C   UNL     1       5.115  27.523  52.430  1.00  0.00     0.084 A 
HETATM    8  C   UNL     1       6.017  27.194  53.443  1.00  0.00     0.062 A 
ENDROOT
BRANCH   1   9
HETATM    9  S   UNL     1       7.594  26.998  56.495  1.00  0.00    -0.101 SA
BRANCH   9  10
HETATM   10  C   UNL     1       6.967  25.358  56.951  1.00  0.00     0.164 C 
BRANCH  10  11
HETATM   11  C   UNL     1       8.107  24.364  56.939  1.00  0.00     0.169 C 
HETATM   12  O   UNL     1       9.020  24.426  57.763  1.00  0.00    -0.291 OA
BRANCH  11  13
HETATM   13  C   UNL     1       8.141  23.294  55.896  1.00  0.00     0.011 A 
HETATM   14  C   UNL     1       8.044  21.933  56.206  1.00  0.00     0.016 A 
HETATM   15  C   UNL     1       8.075  20.976  55.186  1.00  0.00     0.007 A 
HETATM   16  C   UNL     1       8.198  21.364  53.847  1.00  0.00    -0.062 A 
HETATM   17  C   UNL     1       8.257  20.339  52.752  1.00  0.00     0.048 C 
HETATM   18  C   UNL     1       8.317  22.724  53.541  1.00  0.00     0.007 A 
HETATM   19  C   UNL     1       8.289  23.681  54.557  1.00  0.00     0.016 A 
ENDBRANCH  11  13
ENDBRANCH  10  11
ENDBRANCH   9  10
ENDBRANCH   1   9
BRANCH   8  20
HETATM   20  N   UNL     1       7.117  26.426  53.285  1.00  0.00    -0.397 N 
HETATM   21  H   UNL     1       7.108  25.411  53.358  1.00  0.00     0.156 HD
HETATM   22  H   UNL     1       8.053  26.815  53.416  1.00  0.00     0.156 HD
ENDBRANCH   8  20
BRANCH   7  23
HETATM   23  C   UNL     1       5.092  27.194  51.013  1.00  0.00     0.201 C 
HETATM   24  O   UNL     1       5.125  26.037  50.593  1.00  0.00    -0.286 OA
BRANCH  23  25
HETATM   25  C   UNL     1       5.012  28.284  49.996  1.00  0.00     0.015 A 
HETATM   26  C   UNL     1       5.642  29.522  50.175  1.00  0.00     0.016 A 
HETATM   27  C   UNL     1       5.518  30.522  49.206  1.00  0.00     0.007 A 
HETATM   28  C   UNL     1       4.747  30.308  48.058  1.00  0.00    -0.062 A 
HETATM   29  C   UNL     1       4.608  31.376  47.012  1.00  0.00     0.048 C 
HETATM   30  C   UNL     1       4.108  29.075  47.884  1.00  0.00     0.007 A 
HETATM   31  C   UNL     1       4.234  28.072  48.849  1.00  0.00     0.016 A 
ENDBRANCH  23  25
ENDBRANCH   7  23
TORSDOF 7
ENDMDL
MODEL 8
REMARK VINA RESULT:      -9.1      2.082     10.779
REMARK  7 active torsions:
REMARK  status: ('A' for Active; 'I' for Inactive)
REMARK    1  A    between atoms: C_5  and  C_6 
REMARK    2  A    between atoms: C_6  and  C_7 
REMARK    3  A    between atoms: C_7  and  S_8 
REMARK    4  A    between atoms: S_8  and  C_9 
REMARK    5  A    between atoms: C_15  and  C_16 
REMARK    6  A    between atoms: C_16  and  C_17 
REMARK    7  A    between atoms: C_25  and  N_26 
ROOT
HETATM    1  C   UNL     1       7.431  31.492  59.016  1.00  0.00     0.116 A 
HETATM    2  N   UNL     1       8.614  32.034  59.347  1.00  0.00    -0.203 NA
HETATM    3  S   UNL     1       9.819  31.257  58.465  1.00  0.00     0.020 SA
HETATM    4  C   UNL     1       8.772  30.216  57.685  1.00  0.00     0.080 A 
HETATM    5  C   UNL     1       7.510  30.444  58.076  1.00  0.00     0.053 A 
HETATM    6  S   UNL     1       8.933  29.007  56.559  1.00  0.00    -0.074 SA
HETATM    7  C   UNL     1       7.208  28.725  56.594  1.00  0.00     0.084 A 
HETATM    8  C   UNL     1       6.560  29.612  57.456  1.00  0.00     0.062 A 
ENDROOT
BRANCH   1   9
HETATM    9  S   UNL     1       5.960  32.084  59.772  1.00  0.00    -0.101 SA
BRANCH   9  10
HETATM   10  C   UNL     1       6.623  32.727  61.334  1.00  0.00     0.164 C 
BRANCH  10  11
HETATM   11  C   UNL     1       5.500  33.338  62.142  1.00  0.00     0.169 C 
HETATM   12  O   UNL     1       4.431  33.653  61.618  1.00  0.00    -0.291 OA
BRANCH  11  13
HETATM   13  C   UNL     1       5.694  33.585  63.603  1.00  0.00     0.011 A 
HETATM   14  C   UNL     1       4.625  33.771  64.486  1.00  0.00     0.016 A 
HETATM   15  C   UNL     1       4.867  33.993  65.846  1.00  0.00     0.007 A 
HETATM   16  C   UNL     1       6.175  34.026  66.341  1.00  0.00    -0.062 A 
HETATM   17  C   UNL     1       6.440  34.289  67.795  1.00  0.00     0.048 C 
HETATM   18  C   UNL     1       7.243  33.862  65.453  1.00  0.00     0.007 A 
HETATM   19  C   UNL     1       7.005  33.643  64.095  1.00  0.00     0.016 A 
ENDBRANCH  11  13
ENDBRANCH  10  11
ENDBRANCH   9  10
ENDBRANCH   1   9
BRANCH   8  20
HETATM   20  N   UNL     1       5.225  29.671  57.652  1.00  0.00    -0.397 N 
HETATM   21  H   UNL     1       4.779  29.461  58.542  1.00  0.00     0.156 HD
HETATM   22  H   UNL     1       4.576  29.602  56.867  1.00  0.00     0.156 HD
ENDBRANCH   8  20
BRANCH   7  23
HETATM   23  C   UNL     1       6.697  27.666  55.737  1.00  0.00     0.201 C 
HETATM   24  O   UNL     1       5.842  27.858  54.872  1.00  0.00    -0.286 OA
BRANCH  23  25
HETATM   25  C   UNL     1       7.220  26.274  55.877  1.00  0.00     0.015 A 
HETATM   26  C   UNL     1       7.634  25.752  57.109  1.00  0.00     0.016 A 
HETATM   27  C   UNL     1       8.141  24.452  57.188  1.00  0.00     0.007 A 
HETATM   28  C   UNL     1       8.261  23.664  56.037  1.00  0.00    -0.062 A 
HETATM   29  C   UNL     1       8.805  22.267  56.112  1.00  0.00     0.048 C 
HETATM   30  C   UNL     1       7.858  24.191  54.805  1.00  0.00     0.007 A 
HETATM   31  C   UNL     1       7.347  25.488  54.723  1.00  0.00     0.016 A 
ENDBRANCH  23  25
ENDBRANCH   7  23
TORSDOF 7
ENDMDL
MODEL 9
REMARK VINA RESULT:      -9.0      2.868      3.523
REMARK  7 active torsions:
REMARK  status: ('A' for Active; 'I' for Inactive)
REMARK    1  A    between atoms: C_5  and  C_6 
REMARK    2  A    between atoms: C_6  and  C_7 
REMARK    3  A    between atoms: C_7  and  S_8 
REMARK    4  A    between atoms: S_8  and  C_9 
REMARK    5  A    between atoms: C_15  and  C_16 
REMARK    6  A    between atoms: C_16  and  C_17 
REMARK    7  A    between atoms: C_25  and  N_26 
ROOT
HETATM    1  C   UNL     1       7.888  28.073  57.376  1.00  0.00     0.116 A 
HETATM    2  N   UNL     1       9.171  28.428  57.554  1.00  0.00    -0.203 NA
HETATM    3  S   UNL     1       9.215  30.052  57.997  1.00  0.00     0.020 SA
HETATM    4  C   UNL     1       7.560  30.260  57.928  1.00  0.00     0.080 A 
HETATM    5  C   UNL     1       6.960  29.114  57.576  1.00  0.00     0.053 A 
HETATM    6  S   UNL     1       6.519  31.523  58.201  1.00  0.00    -0.074 SA
HETATM    7  C   UNL     1       5.155  30.506  57.800  1.00  0.00     0.084 A 
HETATM    8  C   UNL     1       5.557  29.202  57.504  1.00  0.00     0.062 A 
ENDROOT
BRANCH   1   9
HETATM    9  S   UNL     1       7.499  26.427  56.900  1.00  0.00    -0.101 SA
BRANCH   9  10
HETATM   10  C   UNL     1       7.316  26.632  55.107  1.00  0.00     0.164 C 
BRANCH  10  11
HETATM   11  C   UNL     1       6.432  25.532  54.564  1.00  0.00     0.169 C 
HETATM   12  O   UNL     1       5.222  25.699  54.410  1.00  0.00    -0.291 OA
BRANCH  11  13
HETATM   13  C   UNL     1       7.032  24.206  54.222  1.00  0.00     0.011 A 
HETATM   14  C   UNL     1       7.459  23.881  52.930  1.00  0.00     0.016 A 
HETATM   15  C   UNL     1       8.019  22.625  52.670  1.00  0.00     0.007 A 
HETATM   16  C   UNL     1       8.164  21.683  53.695  1.00  0.00    -0.062 A 
HETATM   17  C   UNL     1       8.741  20.326  53.416  1.00  0.00     0.048 C 
HETATM   18  C   UNL     1       7.716  22.002  54.981  1.00  0.00     0.007 A 
HETATM   19  C   UNL     1       7.155  23.254  55.243  1.00  0.00     0.016 A 
ENDBRANCH  11  13
ENDBRANCH  10  11
ENDBRANCH   9  10
ENDBRANCH   1   9
BRANCH   8  20
HETATM   20  N   UNL     1       4.726  28.179  57.209  1.00  0.00    -0.397 N 
HETATM   21  H   UNL     1       3.761  28.308  56.914  1.00  0.00     0.156 HD
HETATM   22  H   UNL     1       4.898  27.241  57.575  1.00  0.00     0.156 HD
ENDBRANCH   8  20
BRANCH   7  23
HETATM   23  C   UNL     1       3.837  31.121  57.851  1.00  0.00     0.201 C 
HETATM   24  O   UNL     1       2.882  30.714  57.190  1.00  0.00    -0.286 OA
BRANCH  23  25
HETATM   25  C   UNL     1       3.595  32.292  58.746  1.00  0.00     0.015 A 
HETATM   26  C   UNL     1       3.571  33.607  58.266  1.00  0.00     0.016 A 
HETATM   27  C   UNL     1       3.365  34.674  59.146  1.00  0.00     0.007 A 
HETATM   28  C   UNL     1       3.201  34.444  60.516  1.00  0.00    -0.062 A 
HETATM   29  C   UNL     1       2.980  35.583  61.469  1.00  0.00     0.048 C 
HETATM   30  C   UNL     1       3.236  33.130  60.997  1.00  0.00     0.007 A 
HETATM   31  C   UNL     1       3.437  32.061  60.120  1.00  0.00     0.016 A 
ENDBRANCH  23  25
ENDBRANCH   7  23
TORSDOF 7
ENDMDL
MODEL 10
REMARK VINA RESULT:      -8.9      5.083      7.917
REMARK  7 active torsions:
REMARK  status: ('A' for Active; 'I' for Inactive)
REMARK    1  A    between atoms: C_5  and  C_6 
REMARK    2  A    between atoms: C_6  and  C_7 
REMARK    3  A    between atoms: C_7  and  S_8 
REMARK    4  A    between atoms: S_8  and  C_9 
REMARK    5  A    between atoms: C_15  and  C_16 
REMARK    6  A    between atoms: C_16  and  C_17 
REMARK    7  A    between atoms: C_25  and  N_26 
ROOT
HETATM    1  C   UNL     1       4.961  27.969  56.423  1.00  0.00     0.116 A 
HETATM    2  N   UNL     1       5.235  28.770  57.465  1.00  0.00    -0.203 NA
HETATM    3  S   UNL     1       4.920  30.360  57.009  1.00  0.00     0.020 SA
HETATM    4  C   UNL     1       4.450  29.969  55.455  1.00  0.00     0.080 A 
HETATM    5  C   UNL     1       4.522  28.643  55.266  1.00  0.00     0.053 A 
HETATM    6  S   UNL     1       3.918  30.822  54.135  1.00  0.00    -0.074 SA
HETATM    7  C   UNL     1       3.791  29.343  53.211  1.00  0.00     0.084 A 
HETATM    8  C   UNL     1       4.132  28.229  53.979  1.00  0.00     0.062 A 
ENDROOT
BRANCH   1   9
HETATM    9  S   UNL     1       5.192  26.234  56.574  1.00  0.00    -0.101 SA
BRANCH   9  10
HETATM   10  C   UNL     1       6.989  26.117  56.357  1.00  0.00     0.164 C 
BRANCH  10  11
HETATM   11  C   UNL     1       7.301  25.842  54.902  1.00  0.00     0.169 C 
HETATM   12  O   UNL     1       7.358  26.753  54.076  1.00  0.00    -0.291 OA
BRANCH  11  13
HETATM   13  C   UNL     1       7.527  24.435  54.451  1.00  0.00     0.011 A 
HETATM   14  C   UNL     1       7.554  23.352  55.336  1.00  0.00     0.016 A 
HETATM   15  C   UNL     1       7.764  22.056  54.855  1.00  0.00     0.007 A 
HETATM   16  C   UNL     1       7.945  21.823  53.487  1.00  0.00    -0.062 A 
HETATM   17  C   UNL     1       8.196  20.437  52.969  1.00  0.00     0.048 C 
HETATM   18  C   UNL     1       7.941  22.910  52.606  1.00  0.00     0.007 A 
HETATM   19  C   UNL     1       7.734  24.205  53.084  1.00  0.00     0.016 A 
ENDBRANCH  11  13
ENDBRANCH  10  11
ENDBRANCH   9  10
ENDBRANCH   1   9
BRANCH   8  20
HETATM   20  N   UNL     1       4.081  26.947  53.556  1.00  0.00    -0.397 N 
HETATM   21  H   UNL     1       4.708  26.563  52.853  1.00  0.00     0.156 HD
HETATM   22  H   UNL     1       3.228  26.394  53.657  1.00  0.00     0.156 HD
ENDBRANCH   8  20
BRANCH   7  23
HETATM   23  C   UNL     1       3.341  29.465  51.833  1.00  0.00     0.201 C 
HETATM   24  O   UNL     1       2.360  28.864  51.393  1.00  0.00    -0.286 OA
BRANCH  23  25
HETATM   25  C   UNL     1       4.070  30.361  50.886  1.00  0.00     0.015 A 
HETATM   26  C   UNL     1       5.420  30.170  50.567  1.00  0.00     0.016 A 
HETATM   27  C   UNL     1       6.068  31.049  49.694  1.00  0.00     0.007 A 
HETATM   28  C   UNL     1       5.384  32.140  49.146  1.00  0.00    -0.062 A 
HETATM   29  C   UNL     1       6.071  33.090  48.208  1.00  0.00     0.048 C 
HETATM   30  C   UNL     1       4.037  32.337  49.474  1.00  0.00     0.007 A 
HETATM   31  C   UNL     1       3.386  31.457  50.343  1.00  0.00     0.016 A 
ENDBRANCH  23  25
ENDBRANCH   7  23
TORSDOF 7
ENDMDL
