MODEL 1
REMARK VINA RESULT:      -9.7      0.000      0.000
REMARK  8 active torsions:
REMARK  status: ('A' for Active; 'I' for Inactive)
REMARK    1  A    between atoms: C_4  and  C_5 
REMARK    2  A    between atoms: C_5  and  N_6 
REMARK       I    between atoms: N_6  and  C_7 
REMARK    3  A    between atoms: C_7  and  C_8 
REMARK    4  A    between atoms: C_11  and  C_12 
REMARK    5  A    between atoms: C_12  and  O_13 
REMARK    6  A    between atoms: O_13  and  C_14 
REMARK    7  A    between atoms: C_25  and  C_26 
REMARK    8  A    between atoms: C_26  and  O_27 
ROOT
HETATM    1  N   UNL     1       8.966  29.975  57.972  1.00  0.00    -0.351 N 
HETATM    2  C   UNL     1       9.266  29.534  56.706  1.00  0.00     0.251 C 
HETATM    3  O   UNL     1      10.098  30.085  55.993  1.00  0.00    -0.268 OA
HETATM    4  H   UNL     1       8.183  29.616  58.506  1.00  0.00     0.163 HD
ENDROOT
BRANCH   2   5
HETATM    5  C   UNL     1       8.497  28.365  56.195  1.00  0.00     0.032 A 
HETATM    6  C   UNL     1       8.336  27.263  57.044  1.00  0.00     0.017 A 
HETATM    7  C   UNL     1       7.644  26.131  56.610  1.00  0.00     0.010 A 
HETATM    8  C   UNL     1       7.100  26.082  55.320  1.00  0.00    -0.034 A 
HETATM    9  C   UNL     1       7.226  27.205  54.487  1.00  0.00     0.010 A 
HETATM   10  C   UNL     1       7.922  28.339  54.920  1.00  0.00     0.017 A 
BRANCH   8  11
HETATM   11  C   UNL     1       6.368  24.847  54.851  1.00  0.00     0.214 C 
BRANCH  11  12
HETATM   12  O   UNL     1       7.115  24.247  53.797  1.00  0.00    -0.347 OA
BRANCH  12  13
HETATM   13  C   UNL     1       7.494  22.944  53.973  1.00  0.00     0.069 A 
HETATM   14  C   UNL     1       7.883  22.055  52.969  1.00  0.00     0.037 A 
HETATM   15  C   UNL     1       8.249  20.744  53.293  1.00  0.00     0.003 A 
HETATM   16  C   UNL     1       8.228  20.316  54.618  1.00  0.00     0.000 A 
HETATM   17  C   UNL     1       7.838  21.196  55.624  1.00  0.00     0.003 A 
HETATM   18  C   UNL     1       7.473  22.505  55.300  1.00  0.00     0.037 A 
ENDBRANCH  12  13
ENDBRANCH  11  12
ENDBRANCH   8  11
ENDBRANCH   2   5
BRANCH   1  19
HETATM   19  C   UNL     1       9.578  31.175  58.500  1.00  0.00     0.182 C 
BRANCH  19  20
HETATM   20  C   UNL     1       8.836  31.726  59.699  1.00  0.00     0.052 A 
HETATM   21  N   UNL     1       7.535  32.097  59.542  1.00  0.00    -0.256 NA
HETATM   22  C   UNL     1       6.874  32.598  60.620  1.00  0.00     0.040 A 
HETATM   23  C   UNL     1       5.442  32.977  60.368  1.00  0.00     0.071 C 
HETATM   24  C   UNL     1       7.473  32.757  61.877  1.00  0.00    -0.006 A 
HETATM   25  C   UNL     1       8.812  32.363  62.001  1.00  0.00     0.014 A 
HETATM   26  C   UNL     1       9.501  31.847  60.910  1.00  0.00     0.029 A 
BRANCH  24  27
HETATM   27  C   UNL     1       6.721  33.283  63.079  1.00  0.00     0.149 C 
HETATM   28  C   UNL     1       7.525  33.104  64.362  1.00  0.00     0.044 C 
BRANCH  27  29
HETATM   29  O   UNL     1       6.437  34.672  62.902  1.00  0.00    -0.391 OA
HETATM   30  H   UNL     1       5.470  34.766  62.848  1.00  0.00     0.210 HD
ENDBRANCH  27  29
ENDBRANCH  24  27
ENDBRANCH  19  20
ENDBRANCH   1  19
TORSDOF 8
ENDMDL
MODEL 2
REMARK VINA RESULT:      -9.5      1.887      3.340
REMARK  8 active torsions:
REMARK  status: ('A' for Active; 'I' for Inactive)
REMARK    1  A    between atoms: C_4  and  C_5 
REMARK    2  A    between atoms: C_5  and  N_6 
REMARK       I    between atoms: N_6  and  C_7 
REMARK    3  A    between atoms: C_7  and  C_8 
REMARK    4  A    between atoms: C_11  and  C_12 
REMARK    5  A    between atoms: C_12  and  O_13 
REMARK    6  A    between atoms: O_13  and  C_14 
REMARK    7  A    between atoms: C_25  and  C_26 
REMARK    8  A    between atoms: C_26  and  O_27 
ROOT
HETATM    1  N   UNL     1       9.118  30.707  60.333  1.00  0.00    -0.351 N 
HETATM    2  C   UNL     1       9.612  31.125  59.121  1.00  0.00     0.251 C 
HETATM    3  O   UNL     1      10.353  32.097  59.007  1.00  0.00    -0.268 OA
HETATM    4  H   UNL     1       8.397  30.001  60.416  1.00  0.00     0.163 HD
ENDROOT
BRANCH   2   5
HETATM    5  C   UNL     1       9.173  30.372  57.914  1.00  0.00     0.032 A 
HETATM    6  C   UNL     1       7.820  30.026  57.811  1.00  0.00     0.017 A 
HETATM    7  C   UNL     1       7.356  29.300  56.713  1.00  0.00     0.010 A 
HETATM    8  C   UNL     1       8.238  28.908  55.697  1.00  0.00    -0.034 A 
HETATM    9  C   UNL     1       9.584  29.292  55.782  1.00  0.00     0.010 A 
HETATM   10  C   UNL     1      10.051  30.018  56.884  1.00  0.00     0.017 A 
BRANCH   8  11
HETATM   11  C   UNL     1       7.732  28.107  54.521  1.00  0.00     0.214 C 
BRANCH  11  12
HETATM   12  O   UNL     1       7.096  26.930  55.010  1.00  0.00    -0.347 OA
BRANCH  12  13
HETATM   13  C   UNL     1       7.344  25.768  54.333  1.00  0.00     0.069 A 
HETATM   14  C   UNL     1       7.336  24.480  54.874  1.00  0.00     0.037 A 
HETATM   15  C   UNL     1       7.606  23.374  54.061  1.00  0.00     0.003 A 
HETATM   16  C   UNL     1       7.887  23.548  52.708  1.00  0.00     0.000 A 
HETATM   17  C   UNL     1       7.900  24.830  52.163  1.00  0.00     0.003 A 
HETATM   18  C   UNL     1       7.628  25.934  52.974  1.00  0.00     0.037 A 
ENDBRANCH  12  13
ENDBRANCH  11  12
ENDBRANCH   8  11
ENDBRANCH   2   5
BRANCH   1  19
HETATM   19  C   UNL     1       9.397  31.454  61.540  1.00  0.00     0.182 C 
BRANCH  19  20
HETATM   20  C   UNL     1       8.181  32.189  62.062  1.00  0.00     0.052 A 
HETATM   21  N   UNL     1       8.175  32.590  63.364  1.00  0.00    -0.256 NA
HETATM   22  C   UNL     1       7.078  33.245  63.831  1.00  0.00     0.040 A 
HETATM   23  C   UNL     1       7.151  33.660  65.273  1.00  0.00     0.071 C 
HETATM   24  C   UNL     1       5.954  33.515  63.037  1.00  0.00    -0.006 A 
HETATM   25  C   UNL     1       5.998  33.088  61.703  1.00  0.00     0.014 A 
HETATM   26  C   UNL     1       7.112  32.421  61.209  1.00  0.00     0.029 A 
BRANCH  24  27
HETATM   27  C   UNL     1       4.753  34.273  63.555  1.00  0.00     0.149 C 
HETATM   28  C   UNL     1       4.061  35.049  62.439  1.00  0.00     0.044 C 
BRANCH  27  29
HETATM   29  O   UNL     1       3.816  33.361  64.131  1.00  0.00    -0.391 OA
HETATM   30  H   UNL     1       3.125  33.891  64.564  1.00  0.00     0.210 HD
ENDBRANCH  27  29
ENDBRANCH  24  27
ENDBRANCH  19  20
ENDBRANCH   1  19
TORSDOF 8
ENDMDL
MODEL 3
REMARK VINA RESULT:      -9.5      2.124     10.512
REMARK  8 active torsions:
REMARK  status: ('A' for Active; 'I' for Inactive)
REMARK    1  A    between atoms: C_4  and  C_5 
REMARK    2  A    between atoms: C_5  and  N_6 
REMARK       I    between atoms: N_6  and  C_7 
REMARK    3  A    between atoms: C_7  and  C_8 
REMARK    4  A    between atoms: C_11  and  C_12 
REMARK    5  A    between atoms: C_12  and  O_13 
REMARK    6  A    between atoms: O_13  and  C_14 
REMARK    7  A    between atoms: C_25  and  C_26 
REMARK    8  A    between atoms: C_26  and  O_27 
ROOT
HETATM    1  N   UNL     1       7.609  28.228  54.877  1.00  0.00    -0.351 N 
HETATM    2  C   UNL     1       8.784  28.901  55.111  1.00  0.00     0.251 C 
HETATM    3  O   UNL     1       9.674  28.991  54.272  1.00  0.00    -0.268 OA
HETATM    4  H   UNL     1       6.938  28.028  55.609  1.00  0.00     0.163 HD
ENDROOT
BRANCH   2   5
HETATM    5  C   UNL     1       8.968  29.492  56.466  1.00  0.00     0.032 A 
HETATM    6  C   UNL     1       7.905  29.400  57.373  1.00  0.00     0.017 A 
HETATM    7  C   UNL     1       8.013  29.956  58.649  1.00  0.00     0.010 A 
HETATM    8  C   UNL     1       9.187  30.614  59.039  1.00  0.00    -0.034 A 
HETATM    9  C   UNL     1      10.265  30.668  58.143  1.00  0.00     0.010 A 
HETATM   10  C   UNL     1      10.157  30.113  56.863  1.00  0.00     0.017 A 
BRANCH   8  11
HETATM   11  C   UNL     1       9.290  31.230  60.415  1.00  0.00     0.214 C 
BRANCH  11  12
HETATM   12  O   UNL     1       8.079  30.976  61.121  1.00  0.00    -0.347 OA
BRANCH  12  13
HETATM   13  C   UNL     1       7.586  31.996  61.887  1.00  0.00     0.069 A 
HETATM   14  C   UNL     1       6.632  32.937  61.493  1.00  0.00     0.037 A 
HETATM   15  C   UNL     1       6.213  33.931  62.385  1.00  0.00     0.003 A 
HETATM   16  C   UNL     1       6.746  33.990  63.670  1.00  0.00     0.000 A 
HETATM   17  C   UNL     1       7.700  33.057  64.069  1.00  0.00     0.003 A 
HETATM   18  C   UNL     1       8.116  32.064  63.178  1.00  0.00     0.037 A 
ENDBRANCH  12  13
ENDBRANCH  11  12
ENDBRANCH   8  11
ENDBRANCH   2   5
BRANCH   1  19
HETATM   19  C   UNL     1       7.399  27.522  53.632  1.00  0.00     0.182 C 
BRANCH  19  20
HETATM   20  C   UNL     1       7.586  26.026  53.774  1.00  0.00     0.052 A 
HETATM   21  N   UNL     1       7.538  25.482  55.022  1.00  0.00    -0.256 NA
HETATM   22  C   UNL     1       7.712  24.139  55.146  1.00  0.00     0.040 A 
HETATM   23  C   UNL     1       7.639  23.615  56.551  1.00  0.00     0.071 C 
HETATM   24  C   UNL     1       7.948  23.295  54.051  1.00  0.00    -0.006 A 
HETATM   25  C   UNL     1       7.989  23.890  52.783  1.00  0.00     0.014 A 
HETATM   26  C   UNL     1       7.809  25.261  52.639  1.00  0.00     0.029 A 
BRANCH  24  27
HETATM   27  C   UNL     1       8.106  21.798  54.194  1.00  0.00     0.149 C 
HETATM   28  C   UNL     1       7.932  21.089  52.855  1.00  0.00     0.044 C 
BRANCH  27  29
HETATM   29  O   UNL     1       9.405  21.496  54.710  1.00  0.00    -0.391 OA
HETATM   30  H   UNL     1       9.321  21.415  55.675  1.00  0.00     0.210 HD
ENDBRANCH  27  29
ENDBRANCH  24  27
ENDBRANCH  19  20
ENDBRANCH   1  19
TORSDOF 8
ENDMDL
MODEL 4
REMARK VINA RESULT:      -9.4      1.959      3.221
REMARK  8 active torsions:
REMARK  status: ('A' for Active; 'I' for Inactive)
REMARK    1  A    between atoms: C_4  and  C_5 
REMARK    2  A    between atoms: C_5  and  N_6 
REMARK       I    between atoms: N_6  and  C_7 
REMARK    3  A    between atoms: C_7  and  C_8 
REMARK    4  A    between atoms: C_11  and  C_12 
REMARK    5  A    between atoms: C_12  and  O_13 
REMARK    6  A    between atoms: O_13  and  C_14 
REMARK    7  A    between atoms: C_25  and  C_26 
REMARK    8  A    between atoms: C_26  and  O_27 
ROOT
HETATM    1  N   UNL     1       8.717  30.618  60.685  1.00  0.00    -0.351 N 
HETATM    2  C   UNL     1       8.882  31.172  59.439  1.00  0.00     0.251 C 
HETATM    3  O   UNL     1       9.388  32.276  59.267  1.00  0.00    -0.268 OA
HETATM    4  H   UNL     1       8.172  29.778  60.844  1.00  0.00     0.163 HD
ENDROOT
BRANCH   2   5
HETATM    5  C   UNL     1       8.372  30.391  58.277  1.00  0.00     0.032 A 
HETATM    6  C   UNL     1       9.294  29.646  57.531  1.00  0.00     0.017 A 
HETATM    7  C   UNL     1       8.876  28.914  56.419  1.00  0.00     0.010 A 
HETATM    8  C   UNL     1       7.529  28.913  56.034  1.00  0.00    -0.034 A 
HETATM    9  C   UNL     1       6.601  29.626  56.808  1.00  0.00     0.010 A 
HETATM   10  C   UNL     1       7.019  30.363  57.923  1.00  0.00     0.017 A 
BRANCH   8  11
HETATM   11  C   UNL     1       7.087  28.133  54.818  1.00  0.00     0.214 C 
BRANCH  11  12
HETATM   12  O   UNL     1       6.650  26.844  55.237  1.00  0.00    -0.347 OA
BRANCH  12  13
HETATM   13  C   UNL     1       7.057  25.778  54.482  1.00  0.00     0.069 A 
HETATM   14  C   UNL     1       7.117  24.446  54.898  1.00  0.00     0.037 A 
HETATM   15  C   UNL     1       7.552  23.453  54.015  1.00  0.00     0.003 A 
HETATM   16  C   UNL     1       7.931  23.784  52.716  1.00  0.00     0.000 A 
HETATM   17  C   UNL     1       7.877  25.110  52.296  1.00  0.00     0.003 A 
HETATM   18  C   UNL     1       7.441  26.102  53.177  1.00  0.00     0.037 A 
ENDBRANCH  12  13
ENDBRANCH  11  12
ENDBRANCH   8  11
ENDBRANCH   2   5
BRANCH   1  19
HETATM   19  C   UNL     1       9.073  31.360  61.875  1.00  0.00     0.182 C 
BRANCH  19  20
HETATM   20  C   UNL     1       7.870  31.976  62.557  1.00  0.00     0.052 A 
HETATM   21  N   UNL     1       6.640  31.775  62.009  1.00  0.00    -0.256 NA
HETATM   22  C   UNL     1       5.563  32.335  62.622  1.00  0.00     0.040 A 
HETATM   23  C   UNL     1       4.242  32.062  61.962  1.00  0.00     0.071 C 
HETATM   24  C   UNL     1       5.664  33.116  63.783  1.00  0.00    -0.006 A 
HETATM   25  C   UNL     1       6.946  33.299  64.318  1.00  0.00     0.014 A 
HETATM   26  C   UNL     1       8.057  32.731  63.706  1.00  0.00     0.029 A 
BRANCH  24  27
HETATM   27  C   UNL     1       4.458  33.706  64.476  1.00  0.00     0.149 C 
HETATM   28  C   UNL     1       4.687  33.837  65.978  1.00  0.00     0.044 C 
BRANCH  27  29
HETATM   29  O   UNL     1       4.176  35.001  63.939  1.00  0.00    -0.391 OA
HETATM   30  H   UNL     1       4.228  35.636  64.673  1.00  0.00     0.210 HD
ENDBRANCH  27  29
ENDBRANCH  24  27
ENDBRANCH  19  20
ENDBRANCH   1  19
TORSDOF 8
ENDMDL
MODEL 5
REMARK VINA RESULT:      -9.3      1.799      2.435
REMARK  8 active torsions:
REMARK  status: ('A' for Active; 'I' for Inactive)
REMARK    1  A    between atoms: C_4  and  C_5 
REMARK    2  A    between atoms: C_5  and  N_6 
REMARK       I    between atoms: N_6  and  C_7 
REMARK    3  A    between atoms: C_7  and  C_8 
REMARK    4  A    between atoms: C_11  and  C_12 
REMARK    5  A    between atoms: C_12  and  O_13 
REMARK    6  A    between atoms: O_13  and  C_14 
REMARK    7  A    between atoms: C_25  and  C_26 
REMARK    8  A    between atoms: C_26  and  O_27 
ROOT
HETATM    1  N   UNL     1       6.000  30.665  58.224  1.00  0.00    -0.351 N 
HETATM    2  C   UNL     1       7.097  29.901  57.905  1.00  0.00     0.251 C 
HETATM    3  O   UNL     1       8.239  30.348  57.910  1.00  0.00    -0.268 OA
HETATM    4  H   UNL     1       5.050  30.344  58.082  1.00  0.00     0.163 HD
ENDROOT
BRANCH   2   5
HETATM    5  C   UNL     1       6.845  28.491  57.497  1.00  0.00     0.032 A 
HETATM    6  C   UNL     1       7.938  27.616  57.448  1.00  0.00     0.017 A 
HETATM    7  C   UNL     1       7.765  26.289  57.051  1.00  0.00     0.010 A 
HETATM    8  C   UNL     1       6.495  25.814  56.696  1.00  0.00    -0.034 A 
HETATM    9  C   UNL     1       5.396  26.681  56.787  1.00  0.00     0.010 A 
HETATM   10  C   UNL     1       5.568  28.013  57.182  1.00  0.00     0.017 A 
BRANCH   8  11
HETATM   11  C   UNL     1       6.319  24.382  56.250  1.00  0.00     0.214 C 
BRANCH  11  12
HETATM   12  O   UNL     1       7.603  23.776  56.140  1.00  0.00    -0.347 OA
BRANCH  12  13
HETATM   13  C   UNL     1       7.750  22.809  55.183  1.00  0.00     0.069 A 
HETATM   14  C   UNL     1       7.728  23.007  53.801  1.00  0.00     0.037 A 
HETATM   15  C   UNL     1       7.894  21.922  52.933  1.00  0.00     0.003 A 
HETATM   16  C   UNL     1       8.080  20.639  53.440  1.00  0.00     0.000 A 
HETATM   17  C   UNL     1       8.100  20.434  54.817  1.00  0.00     0.003 A 
HETATM   18  C   UNL     1       7.936  21.518  55.684  1.00  0.00     0.037 A 
ENDBRANCH  12  13
ENDBRANCH  11  12
ENDBRANCH   8  11
ENDBRANCH   2   5
BRANCH   1  19
HETATM   19  C   UNL     1       6.142  32.075  58.514  1.00  0.00     0.182 C 
BRANCH  19  20
HETATM   20  C   UNL     1       6.064  32.373  59.996  1.00  0.00     0.052 A 
HETATM   21  N   UNL     1       7.169  32.154  60.761  1.00  0.00    -0.256 NA
HETATM   22  C   UNL     1       7.093  32.418  62.093  1.00  0.00     0.040 A 
HETATM   23  C   UNL     1       8.354  32.157  62.867  1.00  0.00     0.071 C 
HETATM   24  C   UNL     1       5.929  32.895  62.712  1.00  0.00    -0.006 A 
HETATM   25  C   UNL     1       4.812  33.110  61.893  1.00  0.00     0.014 A 
HETATM   26  C   UNL     1       4.875  32.849  60.529  1.00  0.00     0.029 A 
BRANCH  24  27
HETATM   27  C   UNL     1       5.863  33.218  64.188  1.00  0.00     0.149 C 
HETATM   28  C   UNL     1       6.075  34.707  64.442  1.00  0.00     0.044 C 
BRANCH  27  29
HETATM   29  O   UNL     1       4.588  32.839  64.710  1.00  0.00    -0.391 OA
HETATM   30  H   UNL     1       4.090  32.424  63.985  1.00  0.00     0.210 HD
ENDBRANCH  27  29
ENDBRANCH  24  27
ENDBRANCH  19  20
ENDBRANCH   1  19
TORSDOF 8
ENDMDL
MODEL 6
REMARK VINA RESULT:      -9.0      2.659     10.349
REMARK  8 active torsions:
REMARK  status: ('A' for Active; 'I' for Inactive)
REMARK    1  A    between atoms: C_4  and  C_5 
REMARK    2  A    between atoms: C_5  and  N_6 
REMARK       I    between atoms: N_6  and  C_7 
REMARK    3  A    between atoms: C_7  and  C_8 
REMARK    4  A    between atoms: C_11  and  C_12 
REMARK    5  A    between atoms: C_12  and  O_13 
REMARK    6  A    between atoms: O_13  and  C_14 
REMARK    7  A    between atoms: C_25  and  C_26 
REMARK    8  A    between atoms: C_26  and  O_27 
ROOT
HETATM    1  N   UNL     1       7.292  27.088  53.951  1.00  0.00    -0.351 N 
HETATM    2  C   UNL     1       6.055  27.510  54.370  1.00  0.00     0.251 C 
HETATM    3  O   UNL     1       5.011  27.020  53.952  1.00  0.00    -0.268 OA
HETATM    4  H   UNL     1       8.147  27.581  54.181  1.00  0.00     0.163 HD
ENDROOT
BRANCH   2   5
HETATM    5  C   UNL     1       6.017  28.641  55.339  1.00  0.00     0.032 A 
HETATM    6  C   UNL     1       7.118  28.817  56.187  1.00  0.00     0.017 A 
HETATM    7  C   UNL     1       7.127  29.847  57.130  1.00  0.00     0.010 A 
HETATM    8  C   UNL     1       6.036  30.718  57.240  1.00  0.00    -0.034 A 
HETATM    9  C   UNL     1       4.953  30.566  56.361  1.00  0.00     0.010 A 
HETATM   10  C   UNL     1       4.941  29.532  55.417  1.00  0.00     0.017 A 
BRANCH   8  11
HETATM   11  C   UNL     1       6.046  31.818  58.275  1.00  0.00     0.214 C 
BRANCH  11  12
HETATM   12  O   UNL     1       7.397  32.109  58.621  1.00  0.00    -0.347 OA
BRANCH  12  13
HETATM   13  C   UNL     1       7.697  32.151  59.955  1.00  0.00     0.069 A 
HETATM   14  C   UNL     1       6.824  32.506  60.986  1.00  0.00     0.037 A 
HETATM   15  C   UNL     1       7.265  32.503  62.313  1.00  0.00     0.003 A 
HETATM   16  C   UNL     1       8.578  32.148  62.616  1.00  0.00     0.000 A 
HETATM   17  C   UNL     1       9.454  31.796  61.593  1.00  0.00     0.003 A 
HETATM   18  C   UNL     1       9.012  31.797  60.268  1.00  0.00     0.037 A 
ENDBRANCH  12  13
ENDBRANCH  11  12
ENDBRANCH   8  11
ENDBRANCH   2   5
BRANCH   1  19
HETATM   19  C   UNL     1       7.418  26.078  52.923  1.00  0.00     0.182 C 
BRANCH  19  20
HETATM   20  C   UNL     1       7.755  24.714  53.486  1.00  0.00     0.052 A 
HETATM   21  N   UNL     1       8.051  24.615  54.812  1.00  0.00    -0.256 NA
HETATM   22  C   UNL     1       8.359  23.389  55.314  1.00  0.00     0.040 A 
HETATM   23  C   UNL     1       8.666  23.362  56.784  1.00  0.00     0.071 C 
HETATM   24  C   UNL     1       8.395  22.229  54.527  1.00  0.00    -0.006 A 
HETATM   25  C   UNL     1       8.084  22.369  53.168  1.00  0.00     0.014 A 
HETATM   26  C   UNL     1       7.763  23.615  52.640  1.00  0.00     0.029 A 
BRANCH  24  27
HETATM   27  C   UNL     1       8.705  20.864  55.099  1.00  0.00     0.149 C 
HETATM   28  C   UNL     1       7.572  20.361  55.986  1.00  0.00     0.044 C 
BRANCH  27  29
HETATM   29  O   UNL     1       8.909  19.929  54.038  1.00  0.00    -0.391 OA
HETATM   30  H   UNL     1       8.032  19.632  53.742  1.00  0.00     0.210 HD
ENDBRANCH  27  29
ENDBRANCH  24  27
ENDBRANCH  19  20
ENDBRANCH   1  19
TORSDOF 8
ENDMDL
MODEL 7
REMARK VINA RESULT:      -8.8      2.326      3.029
REMARK  8 active torsions:
REMARK  status: ('A' for Active; 'I' for Inactive)
REMARK    1  A    between atoms: C_4  and  C_5 
REMARK    2  A    between atoms: C_5  and  N_6 
REMARK       I    between atoms: N_6  and  C_7 
REMARK    3  A    between atoms: C_7  and  C_8 
REMARK    4  A    between atoms: C_11  and  C_12 
REMARK    5  A    between atoms: C_12  and  O_13 
REMARK    6  A    between atoms: O_13  and  C_14 
REMARK    7  A    between atoms: C_25  and  C_26 
REMARK    8  A    between atoms: C_26  and  O_27 
ROOT
HETATM    1  N   UNL     1       5.494  30.833  56.582  1.00  0.00    -0.351 N 
HETATM    2  C   UNL     1       4.521  29.864  56.582  1.00  0.00     0.251 C 
HETATM    3  O   UNL     1       3.425  30.025  57.108  1.00  0.00    -0.268 OA
HETATM    4  H   UNL     1       6.444  30.655  56.279  1.00  0.00     0.163 HD
ENDROOT
BRANCH   2   5
HETATM    5  C   UNL     1       4.863  28.560  55.947  1.00  0.00     0.032 A 
HETATM    6  C   UNL     1       4.717  28.447  54.558  1.00  0.00     0.017 A 
HETATM    7  C   UNL     1       5.001  27.243  53.913  1.00  0.00     0.010 A 
HETATM    8  C   UNL     1       5.437  26.131  54.645  1.00  0.00    -0.034 A 
HETATM    9  C   UNL     1       5.623  26.259  56.029  1.00  0.00     0.010 A 
HETATM   10  C   UNL     1       5.336  27.465  56.679  1.00  0.00     0.017 A 
BRANCH   8  11
HETATM   11  C   UNL     1       5.725  24.825  53.941  1.00  0.00     0.214 C 
BRANCH  11  12
HETATM   12  O   UNL     1       7.101  24.502  54.122  1.00  0.00    -0.347 OA
BRANCH  12  13
HETATM   13  C   UNL     1       7.426  23.174  54.140  1.00  0.00     0.069 A 
HETATM   14  C   UNL     1       7.697  22.376  53.025  1.00  0.00     0.037 A 
HETATM   15  C   UNL     1       8.020  21.025  53.189  1.00  0.00     0.003 A 
HETATM   16  C   UNL     1       8.073  20.465  54.464  1.00  0.00     0.000 A 
HETATM   17  C   UNL     1       7.801  21.254  55.579  1.00  0.00     0.003 A 
HETATM   18  C   UNL     1       7.479  22.603  55.414  1.00  0.00     0.037 A 
ENDBRANCH  12  13
ENDBRANCH  11  12
ENDBRANCH   8  11
ENDBRANCH   2   5
BRANCH   1  19
HETATM   19  C   UNL     1       5.290  32.083  57.281  1.00  0.00     0.182 C 
BRANCH  19  20
HETATM   20  C   UNL     1       6.014  32.131  58.609  1.00  0.00     0.052 A 
HETATM   21  N   UNL     1       7.369  32.000  58.614  1.00  0.00    -0.256 NA
HETATM   22  C   UNL     1       8.016  32.037  59.810  1.00  0.00     0.040 A 
HETATM   23  C   UNL     1       9.509  31.893  59.731  1.00  0.00     0.071 C 
HETATM   24  C   UNL     1       7.350  32.194  61.034  1.00  0.00    -0.006 A 
HETATM   25  C   UNL     1       5.956  32.328  60.989  1.00  0.00     0.014 A 
HETATM   26  C   UNL     1       5.280  32.295  59.775  1.00  0.00     0.029 A 
BRANCH  24  27
HETATM   27  C   UNL     1       8.080  32.270  62.356  1.00  0.00     0.149 C 
HETATM   28  C   UNL     1       7.248  32.990  63.412  1.00  0.00     0.044 C 
BRANCH  27  29
HETATM   29  O   UNL     1       8.373  30.951  62.822  1.00  0.00    -0.391 OA
HETATM   30  H   UNL     1       9.329  30.809  62.708  1.00  0.00     0.210 HD
ENDBRANCH  27  29
ENDBRANCH  24  27
ENDBRANCH  19  20
ENDBRANCH   1  19
TORSDOF 8
ENDMDL
MODEL 8
REMARK VINA RESULT:      -8.4      2.126      2.827
REMARK  8 active torsions:
REMARK  status: ('A' for Active; 'I' for Inactive)
REMARK    1  A    between atoms: C_4  and  C_5 
REMARK    2  A    between atoms: C_5  and  N_6 
REMARK       I    between atoms: N_6  and  C_7 
REMARK    3  A    between atoms: C_7  and  C_8 
REMARK    4  A    between atoms: C_11  and  C_12 
REMARK    5  A    between atoms: C_12  and  O_13 
REMARK    6  A    between atoms: O_13  and  C_14 
REMARK    7  A    between atoms: C_25  and  C_26 
REMARK    8  A    between atoms: C_26  and  O_27 
ROOT
HETATM    1  N   UNL     1       5.863  31.272  57.909  1.00  0.00    -0.351 N 
HETATM    2  C   UNL     1       5.109  30.168  57.596  1.00  0.00     0.251 C 
HETATM    3  O   UNL     1       3.882  30.175  57.621  1.00  0.00    -0.268 OA
HETATM    4  H   UNL     1       6.869  31.232  58.030  1.00  0.00     0.163 HD
ENDROOT
BRANCH   2   5
HETATM    5  C   UNL     1       5.845  28.916  57.263  1.00  0.00     0.032 A 
HETATM    6  C   UNL     1       5.251  28.025  56.361  1.00  0.00     0.017 A 
HETATM    7  C   UNL     1       5.885  26.826  56.030  1.00  0.00     0.010 A 
HETATM    8  C   UNL     1       7.125  26.499  56.594  1.00  0.00    -0.034 A 
HETATM    9  C   UNL     1       7.737  27.413  57.464  1.00  0.00     0.010 A 
HETATM   10  C   UNL     1       7.102  28.614  57.800  1.00  0.00     0.017 A 
BRANCH   8  11
HETATM   11  C   UNL     1       7.796  25.192  56.245  1.00  0.00     0.214 C 
BRANCH  11  12
HETATM   12  O   UNL     1       6.820  24.308  55.702  1.00  0.00    -0.347 OA
BRANCH  12  13
HETATM   13  C   UNL     1       7.283  23.162  55.116  1.00  0.00     0.069 A 
HETATM   14  C   UNL     1       7.519  21.944  55.757  1.00  0.00     0.037 A 
HETATM   15  C   UNL     1       7.993  20.847  55.031  1.00  0.00     0.003 A 
HETATM   16  C   UNL     1       8.235  20.960  53.664  1.00  0.00     0.000 A 
HETATM   17  C   UNL     1       8.004  22.173  53.018  1.00  0.00     0.003 A 
HETATM   18  C   UNL     1       7.529  23.268  53.744  1.00  0.00     0.037 A 
ENDBRANCH  12  13
ENDBRANCH  11  12
ENDBRANCH   8  11
ENDBRANCH   2   5
BRANCH   1  19
HETATM   19  C   UNL     1       5.232  32.493  58.361  1.00  0.00     0.182 C 
BRANCH  19  20
HETATM   20  C   UNL     1       5.544  32.807  59.809  1.00  0.00     0.052 A 
HETATM   21  N   UNL     1       4.543  33.286  60.598  1.00  0.00    -0.256 NA
HETATM   22  C   UNL     1       4.828  33.572  61.897  1.00  0.00     0.040 A 
HETATM   23  C   UNL     1       3.671  34.088  62.704  1.00  0.00     0.071 C 
HETATM   24  C   UNL     1       6.105  33.406  62.453  1.00  0.00    -0.006 A 
HETATM   25  C   UNL     1       7.109  32.909  61.611  1.00  0.00     0.014 A 
HETATM   26  C   UNL     1       6.833  32.609  60.282  1.00  0.00     0.029 A 
BRANCH  24  27
HETATM   27  C   UNL     1       6.405  33.694  63.907  1.00  0.00     0.149 C 
HETATM   28  C   UNL     1       7.660  32.963  64.372  1.00  0.00     0.044 C 
BRANCH  27  29
HETATM   29  O   UNL     1       6.594  35.098  64.092  1.00  0.00    -0.391 OA
HETATM   30  H   UNL     1       7.478  35.222  64.479  1.00  0.00     0.210 HD
ENDBRANCH  27  29
ENDBRANCH  24  27
ENDBRANCH  19  20
ENDBRANCH   1  19
TORSDOF 8
ENDMDL
MODEL 9
REMARK VINA RESULT:      -8.3      6.757     10.725
REMARK  8 active torsions:
REMARK  status: ('A' for Active; 'I' for Inactive)
REMARK    1  A    between atoms: C_4  and  C_5 
REMARK    2  A    between atoms: C_5  and  N_6 
REMARK       I    between atoms: N_6  and  C_7 
REMARK    3  A    between atoms: C_7  and  C_8 
REMARK    4  A    between atoms: C_11  and  C_12 
REMARK    5  A    between atoms: C_12  and  O_13 
REMARK    6  A    between atoms: O_13  and  C_14 
REMARK    7  A    between atoms: C_25  and  C_26 
REMARK    8  A    between atoms: C_26  and  O_27 
ROOT
HETATM    1  N   UNL     1       5.088  28.494  50.036  1.00  0.00    -0.351 N 
HETATM    2  C   UNL     1       4.651  28.344  51.329  1.00  0.00     0.251 C 
HETATM    3  O   UNL     1       3.716  28.989  51.792  1.00  0.00    -0.268 OA
HETATM    4  H   UNL     1       5.944  28.073  49.695  1.00  0.00     0.163 HD
ENDROOT
BRANCH   2   5
HETATM    5  C   UNL     1       5.396  27.382  52.189  1.00  0.00     0.032 A 
HETATM    6  C   UNL     1       6.428  27.882  52.993  1.00  0.00     0.017 A 
HETATM    7  C   UNL     1       7.174  27.023  53.802  1.00  0.00     0.010 A 
HETATM    8  C   UNL     1       6.901  25.649  53.820  1.00  0.00    -0.034 A 
HETATM    9  C   UNL     1       5.839  25.157  53.046  1.00  0.00     0.010 A 
HETATM   10  C   UNL     1       5.092  26.017  52.233  1.00  0.00     0.017 A 
BRANCH   8  11
HETATM   11  C   UNL     1       7.725  24.723  54.684  1.00  0.00     0.214 C 
BRANCH  11  12
HETATM   12  O   UNL     1       6.951  23.565  54.979  1.00  0.00    -0.347 OA
BRANCH  12  13
HETATM   13  C   UNL     1       7.556  22.353  54.786  1.00  0.00     0.069 A 
HETATM   14  C   UNL     1       7.920  21.445  55.783  1.00  0.00     0.037 A 
HETATM   15  C   UNL     1       8.533  20.234  55.442  1.00  0.00     0.003 A 
HETATM   16  C   UNL     1       8.786  19.927  54.107  1.00  0.00     0.000 A 
HETATM   17  C   UNL     1       8.429  20.829  53.108  1.00  0.00     0.003 A 
HETATM   18  C   UNL     1       7.815  22.037  53.449  1.00  0.00     0.037 A 
ENDBRANCH  12  13
ENDBRANCH  11  12
ENDBRANCH   8  11
ENDBRANCH   2   5
BRANCH   1  19
HETATM   19  C   UNL     1       4.500  29.492  49.169  1.00  0.00     0.182 C 
BRANCH  19  20
HETATM   20  C   UNL     1       3.292  28.971  48.420  1.00  0.00     0.052 A 
HETATM   21  N   UNL     1       3.302  27.679  47.991  1.00  0.00    -0.256 NA
HETATM   22  C   UNL     1       2.218  27.216  47.313  1.00  0.00     0.040 A 
HETATM   23  C   UNL     1       2.303  25.781  46.880  1.00  0.00     0.071 C 
HETATM   24  C   UNL     1       1.099  28.012  47.028  1.00  0.00    -0.006 A 
HETATM   25  C   UNL     1       1.123  29.336  47.487  1.00  0.00     0.014 A 
HETATM   26  C   UNL     1       2.223  29.823  48.184  1.00  0.00     0.029 A 
BRANCH  24  27
HETATM   27  C   UNL     1      -0.117  27.481  46.303  1.00  0.00     0.149 C 
HETATM   28  C   UNL     1      -1.184  28.558  46.141  1.00  0.00     0.044 C 
BRANCH  27  29
HETATM   29  O   UNL     1       0.260  27.007  45.009  1.00  0.00    -0.391 OA
HETATM   30  H   UNL     1       0.189  27.757  44.394  1.00  0.00     0.210 HD
ENDBRANCH  27  29
ENDBRANCH  24  27
ENDBRANCH  19  20
ENDBRANCH   1  19
TORSDOF 8
ENDMDL
MODEL 10
REMARK VINA RESULT:      -8.0      3.463      4.184
REMARK  8 active torsions:
REMARK  status: ('A' for Active; 'I' for Inactive)
REMARK    1  A    between atoms: C_4  and  C_5 
REMARK    2  A    between atoms: C_5  and  N_6 
REMARK       I    between atoms: N_6  and  C_7 
REMARK    3  A    between atoms: C_7  and  C_8 
REMARK    4  A    between atoms: C_11  and  C_12 
REMARK    5  A    between atoms: C_12  and  O_13 
REMARK    6  A    between atoms: O_13  and  C_14 
REMARK    7  A    between atoms: C_25  and  C_26 
REMARK    8  A    between atoms: C_26  and  O_27 
ROOT
HETATM    1  N   UNL     1       7.527  30.269  59.354  1.00  0.00    -0.351 N 
HETATM    2  C   UNL     1       7.899  29.465  58.304  1.00  0.00     0.251 C 
HETATM    3  O   UNL     1       9.030  29.002  58.193  1.00  0.00    -0.268 OA
HETATM    4  H   UNL     1       6.646  30.768  59.376  1.00  0.00     0.163 HD
ENDROOT
BRANCH   2   5
HETATM    5  C   UNL     1       6.875  29.203  57.255  1.00  0.00     0.032 A 
HETATM    6  C   UNL     1       6.461  27.880  57.055  1.00  0.00     0.017 A 
HETATM    7  C   UNL     1       5.521  27.574  56.070  1.00  0.00     0.010 A 
HETATM    8  C   UNL     1       4.978  28.585  55.268  1.00  0.00    -0.034 A 
HETATM    9  C   UNL     1       5.363  29.915  55.498  1.00  0.00     0.010 A 
HETATM   10  C   UNL     1       6.308  30.224  56.484  1.00  0.00     0.017 A 
BRANCH   8  11
HETATM   11  C   UNL     1       3.975  28.244  54.192  1.00  0.00     0.214 C 
BRANCH  11  12
HETATM   12  O   UNL     1       4.350  28.911  52.990  1.00  0.00    -0.347 OA
BRANCH  12  13
HETATM   13  C   UNL     1       4.420  28.148  51.857  1.00  0.00     0.069 A 
HETATM   14  C   UNL     1       3.897  28.479  50.605  1.00  0.00     0.037 A 
HETATM   15  C   UNL     1       4.045  27.601  49.526  1.00  0.00     0.003 A 
HETATM   16  C   UNL     1       4.714  26.390  49.692  1.00  0.00     0.000 A 
HETATM   17  C   UNL     1       5.236  26.053  50.938  1.00  0.00     0.003 A 
HETATM   18  C   UNL     1       5.089  26.930  52.015  1.00  0.00     0.037 A 
ENDBRANCH  12  13
ENDBRANCH  11  12
ENDBRANCH   8  11
ENDBRANCH   2   5
BRANCH   1  19
HETATM   19  C   UNL     1       8.493  30.672  60.353  1.00  0.00     0.182 C 
BRANCH  19  20
HETATM   20  C   UNL     1       7.887  31.553  61.425  1.00  0.00     0.052 A 
HETATM   21  N   UNL     1       6.640  32.061  61.218  1.00  0.00    -0.256 NA
HETATM   22  C   UNL     1       6.101  32.857  62.180  1.00  0.00     0.040 A 
HETATM   23  C   UNL     1       4.722  33.372  61.882  1.00  0.00     0.071 C 
HETATM   24  C   UNL     1       6.774  33.185  63.366  1.00  0.00    -0.006 A 
HETATM   25  C   UNL     1       8.054  32.642  63.544  1.00  0.00     0.014 A 
HETATM   26  C   UNL     1       8.618  31.824  62.572  1.00  0.00     0.029 A 
BRANCH  24  27
HETATM   27  C   UNL     1       6.155  34.042  64.445  1.00  0.00     0.149 C 
HETATM   28  C   UNL     1       6.791  33.773  65.805  1.00  0.00     0.044 C 
BRANCH  27  29
HETATM   29  O   UNL     1       6.325  35.424  64.123  1.00  0.00    -0.391 OA
HETATM   30  H   UNL     1       6.526  35.477  63.173  1.00  0.00     0.210 HD
ENDBRANCH  27  29
ENDBRANCH  24  27
ENDBRANCH  19  20
ENDBRANCH   1  19
TORSDOF 8
ENDMDL
