MODEL 1
REMARK VINA RESULT:      -8.9      0.000      0.000
REMARK  3 active torsions:
REMARK  status: ('A' for Active; 'I' for Inactive)
REMARK    1  A    between atoms: C_3  and  N_4 
REMARK       I    between atoms: N_4  and  C_5 
REMARK    2  A    between atoms: C_5  and  C_6 
REMARK    3  A    between atoms: C_6  and  C_7 
ROOT
HETATM    1  C   UNL     1       6.961  26.119  56.040  1.00  0.00     0.286 C 
HETATM    2  N   UNL     1       6.051  25.355  55.080  1.00  0.00    -0.056 N 
HETATM    3  H   UNL     1       5.186  25.141  55.592  1.00  0.00     0.278 HD
HETATM    4  H   UNL     1       5.731  26.014  54.337  1.00  0.00     0.278 HD
HETATM    5  C   UNL     1       6.565  24.083  54.481  1.00  0.00     0.209 C 
HETATM    6  C   UNL     1       7.176  23.205  55.594  1.00  0.00     0.115 C 
HETATM    7  N   UNL     1       8.137  23.942  56.408  1.00  0.00    -0.353 N 
HETATM    8  C   UNL     1       7.958  25.239  56.813  1.00  0.00     0.249 C 
HETATM    9  O   UNL     1       8.636  25.691  57.731  1.00  0.00    -0.271 OA
HETATM   10  C   UNL     1       7.541  24.377  53.342  1.00  0.00     0.035 C 
HETATM   11  C   UNL     1       8.106  23.079  52.769  1.00  0.00     0.002 C 
HETATM   12  C   UNL     1       8.766  22.232  53.854  1.00  0.00     0.002 C 
HETATM   13  C   UNL     1       7.806  21.936  55.007  1.00  0.00     0.027 C 
HETATM   14  H   UNL     1       8.765  23.419  57.017  1.00  0.00     0.163 HD
ENDROOT
BRANCH   1  15
HETATM   15  C   UNL     1       7.732  27.271  55.375  1.00  0.00     0.146 C 
BRANCH  15  16
HETATM   16  C   UNL     1       7.596  28.568  56.137  1.00  0.00     0.224 C 
HETATM   17  N   UNL     1       8.464  28.682  57.198  1.00  0.00    -0.327 N 
HETATM   18  H   UNL     1       9.004  27.863  57.452  1.00  0.00     0.169 HD
HETATM   19  O   UNL     1       6.782  29.401  55.739  1.00  0.00    -0.273 OA
BRANCH  17  20
HETATM   20  C   UNL     1       8.653  29.808  58.040  1.00  0.00     0.040 A 
HETATM   21  C   UNL     1       9.905  30.464  58.029  1.00  0.00    -0.035 A 
HETATM   22  C   UNL     1      11.064  29.994  57.191  1.00  0.00     0.050 C 
HETATM   23  C   UNL     1      10.095  31.596  58.842  1.00  0.00     0.009 A 
HETATM   24  C   UNL     1       9.070  32.078  59.652  1.00  0.00     0.001 A 
HETATM   25  C   UNL     1       7.841  31.433  59.661  1.00  0.00     0.002 A 
HETATM   26  C   UNL     1       7.634  30.306  58.861  1.00  0.00     0.030 A 
ENDBRANCH  17  20
ENDBRANCH  15  16
ENDBRANCH   1  15
TORSDOF 3
ENDMDL
MODEL 2
REMARK VINA RESULT:      -8.8      4.836      8.086
REMARK  3 active torsions:
REMARK  status: ('A' for Active; 'I' for Inactive)
REMARK    1  A    between atoms: C_3  and  N_4 
REMARK       I    between atoms: N_4  and  C_5 
REMARK    2  A    between atoms: C_5  and  C_6 
REMARK    3  A    between atoms: C_6  and  C_7 
ROOT
HETATM    1  C   UNL     1       5.236  27.109  51.398  1.00  0.00     0.286 C 
HETATM    2  N   UNL     1       5.615  27.025  49.920  1.00  0.00    -0.056 N 
HETATM    3  H   UNL     1       6.318  27.754  49.747  1.00  0.00     0.278 HD
HETATM    4  H   UNL     1       6.147  26.140  49.768  1.00  0.00     0.278 HD
HETATM    5  C   UNL     1       4.527  27.175  48.903  1.00  0.00     0.209 C 
HETATM    6  C   UNL     1       3.664  28.405  49.257  1.00  0.00     0.115 C 
HETATM    7  N   UNL     1       3.218  28.379  50.646  1.00  0.00    -0.353 N 
HETATM    8  C   UNL     1       4.007  27.984  51.694  1.00  0.00     0.249 C 
HETATM    9  O   UNL     1       3.685  28.273  52.843  1.00  0.00    -0.271 OA
HETATM   10  C   UNL     1       3.716  25.885  48.783  1.00  0.00     0.035 C 
HETATM   11  C   UNL     1       2.573  26.058  47.785  1.00  0.00     0.002 C 
HETATM   12  C   UNL     1       1.680  27.237  48.162  1.00  0.00     0.002 C 
HETATM   13  C   UNL     1       2.476  28.535  48.296  1.00  0.00     0.027 C 
HETATM   14  H   UNL     1       2.466  29.007  50.929  1.00  0.00     0.163 HD
ENDROOT
BRANCH   1  15
HETATM   15  C   UNL     1       5.039  25.738  52.065  1.00  0.00     0.146 C 
BRANCH  15  16
HETATM   16  C   UNL     1       6.352  25.077  52.417  1.00  0.00     0.224 C 
HETATM   17  N   UNL     1       6.249  24.137  53.415  1.00  0.00    -0.327 N 
HETATM   18  H   UNL     1       5.365  24.068  53.905  1.00  0.00     0.169 HD
HETATM   19  O   UNL     1       7.358  25.391  51.780  1.00  0.00    -0.273 OA
BRANCH  17  20
HETATM   20  C   UNL     1       7.269  23.278  53.899  1.00  0.00     0.040 A 
HETATM   21  C   UNL     1       7.728  23.446  55.225  1.00  0.00    -0.035 A 
HETATM   22  C   UNL     1       7.209  24.528  56.136  1.00  0.00     0.050 C 
HETATM   23  C   UNL     1       8.722  22.585  55.724  1.00  0.00     0.009 A 
HETATM   24  C   UNL     1       9.255  21.571  54.932  1.00  0.00     0.001 A 
HETATM   25  C   UNL     1       8.802  21.406  53.630  1.00  0.00     0.002 A 
HETATM   26  C   UNL     1       7.816  22.254  53.117  1.00  0.00     0.030 A 
ENDBRANCH  17  20
ENDBRANCH  15  16
ENDBRANCH   1  15
TORSDOF 3
ENDMDL
MODEL 3
REMARK VINA RESULT:      -8.7      2.979      7.618
REMARK  3 active torsions:
REMARK  status: ('A' for Active; 'I' for Inactive)
REMARK    1  A    between atoms: C_3  and  N_4 
REMARK       I    between atoms: N_4  and  C_5 
REMARK    2  A    between atoms: C_5  and  C_6 
REMARK    3  A    between atoms: C_6  and  C_7 
ROOT
HETATM    1  C   UNL     1       6.161  26.576  55.368  1.00  0.00     0.286 C 
HETATM    2  N   UNL     1       4.781  26.929  55.920  1.00  0.00    -0.056 N 
HETATM    3  H   UNL     1       4.088  26.496  55.297  1.00  0.00     0.278 HD
HETATM    4  H   UNL     1       4.646  26.416  56.819  1.00  0.00     0.278 HD
HETATM    5  C   UNL     1       4.430  28.377  56.074  1.00  0.00     0.209 C 
HETATM    6  C   UNL     1       4.796  29.130  54.777  1.00  0.00     0.115 C 
HETATM    7  N   UNL     1       6.167  28.863  54.356  1.00  0.00    -0.353 N 
HETATM    8  C   UNL     1       6.759  27.629  54.419  1.00  0.00     0.249 C 
HETATM    9  O   UNL     1       7.782  27.408  53.778  1.00  0.00    -0.271 OA
HETATM   10  C   UNL     1       5.093  28.965  57.319  1.00  0.00     0.035 C 
HETATM   11  C   UNL     1       4.779  30.454  57.443  1.00  0.00     0.002 C 
HETATM   12  C   UNL     1       5.192  31.216  56.188  1.00  0.00     0.002 C 
HETATM   13  C   UNL     1       4.546  30.635  54.930  1.00  0.00     0.027 C 
HETATM   14  H   UNL     1       6.590  29.471  53.656  1.00  0.00     0.163 HD
ENDROOT
BRANCH   1  15
HETATM   15  C   UNL     1       7.196  26.248  56.456  1.00  0.00     0.146 C 
BRANCH  15  16
HETATM   16  C   UNL     1       7.824  24.888  56.260  1.00  0.00     0.224 C 
HETATM   17  N   UNL     1       7.149  24.089  55.368  1.00  0.00    -0.327 N 
HETATM   18  H   UNL     1       6.249  24.413  55.036  1.00  0.00     0.169 HD
HETATM   19  O   UNL     1       8.869  24.632  56.859  1.00  0.00    -0.273 OA
BRANCH  17  20
HETATM   20  C   UNL     1       7.533  22.807  54.897  1.00  0.00     0.040 A 
HETATM   21  C   UNL     1       7.868  22.656  53.532  1.00  0.00    -0.035 A 
HETATM   22  C   UNL     1       7.793  23.790  52.544  1.00  0.00     0.050 C 
HETATM   23  C   UNL     1       8.274  21.395  53.059  1.00  0.00     0.009 A 
HETATM   24  C   UNL     1       8.353  20.300  53.914  1.00  0.00     0.001 A 
HETATM   25  C   UNL     1       8.025  20.450  55.255  1.00  0.00     0.002 A 
HETATM   26  C   UNL     1       7.618  21.694  55.743  1.00  0.00     0.030 A 
ENDBRANCH  17  20
ENDBRANCH  15  16
ENDBRANCH   1  15
TORSDOF 3
ENDMDL
MODEL 4
REMARK VINA RESULT:      -8.7      2.600      7.458
REMARK  3 active torsions:
REMARK  status: ('A' for Active; 'I' for Inactive)
REMARK    1  A    between atoms: C_3  and  N_4 
REMARK       I    between atoms: N_4  and  C_5 
REMARK    2  A    between atoms: C_5  and  C_6 
REMARK    3  A    between atoms: C_6  and  C_7 
ROOT
HETATM    1  C   UNL     1       5.177  27.197  53.963  1.00  0.00     0.286 C 
HETATM    2  N   UNL     1       4.953  26.716  55.396  1.00  0.00    -0.056 N 
HETATM    3  H   UNL     1       3.937  26.655  55.538  1.00  0.00     0.278 HD
HETATM    4  H   UNL     1       5.262  25.721  55.460  1.00  0.00     0.278 HD
HETATM    5  C   UNL     1       5.533  27.527  56.512  1.00  0.00     0.209 C 
HETATM    6  C   UNL     1       5.189  29.016  56.292  1.00  0.00     0.115 C 
HETATM    7  N   UNL     1       5.538  29.466  54.949  1.00  0.00    -0.353 N 
HETATM    8  C   UNL     1       5.341  28.719  53.817  1.00  0.00     0.249 C 
HETATM    9  O   UNL     1       5.365  29.260  52.716  1.00  0.00    -0.271 OA
HETATM   10  C   UNL     1       7.034  27.270  56.646  1.00  0.00     0.035 C 
HETATM   11  C   UNL     1       7.632  28.140  57.749  1.00  0.00     0.002 C 
HETATM   12  C   UNL     1       7.348  29.620  57.507  1.00  0.00     0.002 C 
HETATM   13  C   UNL     1       5.851  29.894  57.360  1.00  0.00     0.027 C 
HETATM   14  H   UNL     1       5.570  30.468  54.762  1.00  0.00     0.163 HD
ENDROOT
BRANCH   1  15
HETATM   15  C   UNL     1       6.353  26.504  53.256  1.00  0.00     0.146 C 
BRANCH  15  16
HETATM   16  C   UNL     1       6.285  24.999  53.367  1.00  0.00     0.224 C 
HETATM   17  N   UNL     1       7.485  24.412  53.693  1.00  0.00    -0.327 N 
HETATM   18  H   UNL     1       8.310  25.000  53.695  1.00  0.00     0.169 HD
HETATM   19  O   UNL     1       5.197  24.446  53.205  1.00  0.00    -0.273 OA
BRANCH  17  20
HETATM   20  C   UNL     1       7.728  23.042  53.968  1.00  0.00     0.040 A 
HETATM   21  C   UNL     1       7.813  22.621  55.314  1.00  0.00    -0.035 A 
HETATM   22  C   UNL     1       7.699  23.574  56.474  1.00  0.00     0.050 C 
HETATM   23  C   UNL     1       8.030  21.260  55.598  1.00  0.00     0.009 A 
HETATM   24  C   UNL     1       8.158  20.326  54.574  1.00  0.00     0.001 A 
HETATM   25  C   UNL     1       8.073  20.740  53.251  1.00  0.00     0.002 A 
HETATM   26  C   UNL     1       7.860  22.088  52.950  1.00  0.00     0.030 A 
ENDBRANCH  17  20
ENDBRANCH  15  16
ENDBRANCH   1  15
TORSDOF 3
ENDMDL
MODEL 5
REMARK VINA RESULT:      -8.5      1.734      7.501
REMARK  3 active torsions:
REMARK  status: ('A' for Active; 'I' for Inactive)
REMARK    1  A    between atoms: C_3  and  N_4 
REMARK       I    between atoms: N_4  and  C_5 
REMARK    2  A    between atoms: C_5  and  C_6 
REMARK    3  A    between atoms: C_6  and  C_7 
ROOT
HETATM    1  C   UNL     1       7.422  27.064  55.965  1.00  0.00     0.286 C 
HETATM    2  N   UNL     1       7.640  28.411  55.278  1.00  0.00    -0.056 N 
HETATM    3  H   UNL     1       8.600  28.409  54.910  1.00  0.00     0.278 HD
HETATM    4  H   UNL     1       7.053  28.438  54.415  1.00  0.00     0.278 HD
HETATM    5  C   UNL     1       7.454  29.656  56.089  1.00  0.00     0.209 C 
HETATM    6  C   UNL     1       8.207  29.509  57.429  1.00  0.00     0.115 C 
HETATM    7  N   UNL     1       7.870  28.265  58.112  1.00  0.00    -0.353 N 
HETATM    8  C   UNL     1       7.711  27.062  57.475  1.00  0.00     0.249 C 
HETATM    9  O   UNL     1       7.735  26.020  58.124  1.00  0.00    -0.271 OA
HETATM   10  C   UNL     1       5.968  29.971  56.264  1.00  0.00     0.035 C 
HETATM   11  C   UNL     1       5.780  31.209  57.137  1.00  0.00     0.002 C 
HETATM   12  C   UNL     1       6.472  31.048  58.488  1.00  0.00     0.002 C 
HETATM   13  C   UNL     1       7.958  30.723  58.332  1.00  0.00     0.027 C 
HETATM   14  H   UNL     1       8.122  28.164  59.095  1.00  0.00     0.163 HD
ENDROOT
BRANCH   1  15
HETATM   15  C   UNL     1       6.024  26.470  55.730  1.00  0.00     0.146 C 
BRANCH  15  16
HETATM   16  C   UNL     1       6.076  25.154  54.988  1.00  0.00     0.224 C 
HETATM   17  N   UNL     1       7.215  24.424  55.234  1.00  0.00    -0.327 N 
HETATM   18  H   UNL     1       7.955  24.872  55.761  1.00  0.00     0.169 HD
HETATM   19  O   UNL     1       5.116  24.837  54.285  1.00  0.00    -0.273 OA
BRANCH  17  20
HETATM   20  C   UNL     1       7.517  23.117  54.774  1.00  0.00     0.040 A 
HETATM   21  C   UNL     1       7.877  22.937  53.420  1.00  0.00    -0.035 A 
HETATM   22  C   UNL     1       7.914  24.071  52.429  1.00  0.00     0.050 C 
HETATM   23  C   UNL     1       8.202  21.648  52.958  1.00  0.00     0.009 A 
HETATM   24  C   UNL     1       8.176  20.552  53.816  1.00  0.00     0.001 A 
HETATM   25  C   UNL     1       7.823  20.730  55.148  1.00  0.00     0.002 A 
HETATM   26  C   UNL     1       7.495  22.003  55.623  1.00  0.00     0.030 A 
ENDBRANCH  17  20
ENDBRANCH  15  16
ENDBRANCH   1  15
TORSDOF 3
ENDMDL
MODEL 6
REMARK VINA RESULT:      -8.3      3.394      7.176
REMARK  3 active torsions:
REMARK  status: ('A' for Active; 'I' for Inactive)
REMARK    1  A    between atoms: C_3  and  N_4 
REMARK       I    between atoms: N_4  and  C_5 
REMARK    2  A    between atoms: C_5  and  C_6 
REMARK    3  A    between atoms: C_6  and  C_7 
ROOT
HETATM    1  C   UNL     1       6.811  26.988  55.679  1.00  0.00     0.286 C 
HETATM    2  N   UNL     1       7.631  26.867  54.395  1.00  0.00    -0.056 N 
HETATM    3  H   UNL     1       8.433  27.502  54.490  1.00  0.00     0.278 HD
HETATM    4  H   UNL     1       8.075  25.923  54.377  1.00  0.00     0.278 HD
HETATM    5  C   UNL     1       6.952  27.163  53.094  1.00  0.00     0.209 C 
HETATM    6  C   UNL     1       6.173  28.491  53.215  1.00  0.00     0.115 C 
HETATM    7  N   UNL     1       5.306  28.511  54.387  1.00  0.00    -0.353 N 
HETATM    8  C   UNL     1       5.663  28.009  55.612  1.00  0.00     0.249 C 
HETATM    9  O   UNL     1       5.027  28.328  56.612  1.00  0.00    -0.271 OA
HETATM   10  C   UNL     1       6.076  25.989  52.660  1.00  0.00     0.035 C 
HETATM   11  C   UNL     1       5.343  26.315  51.361  1.00  0.00     0.002 C 
HETATM   12  C   UNL     1       4.522  27.595  51.491  1.00  0.00     0.002 C 
HETATM   13  C   UNL     1       5.382  28.780  51.935  1.00  0.00     0.027 C 
HETATM   14  H   UNL     1       4.583  29.227  54.448  1.00  0.00     0.163 HD
ENDROOT
BRANCH   1  15
HETATM   15  C   UNL     1       6.249  25.648  56.181  1.00  0.00     0.146 C 
BRANCH  15  16
HETATM   16  C   UNL     1       7.258  24.527  56.077  1.00  0.00     0.224 C 
HETATM   17  N   UNL     1       6.782  23.411  55.431  1.00  0.00    -0.327 N 
HETATM   18  H   UNL     1       5.794  23.382  55.210  1.00  0.00     0.169 HD
HETATM   19  O   UNL     1       8.390  24.712  56.524  1.00  0.00    -0.273 OA
BRANCH  17  20
HETATM   20  C   UNL     1       7.505  22.240  55.087  1.00  0.00     0.040 A 
HETATM   21  C   UNL     1       8.013  22.114  53.774  1.00  0.00    -0.035 A 
HETATM   22  C   UNL     1       7.785  23.153  52.709  1.00  0.00     0.050 C 
HETATM   23  C   UNL     1       8.753  20.968  53.429  1.00  0.00     0.009 A 
HETATM   24  C   UNL     1       8.991  19.962  54.362  1.00  0.00     0.001 A 
HETATM   25  C   UNL     1       8.492  20.087  55.651  1.00  0.00     0.002 A 
HETATM   26  C   UNL     1       7.754  21.218  56.011  1.00  0.00     0.030 A 
ENDBRANCH  17  20
ENDBRANCH  15  16
ENDBRANCH   1  15
TORSDOF 3
ENDMDL
MODEL 7
REMARK VINA RESULT:      -8.1      2.358      7.621
REMARK  3 active torsions:
REMARK  status: ('A' for Active; 'I' for Inactive)
REMARK    1  A    between atoms: C_3  and  N_4 
REMARK       I    between atoms: N_4  and  C_5 
REMARK    2  A    between atoms: C_5  and  C_6 
REMARK    3  A    between atoms: C_6  and  C_7 
ROOT
HETATM    1  C   UNL     1       7.104  28.001  55.948  1.00  0.00     0.286 C 
HETATM    2  N   UNL     1       6.532  29.182  55.166  1.00  0.00    -0.056 N 
HETATM    3  H   UNL     1       7.330  29.725  54.815  1.00  0.00     0.278 HD
HETATM    4  H   UNL     1       6.090  28.815  54.294  1.00  0.00     0.278 HD
HETATM    5  C   UNL     1       5.607  30.120  55.879  1.00  0.00     0.209 C 
HETATM    6  C   UNL     1       6.226  30.511  57.238  1.00  0.00     0.115 C 
HETATM    7  N   UNL     1       6.642  29.343  58.007  1.00  0.00    -0.353 N 
HETATM    8  C   UNL     1       7.254  28.245  57.459  1.00  0.00     0.249 C 
HETATM    9  O   UNL     1       7.845  27.450  58.184  1.00  0.00    -0.271 OA
HETATM   10  C   UNL     1       4.211  29.511  56.006  1.00  0.00     0.035 C 
HETATM   11  C   UNL     1       3.286  30.446  56.782  1.00  0.00     0.002 C 
HETATM   12  C   UNL     1       3.863  30.790  58.152  1.00  0.00     0.002 C 
HETATM   13  C   UNL     1       5.264  31.391  58.044  1.00  0.00     0.027 C 
HETATM   14  H   UNL     1       6.850  29.459  58.998  1.00  0.00     0.163 HD
ENDROOT
BRANCH   1  15
HETATM   15  C   UNL     1       6.333  26.688  55.735  1.00  0.00     0.146 C 
BRANCH  15  16
HETATM   16  C   UNL     1       7.121  25.683  54.928  1.00  0.00     0.224 C 
HETATM   17  N   UNL     1       7.031  24.396  55.404  1.00  0.00    -0.327 N 
HETATM   18  H   UNL     1       6.575  24.257  56.297  1.00  0.00     0.169 HD
HETATM   19  O   UNL     1       7.723  26.075  53.928  1.00  0.00    -0.273 OA
BRANCH  17  20
HETATM   20  C   UNL     1       7.567  23.221  54.818  1.00  0.00     0.040 A 
HETATM   21  C   UNL     1       8.196  22.269  55.652  1.00  0.00    -0.035 A 
HETATM   22  C   UNL     1       8.360  22.469  57.136  1.00  0.00     0.050 C 
HETATM   23  C   UNL     1       8.710  21.089  55.085  1.00  0.00     0.009 A 
HETATM   24  C   UNL     1       8.605  20.846  53.718  1.00  0.00     0.001 A 
HETATM   25  C   UNL     1       7.985  21.781  52.899  1.00  0.00     0.002 A 
HETATM   26  C   UNL     1       7.471  22.959  53.445  1.00  0.00     0.030 A 
ENDBRANCH  17  20
ENDBRANCH  15  16
ENDBRANCH   1  15
TORSDOF 3
ENDMDL
MODEL 8
REMARK VINA RESULT:      -8.1      4.017      6.718
REMARK  3 active torsions:
REMARK  status: ('A' for Active; 'I' for Inactive)
REMARK    1  A    between atoms: C_3  and  N_4 
REMARK       I    between atoms: N_4  and  C_5 
REMARK    2  A    between atoms: C_5  and  C_6 
REMARK    3  A    between atoms: C_6  and  C_7 
ROOT
HETATM    1  C   UNL     1       5.728  27.052  54.951  1.00  0.00     0.286 C 
HETATM    2  N   UNL     1       5.025  25.797  54.435  1.00  0.00    -0.056 N 
HETATM    3  H   UNL     1       4.259  25.591  55.088  1.00  0.00     0.278 HD
HETATM    4  H   UNL     1       4.526  26.041  53.551  1.00  0.00     0.278 HD
HETATM    5  C   UNL     1       5.839  24.552  54.263  1.00  0.00     0.209 C 
HETATM    6  C   UNL     1       6.686  24.317  55.532  1.00  0.00     0.115 C 
HETATM    7  N   UNL     1       7.440  25.505  55.915  1.00  0.00    -0.353 N 
HETATM    8  C   UNL     1       6.938  26.780  55.859  1.00  0.00     0.249 C 
HETATM    9  O   UNL     1       7.498  27.684  56.473  1.00  0.00    -0.271 OA
HETATM   10  C   UNL     1       6.676  24.625  52.986  1.00  0.00     0.035 C 
HETATM   11  C   UNL     1       7.545  23.378  52.841  1.00  0.00     0.002 C 
HETATM   12  C   UNL     1       8.430  23.172  54.068  1.00  0.00     0.002 C 
HETATM   13  C   UNL     1       7.610  23.107  55.357  1.00  0.00     0.027 C 
HETATM   14  H   UNL     1       8.197  25.407  56.590  1.00  0.00     0.163 HD
ENDROOT
BRANCH   1  15
HETATM   15  C   UNL     1       6.154  28.023  53.838  1.00  0.00     0.146 C 
BRANCH  15  16
HETATM   16  C   UNL     1       5.216  27.987  52.654  1.00  0.00     0.224 C 
HETATM   17  N   UNL     1       5.851  27.794  51.449  1.00  0.00    -0.327 N 
HETATM   18  H   UNL     1       6.863  27.830  51.441  1.00  0.00     0.169 HD
HETATM   19  O   UNL     1       4.006  28.086  52.859  1.00  0.00    -0.273 OA
BRANCH  17  20
HETATM   20  C   UNL     1       5.249  27.615  50.177  1.00  0.00     0.040 A 
HETATM   21  C   UNL     1       5.251  28.694  49.264  1.00  0.00    -0.035 A 
HETATM   22  C   UNL     1       5.828  30.044  49.600  1.00  0.00     0.050 C 
HETATM   23  C   UNL     1       4.679  28.521  47.991  1.00  0.00     0.009 A 
HETATM   24  C   UNL     1       4.117  27.303  47.618  1.00  0.00     0.001 A 
HETATM   25  C   UNL     1       4.117  26.242  48.515  1.00  0.00     0.002 A 
HETATM   26  C   UNL     1       4.679  26.398  49.785  1.00  0.00     0.030 A 
ENDBRANCH  17  20
ENDBRANCH  15  16
ENDBRANCH   1  15
TORSDOF 3
ENDMDL
MODEL 9
REMARK VINA RESULT:      -8.0      4.905      9.955
REMARK  3 active torsions:
REMARK  status: ('A' for Active; 'I' for Inactive)
REMARK    1  A    between atoms: C_3  and  N_4 
REMARK       I    between atoms: N_4  and  C_5 
REMARK    2  A    between atoms: C_5  and  C_6 
REMARK    3  A    between atoms: C_6  and  C_7 
ROOT
HETATM    1  C   UNL     1       6.947  33.341  61.857  1.00  0.00     0.286 C 
HETATM    2  N   UNL     1       6.333  34.697  62.199  1.00  0.00    -0.056 N 
HETATM    3  H   UNL     1       7.081  35.397  62.115  1.00  0.00     0.278 HD
HETATM    4  H   UNL     1       5.673  34.961  61.434  1.00  0.00     0.278 HD
HETATM    5  C   UNL     1       5.688  34.862  63.540  1.00  0.00     0.209 C 
HETATM    6  C   UNL     1       6.631  34.311  64.631  1.00  0.00     0.115 C 
HETATM    7  N   UNL     1       7.093  32.961  64.324  1.00  0.00    -0.353 N 
HETATM    8  C   UNL     1       7.455  32.544  63.070  1.00  0.00     0.249 C 
HETATM    9  O   UNL     1       8.114  31.517  62.934  1.00  0.00    -0.271 OA
HETATM   10  C   UNL     1       4.303  34.216  63.559  1.00  0.00     0.035 C 
HETATM   11  C   UNL     1       3.671  34.337  64.943  1.00  0.00     0.002 C 
HETATM   12  C   UNL     1       4.571  33.740  66.021  1.00  0.00     0.002 C 
HETATM   13  C   UNL     1       5.965  34.369  66.010  1.00  0.00     0.027 C 
HETATM   14  H   UNL     1       7.528  32.413  65.066  1.00  0.00     0.163 HD
ENDROOT
BRANCH   1  15
HETATM   15  C   UNL     1       6.024  32.437  61.025  1.00  0.00     0.146 C 
BRANCH  15  16
HETATM   16  C   UNL     1       6.670  31.987  59.735  1.00  0.00     0.224 C 
HETATM   17  N   UNL     1       7.506  30.904  59.882  1.00  0.00    -0.327 N 
HETATM   18  H   UNL     1       7.717  30.599  60.825  1.00  0.00     0.169 HD
HETATM   19  O   UNL     1       6.377  32.574  58.694  1.00  0.00    -0.273 OA
BRANCH  17  20
HETATM   20  C   UNL     1       8.178  30.189  58.858  1.00  0.00     0.040 A 
HETATM   21  C   UNL     1       9.451  30.634  58.439  1.00  0.00    -0.035 A 
HETATM   22  C   UNL     1      10.111  31.865  59.003  1.00  0.00     0.050 C 
HETATM   23  C   UNL     1      10.137  29.918  57.441  1.00  0.00     0.009 A 
HETATM   24  C   UNL     1       9.581  28.778  56.866  1.00  0.00     0.001 A 
HETATM   25  C   UNL     1       8.330  28.340  57.280  1.00  0.00     0.002 A 
HETATM   26  C   UNL     1       7.633  29.040  58.269  1.00  0.00     0.030 A 
ENDBRANCH  17  20
ENDBRANCH  15  16
ENDBRANCH   1  15
TORSDOF 3
ENDMDL
MODEL 10
REMARK VINA RESULT:      -8.0      2.492      3.548
REMARK  3 active torsions:
REMARK  status: ('A' for Active; 'I' for Inactive)
REMARK    1  A    between atoms: C_3  and  N_4 
REMARK       I    between atoms: N_4  and  C_5 
REMARK    2  A    between atoms: C_5  and  C_6 
REMARK    3  A    between atoms: C_6  and  C_7 
ROOT
HETATM    1  C   UNL     1       6.975  28.898  55.846  1.00  0.00     0.286 C 
HETATM    2  N   UNL     1       7.357  28.711  54.379  1.00  0.00    -0.056 N 
HETATM    3  H   UNL     1       7.037  29.548  53.875  1.00  0.00     0.278 HD
HETATM    4  H   UNL     1       8.396  28.768  54.301  1.00  0.00     0.278 HD
HETATM    5  C   UNL     1       6.834  27.505  53.661  1.00  0.00     0.209 C 
HETATM    6  C   UNL     1       5.321  27.366  53.934  1.00  0.00     0.115 C 
HETATM    7  N   UNL     1       5.015  27.422  55.360  1.00  0.00    -0.353 N 
HETATM    8  C   UNL     1       5.621  28.283  56.238  1.00  0.00     0.249 C 
HETATM    9  O   UNL     1       5.112  28.494  57.335  1.00  0.00    -0.271 OA
HETATM   10  C   UNL     1       7.632  26.259  54.041  1.00  0.00     0.035 C 
HETATM   11  C   UNL     1       7.062  25.023  53.350  1.00  0.00     0.002 C 
HETATM   12  C   UNL     1       5.579  24.844  53.665  1.00  0.00     0.002 C 
HETATM   13  C   UNL     1       4.766  26.086  53.299  1.00  0.00     0.027 C 
HETATM   14  H   UNL     1       4.095  27.117  55.675  1.00  0.00     0.163 HD
ENDROOT
BRANCH   1  15
HETATM   15  C   UNL     1       8.045  28.402  56.831  1.00  0.00     0.146 C 
BRANCH  15  16
HETATM   16  C   UNL     1       8.568  29.509  57.717  1.00  0.00     0.224 C 
HETATM   17  N   UNL     1       7.768  29.773  58.805  1.00  0.00    -0.327 N 
HETATM   18  H   UNL     1       6.864  29.317  58.844  1.00  0.00     0.169 HD
HETATM   19  O   UNL     1       9.643  30.035  57.429  1.00  0.00    -0.273 OA
BRANCH  17  20
HETATM   20  C   UNL     1       8.029  30.675  59.867  1.00  0.00     0.040 A 
HETATM   21  C   UNL     1       7.207  31.816  60.010  1.00  0.00    -0.035 A 
HETATM   22  C   UNL     1       6.088  32.138  59.055  1.00  0.00     0.050 C 
HETATM   23  C   UNL     1       7.441  32.705  61.075  1.00  0.00     0.009 A 
HETATM   24  C   UNL     1       8.467  32.474  61.988  1.00  0.00     0.001 A 
HETATM   25  C   UNL     1       9.273  31.353  61.848  1.00  0.00     0.002 A 
HETATM   26  C   UNL     1       9.056  30.460  60.795  1.00  0.00     0.030 A 
ENDBRANCH  17  20
ENDBRANCH  15  16
ENDBRANCH   1  15
TORSDOF 3
ENDMDL
