MODEL 1
REMARK VINA RESULT:      -9.4      0.000      0.000
REMARK  5 active torsions:
REMARK  status: ('A' for Active; 'I' for Inactive)
REMARK    1  A    between atoms: C_2  and  C_3 
REMARK    2  A    between atoms: C_8  and  N_9 
REMARK       I    between atoms: N_9  and  C_10 
REMARK       I    between atoms: C_10  and  N_11 
REMARK    3  A    between atoms: N_11  and  C_12 
REMARK    4  A    between atoms: C_12  and  C_13 
REMARK    5  A    between atoms: C_13  and  C_14 
ROOT
HETATM    1  N   UNL     1       8.297  28.965  56.324  1.00  0.00    -0.305 N 
HETATM    2  C   UNL     1       8.125  27.632  56.617  1.00  0.00     0.320 C 
HETATM    3  N   UNL     1       7.635  26.943  55.529  1.00  0.00    -0.342 N 
HETATM    4  O   UNL     1       8.391  27.088  57.678  1.00  0.00    -0.247 OA
HETATM    5  H   UNL     1       8.428  29.183  55.348  1.00  0.00     0.171 HD
HETATM    6  H   UNL     1       7.132  27.472  54.833  1.00  0.00     0.164 HD
ENDROOT
BRANCH   3   7
HETATM    7  C   UNL     1       7.332  25.520  55.602  1.00  0.00     0.138 C 
BRANCH   7   8
HETATM    8  C   UNL     1       6.957  24.866  54.243  1.00  0.00     0.003 C 
HETATM    9  C   UNL     1       5.439  25.065  53.979  1.00  0.00     0.016 C 
HETATM   10  C   UNL     1       5.264  24.855  52.476  1.00  0.00     0.001 C 
HETATM   11  C   UNL     1       6.607  25.229  51.854  1.00  0.00     0.001 C 
HETATM   12  C   UNL     1       7.490  25.661  53.024  1.00  0.00     0.016 C 
BRANCH   8  13
HETATM   13  C   UNL     1       7.391  23.384  54.253  1.00  0.00    -0.048 A 
HETATM   14  C   UNL     1       7.348  22.611  55.428  1.00  0.00     0.008 A 
HETATM   15  C   UNL     1       7.753  21.272  55.435  1.00  0.00     0.001 A 
HETATM   16  C   UNL     1       8.234  20.679  54.273  1.00  0.00     0.000 A 
HETATM   17  C   UNL     1       8.315  21.428  53.106  1.00  0.00     0.001 A 
HETATM   18  C   UNL     1       7.902  22.763  53.097  1.00  0.00     0.008 A 
ENDBRANCH   8  13
ENDBRANCH   7   8
ENDBRANCH   3   7
BRANCH   1  19
HETATM   19  C   UNL     1       8.642  29.949  57.241  1.00  0.00     0.095 A 
HETATM   20  C   UNL     1       7.719  30.672  57.969  1.00  0.00     0.107 A 
HETATM   21  O   UNL     1       8.366  31.552  58.776  1.00  0.00    -0.215 OA
HETATM   22  N   UNL     1       9.726  31.411  58.619  1.00  0.00    -0.131 NA
HETATM   23  C   UNL     1       9.897  30.444  57.705  1.00  0.00     0.087 A 
HETATM   24  C   UNL     1      11.282  30.029  57.377  1.00  0.00     0.075 C 
BRANCH  20  25
HETATM   25  C   UNL     1       6.239  30.716  58.042  1.00  0.00     0.065 C 
HETATM   26  C   UNL     1       5.714  32.138  57.927  1.00  0.00     0.012 C 
ENDBRANCH  20  25
ENDBRANCH   1  19
TORSDOF 5
ENDMDL
MODEL 2
REMARK VINA RESULT:      -9.3      0.838      2.143
REMARK  5 active torsions:
REMARK  status: ('A' for Active; 'I' for Inactive)
REMARK    1  A    between atoms: C_2  and  C_3 
REMARK    2  A    between atoms: C_8  and  N_9 
REMARK       I    between atoms: N_9  and  C_10 
REMARK       I    between atoms: C_10  and  N_11 
REMARK    3  A    between atoms: N_11  and  C_12 
REMARK    4  A    between atoms: C_12  and  C_13 
REMARK    5  A    between atoms: C_13  and  C_14 
ROOT
HETATM    1  N   UNL     1       7.541  28.893  56.548  1.00  0.00    -0.305 N 
HETATM    2  C   UNL     1       7.684  27.547  56.786  1.00  0.00     0.320 C 
HETATM    3  N   UNL     1       7.543  26.818  55.625  1.00  0.00    -0.342 N 
HETATM    4  O   UNL     1       7.936  27.029  57.864  1.00  0.00    -0.247 OA
HETATM    5  H   UNL     1       7.742  29.192  55.606  1.00  0.00     0.171 HD
HETATM    6  H   UNL     1       7.019  27.240  54.873  1.00  0.00     0.164 HD
ENDROOT
BRANCH   3   7
HETATM    7  C   UNL     1       7.615  25.363  55.625  1.00  0.00     0.138 C 
BRANCH   7   8
HETATM    8  C   UNL     1       7.212  24.694  54.283  1.00  0.00     0.003 C 
HETATM    9  C   UNL     1       5.707  24.963  54.006  1.00  0.00     0.016 C 
HETATM   10  C   UNL     1       5.527  24.723  52.508  1.00  0.00     0.001 C 
HETATM   11  C   UNL     1       6.889  25.012  51.883  1.00  0.00     0.001 C 
HETATM   12  C   UNL     1       7.789  25.429  53.046  1.00  0.00     0.016 C 
BRANCH   8  13
HETATM   13  C   UNL     1       7.569  23.192  54.333  1.00  0.00    -0.048 A 
HETATM   14  C   UNL     1       7.402  22.433  55.506  1.00  0.00     0.008 A 
HETATM   15  C   UNL     1       7.739  21.077  55.551  1.00  0.00     0.001 A 
HETATM   16  C   UNL     1       8.273  20.450  54.431  1.00  0.00     0.000 A 
HETATM   17  C   UNL     1       8.476  21.183  53.268  1.00  0.00     0.001 A 
HETATM   18  C   UNL     1       8.132  22.536  53.221  1.00  0.00     0.008 A 
ENDBRANCH   8  13
ENDBRANCH   7   8
ENDBRANCH   3   7
BRANCH   1  19
HETATM   19  C   UNL     1       7.491  29.879  57.525  1.00  0.00     0.095 A 
HETATM   20  C   UNL     1       8.610  30.390  58.152  1.00  0.00     0.107 A 
HETATM   21  O   UNL     1       8.234  31.335  59.052  1.00  0.00    -0.215 OA
HETATM   22  N   UNL     1       6.867  31.488  59.018  1.00  0.00    -0.131 NA
HETATM   23  C   UNL     1       6.417  30.623  58.098  1.00  0.00     0.087 A 
HETATM   24  C   UNL     1       4.965  30.613  57.798  1.00  0.00     0.075 C 
BRANCH  20  25
HETATM   25  C   UNL     1      10.066  30.125  58.083  1.00  0.00     0.065 C 
HETATM   26  C   UNL     1      10.556  30.052  56.645  1.00  0.00     0.012 C 
ENDBRANCH  20  25
ENDBRANCH   1  19
TORSDOF 5
ENDMDL
MODEL 3
REMARK VINA RESULT:      -9.0      2.823      7.792
REMARK  5 active torsions:
REMARK  status: ('A' for Active; 'I' for Inactive)
REMARK    1  A    between atoms: C_2  and  C_3 
REMARK    2  A    between atoms: C_8  and  N_9 
REMARK       I    between atoms: N_9  and  C_10 
REMARK       I    between atoms: C_10  and  N_11 
REMARK    3  A    between atoms: N_11  and  C_12 
REMARK    4  A    between atoms: C_12  and  C_13 
REMARK    5  A    between atoms: C_13  and  C_14 
ROOT
HETATM    1  N   UNL     1       7.154  23.214  55.834  1.00  0.00    -0.305 N 
HETATM    2  C   UNL     1       7.865  24.245  56.400  1.00  0.00     0.320 C 
HETATM    3  N   UNL     1       7.041  25.084  57.118  1.00  0.00    -0.342 N 
HETATM    4  O   UNL     1       9.074  24.412  56.327  1.00  0.00    -0.247 OA
HETATM    5  H   UNL     1       6.288  22.979  56.294  1.00  0.00     0.171 HD
HETATM    6  H   UNL     1       6.063  25.097  56.870  1.00  0.00     0.164 HD
ENDROOT
BRANCH   3   7
HETATM    7  C   UNL     1       7.555  26.274  57.781  1.00  0.00     0.138 C 
BRANCH   7   8
HETATM    8  C   UNL     1       7.216  27.612  57.068  1.00  0.00     0.003 C 
HETATM    9  C   UNL     1       7.164  27.377  55.533  1.00  0.00     0.016 C 
HETATM   10  C   UNL     1       6.367  28.555  54.975  1.00  0.00     0.001 C 
HETATM   11  C   UNL     1       5.449  29.000  56.110  1.00  0.00     0.001 C 
HETATM   12  C   UNL     1       5.740  28.043  57.266  1.00  0.00     0.016 C 
BRANCH   8  13
HETATM   13  C   UNL     1       8.238  28.690  57.491  1.00  0.00    -0.048 A 
HETATM   14  C   UNL     1       9.487  28.811  56.855  1.00  0.00     0.008 A 
HETATM   15  C   UNL     1      10.414  29.781  57.250  1.00  0.00     0.001 A 
HETATM   16  C   UNL     1      10.126  30.638  58.306  1.00  0.00     0.000 A 
HETATM   17  C   UNL     1       8.911  30.521  58.971  1.00  0.00     0.001 A 
HETATM   18  C   UNL     1       7.981  29.557  58.570  1.00  0.00     0.008 A 
ENDBRANCH   8  13
ENDBRANCH   7   8
ENDBRANCH   3   7
BRANCH   1  19
HETATM   19  C   UNL     1       7.667  22.282  54.941  1.00  0.00     0.095 A 
HETATM   20  C   UNL     1       7.656  22.452  53.571  1.00  0.00     0.107 A 
HETATM   21  O   UNL     1       8.227  21.373  52.976  1.00  0.00    -0.215 OA
HETATM   22  N   UNL     1       8.651  20.484  53.937  1.00  0.00    -0.131 NA
HETATM   23  C   UNL     1       8.325  21.029  55.118  1.00  0.00     0.087 A 
HETATM   24  C   UNL     1       8.722  20.311  56.353  1.00  0.00     0.075 C 
BRANCH  20  25
HETATM   25  C   UNL     1       7.154  23.494  52.645  1.00  0.00     0.065 C 
HETATM   26  C   UNL     1       8.050  24.723  52.645  1.00  0.00     0.012 C 
ENDBRANCH  20  25
ENDBRANCH   1  19
TORSDOF 5
ENDMDL
MODEL 4
REMARK VINA RESULT:      -9.0      1.601      1.911
REMARK  5 active torsions:
REMARK  status: ('A' for Active; 'I' for Inactive)
REMARK    1  A    between atoms: C_2  and  C_3 
REMARK    2  A    between atoms: C_8  and  N_9 
REMARK       I    between atoms: N_9  and  C_10 
REMARK       I    between atoms: C_10  and  N_11 
REMARK    3  A    between atoms: N_11  and  C_12 
REMARK    4  A    between atoms: C_12  and  C_13 
REMARK    5  A    between atoms: C_13  and  C_14 
ROOT
HETATM    1  N   UNL     1       6.366  28.141  57.232  1.00  0.00    -0.305 N 
HETATM    2  C   UNL     1       7.254  27.495  56.404  1.00  0.00     0.320 C 
HETATM    3  N   UNL     1       7.098  26.128  56.477  1.00  0.00    -0.342 N 
HETATM    4  O   UNL     1       8.066  28.028  55.662  1.00  0.00    -0.247 OA
HETATM    5  H   UNL     1       5.526  27.629  57.454  1.00  0.00     0.171 HD
HETATM    6  H   UNL     1       6.680  25.753  57.316  1.00  0.00     0.164 HD
ENDROOT
BRANCH   3   7
HETATM    7  C   UNL     1       7.951  25.222  55.720  1.00  0.00     0.138 C 
BRANCH   7   8
HETATM    8  C   UNL     1       7.307  24.653  54.426  1.00  0.00     0.003 C 
HETATM    9  C   UNL     1       5.792  24.999  54.411  1.00  0.00     0.016 C 
HETATM   10  C   UNL     1       5.364  24.860  52.951  1.00  0.00     0.001 C 
HETATM   11  C   UNL     1       6.622  25.132  52.131  1.00  0.00     0.001 C 
HETATM   12  C   UNL     1       7.716  25.439  53.154  1.00  0.00     0.016 C 
BRANCH   8  13
HETATM   13  C   UNL     1       7.593  23.138  54.336  1.00  0.00    -0.048 A 
HETATM   14  C   UNL     1       7.488  22.300  55.462  1.00  0.00     0.008 A 
HETATM   15  C   UNL     1       7.759  20.931  55.378  1.00  0.00     0.001 A 
HETATM   16  C   UNL     1       8.166  20.369  54.174  1.00  0.00     0.000 A 
HETATM   17  C   UNL     1       8.307  21.179  53.053  1.00  0.00     0.001 A 
HETATM   18  C   UNL     1       8.027  22.546  53.135  1.00  0.00     0.008 A 
ENDBRANCH   8  13
ENDBRANCH   7   8
ENDBRANCH   3   7
BRANCH   1  19
HETATM   19  C   UNL     1       6.359  29.505  57.491  1.00  0.00     0.095 A 
HETATM   20  C   UNL     1       5.378  30.363  57.034  1.00  0.00     0.107 A 
HETATM   21  O   UNL     1       5.650  31.626  57.452  1.00  0.00    -0.215 OA
HETATM   22  N   UNL     1       6.796  31.626  58.214  1.00  0.00    -0.131 NA
HETATM   23  C   UNL     1       7.220  30.354  58.247  1.00  0.00     0.087 A 
HETATM   24  C   UNL     1       8.419  30.038  59.061  1.00  0.00     0.075 C 
BRANCH  20  25
HETATM   25  C   UNL     1       4.161  30.220  56.200  1.00  0.00     0.065 C 
HETATM   26  C   UNL     1       4.506  29.959  54.742  1.00  0.00     0.012 C 
ENDBRANCH  20  25
ENDBRANCH   1  19
TORSDOF 5
ENDMDL
MODEL 5
REMARK VINA RESULT:      -8.8      2.801      7.469
REMARK  5 active torsions:
REMARK  status: ('A' for Active; 'I' for Inactive)
REMARK    1  A    between atoms: C_2  and  C_3 
REMARK    2  A    between atoms: C_8  and  N_9 
REMARK       I    between atoms: N_9  and  C_10 
REMARK       I    between atoms: C_10  and  N_11 
REMARK    3  A    between atoms: N_11  and  C_12 
REMARK    4  A    between atoms: C_12  and  C_13 
REMARK    5  A    between atoms: C_13  and  C_14 
ROOT
HETATM    1  N   UNL     1       8.658  23.678  55.583  1.00  0.00    -0.305 N 
HETATM    2  C   UNL     1       7.783  24.571  56.155  1.00  0.00     0.320 C 
HETATM    3  N   UNL     1       8.442  25.451  56.986  1.00  0.00    -0.342 N 
HETATM    4  O   UNL     1       6.579  24.629  55.954  1.00  0.00    -0.247 OA
HETATM    5  H   UNL     1       9.615  23.991  55.513  1.00  0.00     0.171 HD
HETATM    6  H   UNL     1       9.328  25.155  57.366  1.00  0.00     0.164 HD
ENDROOT
BRANCH   3   7
HETATM    7  C   UNL     1       7.725  26.471  57.740  1.00  0.00     0.138 C 
BRANCH   7   8
HETATM    8  C   UNL     1       7.863  27.912  57.177  1.00  0.00     0.003 C 
HETATM    9  C   UNL     1       7.509  28.935  58.291  1.00  0.00     0.016 C 
HETATM   10  C   UNL     1       8.130  30.254  57.835  1.00  0.00     0.001 C 
HETATM   11  C   UNL     1       9.314  29.864  56.956  1.00  0.00     0.001 C 
HETATM   12  C   UNL     1       9.339  28.335  56.962  1.00  0.00     0.016 C 
BRANCH   8  13
HETATM   13  C   UNL     1       6.989  28.053  55.912  1.00  0.00    -0.048 A 
HETATM   14  C   UNL     1       7.546  28.005  54.621  1.00  0.00     0.008 A 
HETATM   15  C   UNL     1       6.752  28.145  53.478  1.00  0.00     0.001 A 
HETATM   16  C   UNL     1       5.384  28.360  53.598  1.00  0.00     0.000 A 
HETATM   17  C   UNL     1       4.812  28.442  54.861  1.00  0.00     0.001 A 
HETATM   18  C   UNL     1       5.604  28.293  56.003  1.00  0.00     0.008 A 
ENDBRANCH   8  13
ENDBRANCH   7   8
ENDBRANCH   3   7
BRANCH   1  19
HETATM   19  C   UNL     1       8.295  22.584  54.809  1.00  0.00     0.095 A 
HETATM   20  C   UNL     1       7.992  22.667  53.465  1.00  0.00     0.107 A 
HETATM   21  O   UNL     1       7.678  21.432  52.994  1.00  0.00    -0.215 OA
HETATM   22  N   UNL     1       7.793  20.507  54.006  1.00  0.00    -0.131 NA
HETATM   23  C   UNL     1       8.171  21.192  55.096  1.00  0.00     0.087 A 
HETATM   24  C   UNL     1       8.438  20.433  56.341  1.00  0.00     0.075 C 
BRANCH  20  25
HETATM   25  C   UNL     1       7.910  23.763  52.471  1.00  0.00     0.065 C 
HETATM   26  C   UNL     1       6.596  24.521  52.577  1.00  0.00     0.012 C 
ENDBRANCH  20  25
ENDBRANCH   1  19
TORSDOF 5
ENDMDL
MODEL 6
REMARK VINA RESULT:      -8.7      2.800      7.919
REMARK  5 active torsions:
REMARK  status: ('A' for Active; 'I' for Inactive)
REMARK    1  A    between atoms: C_2  and  C_3 
REMARK    2  A    between atoms: C_8  and  N_9 
REMARK       I    between atoms: N_9  and  C_10 
REMARK       I    between atoms: C_10  and  N_11 
REMARK    3  A    between atoms: N_11  and  C_12 
REMARK    4  A    between atoms: C_12  and  C_13 
REMARK    5  A    between atoms: C_13  and  C_14 
ROOT
HETATM    1  N   UNL     1       6.961  23.534  55.514  1.00  0.00    -0.305 N 
HETATM    2  C   UNL     1       7.690  24.491  56.180  1.00  0.00     0.320 C 
HETATM    3  N   UNL     1       6.866  25.355  56.867  1.00  0.00    -0.342 N 
HETATM    4  O   UNL     1       8.909  24.576  56.210  1.00  0.00    -0.247 OA
HETATM    5  H   UNL     1       6.047  23.341  55.893  1.00  0.00     0.171 HD
HETATM    6  H   UNL     1       5.915  25.446  56.543  1.00  0.00     0.164 HD
ENDROOT
BRANCH   3   7
HETATM    7  C   UNL     1       7.401  26.481  57.621  1.00  0.00     0.138 C 
BRANCH   7   8
HETATM    8  C   UNL     1       7.074  27.877  57.023  1.00  0.00     0.003 C 
HETATM    9  C   UNL     1       6.823  27.735  55.496  1.00  0.00     0.016 C 
HETATM   10  C   UNL     1       6.051  28.992  55.100  1.00  0.00     0.001 C 
HETATM   11  C   UNL     1       5.309  29.428  56.360  1.00  0.00     0.001 C 
HETATM   12  C   UNL     1       5.667  28.389  57.422  1.00  0.00     0.016 C 
BRANCH   8  13
HETATM   13  C   UNL     1       8.213  28.860  57.370  1.00  0.00    -0.048 A 
HETATM   14  C   UNL     1       9.377  28.948  56.585  1.00  0.00     0.008 A 
HETATM   15  C   UNL     1      10.411  29.832  56.911  1.00  0.00     0.001 A 
HETATM   16  C   UNL     1      10.318  30.633  58.043  1.00  0.00     0.000 A 
HETATM   17  C   UNL     1       9.192  30.545  58.853  1.00  0.00     0.001 A 
HETATM   18  C   UNL     1       8.155  29.668  58.523  1.00  0.00     0.008 A 
ENDBRANCH   8  13
ENDBRANCH   7   8
ENDBRANCH   3   7
BRANCH   1  19
HETATM   19  C   UNL     1       7.483  22.604  54.624  1.00  0.00     0.095 A 
HETATM   20  C   UNL     1       7.737  21.289  54.956  1.00  0.00     0.107 A 
HETATM   21  O   UNL     1       8.241  20.637  53.877  1.00  0.00    -0.215 OA
HETATM   22  N   UNL     1       8.303  21.497  52.804  1.00  0.00    -0.131 NA
HETATM   23  C   UNL     1       7.842  22.676  53.245  1.00  0.00     0.087 A 
HETATM   24  C   UNL     1       7.733  23.792  52.275  1.00  0.00     0.075 C 
BRANCH  20  25
HETATM   25  C   UNL     1       7.614  20.473  56.187  1.00  0.00     0.065 C 
HETATM   26  C   UNL     1       8.518  20.988  57.296  1.00  0.00     0.012 C 
ENDBRANCH  20  25
ENDBRANCH   1  19
TORSDOF 5
ENDMDL
MODEL 7
REMARK VINA RESULT:      -8.7      4.222      6.371
REMARK  5 active torsions:
REMARK  status: ('A' for Active; 'I' for Inactive)
REMARK    1  A    between atoms: C_2  and  C_3 
REMARK    2  A    between atoms: C_8  and  N_9 
REMARK       I    between atoms: N_9  and  C_10 
REMARK       I    between atoms: C_10  and  N_11 
REMARK    3  A    between atoms: N_11  and  C_12 
REMARK    4  A    between atoms: C_12  and  C_13 
REMARK    5  A    between atoms: C_13  and  C_14 
ROOT
HETATM    1  N   UNL     1       5.953  25.332  52.099  1.00  0.00    -0.305 N 
HETATM    2  C   UNL     1       7.203  24.837  52.390  1.00  0.00     0.320 C 
HETATM    3  N   UNL     1       7.130  23.543  52.858  1.00  0.00    -0.342 N 
HETATM    4  O   UNL     1       8.264  25.425  52.236  1.00  0.00    -0.247 OA
HETATM    5  H   UNL     1       5.250  24.641  51.888  1.00  0.00     0.171 HD
HETATM    6  H   UNL     1       6.258  23.248  53.272  1.00  0.00     0.164 HD
ENDROOT
BRANCH   3   7
HETATM    7  C   UNL     1       8.320  22.813  53.270  1.00  0.00     0.138 C 
BRANCH   7   8
HETATM    8  C   UNL     1       8.277  22.269  54.725  1.00  0.00     0.003 C 
HETATM    9  C   UNL     1       7.244  21.111  54.809  1.00  0.00     0.016 C 
HETATM   10  C   UNL     1       7.613  20.338  56.074  1.00  0.00     0.001 C 
HETATM   11  C   UNL     1       9.108  20.574  56.274  1.00  0.00     0.001 C 
HETATM   12  C   UNL     1       9.541  21.454  55.101  1.00  0.00     0.016 C 
BRANCH   8  13
HETATM   13  C   UNL     1       7.978  23.432  55.696  1.00  0.00    -0.048 A 
HETATM   14  C   UNL     1       6.678  23.947  55.852  1.00  0.00     0.008 A 
HETATM   15  C   UNL     1       6.415  25.009  56.724  1.00  0.00     0.001 A 
HETATM   16  C   UNL     1       7.448  25.597  57.444  1.00  0.00     0.000 A 
HETATM   17  C   UNL     1       8.746  25.128  57.287  1.00  0.00     0.001 A 
HETATM   18  C   UNL     1       9.008  24.061  56.422  1.00  0.00     0.008 A 
ENDBRANCH   8  13
ENDBRANCH   7   8
ENDBRANCH   3   7
BRANCH   1  19
HETATM   19  C   UNL     1       5.674  26.644  51.742  1.00  0.00     0.095 A 
HETATM   20  C   UNL     1       5.034  26.996  50.570  1.00  0.00     0.107 A 
HETATM   21  O   UNL     1       4.907  28.347  50.511  1.00  0.00    -0.215 OA
HETATM   22  N   UNL     1       5.434  28.912  51.649  1.00  0.00    -0.131 NA
HETATM   23  C   UNL     1       5.888  27.894  52.395  1.00  0.00     0.087 A 
HETATM   24  C   UNL     1       6.460  28.204  53.727  1.00  0.00     0.075 C 
BRANCH  20  25
HETATM   25  C   UNL     1       4.501  26.258  49.401  1.00  0.00     0.065 C 
HETATM   26  C   UNL     1       4.984  26.860  48.090  1.00  0.00     0.012 C 
ENDBRANCH  20  25
ENDBRANCH   1  19
TORSDOF 5
ENDMDL
MODEL 8
REMARK VINA RESULT:      -8.6      4.233      6.099
REMARK  5 active torsions:
REMARK  status: ('A' for Active; 'I' for Inactive)
REMARK    1  A    between atoms: C_2  and  C_3 
REMARK    2  A    between atoms: C_8  and  N_9 
REMARK       I    between atoms: N_9  and  C_10 
REMARK       I    between atoms: C_10  and  N_11 
REMARK    3  A    between atoms: N_11  and  C_12 
REMARK    4  A    between atoms: C_12  and  C_13 
REMARK    5  A    between atoms: C_13  and  C_14 
ROOT
HETATM    1  N   UNL     1       5.750  25.185  52.083  1.00  0.00    -0.305 N 
HETATM    2  C   UNL     1       7.034  24.857  52.453  1.00  0.00     0.320 C 
HETATM    3  N   UNL     1       7.119  23.537  52.838  1.00  0.00    -0.342 N 
HETATM    4  O   UNL     1       8.003  25.601  52.425  1.00  0.00    -0.247 OA
HETATM    5  H   UNL     1       5.177  24.415  51.773  1.00  0.00     0.171 HD
HETATM    6  H   UNL     1       6.272  23.091  53.158  1.00  0.00     0.164 HD
ENDROOT
BRANCH   3   7
HETATM    7  C   UNL     1       8.371  22.960  53.310  1.00  0.00     0.138 C 
BRANCH   7   8
HETATM    8  C   UNL     1       8.315  22.377  54.749  1.00  0.00     0.003 C 
HETATM    9  C   UNL     1       7.302  21.200  54.787  1.00  0.00     0.016 C 
HETATM   10  C   UNL     1       7.665  20.400  56.037  1.00  0.00     0.001 C 
HETATM   11  C   UNL     1       9.152  20.657  56.266  1.00  0.00     0.001 C 
HETATM   12  C   UNL     1       9.587  21.574  55.124  1.00  0.00     0.016 C 
BRANCH   8  13
HETATM   13  C   UNL     1       7.980  23.508  55.745  1.00  0.00    -0.048 A 
HETATM   14  C   UNL     1       6.666  23.986  55.906  1.00  0.00     0.008 A 
HETATM   15  C   UNL     1       6.371  25.019  56.801  1.00  0.00     0.001 A 
HETATM   16  C   UNL     1       7.384  25.617  57.541  1.00  0.00     0.000 A 
HETATM   17  C   UNL     1       8.695  25.186  57.380  1.00  0.00     0.001 A 
HETATM   18  C   UNL     1       8.989  24.147  56.492  1.00  0.00     0.008 A 
ENDBRANCH   8  13
ENDBRANCH   7   8
ENDBRANCH   3   7
BRANCH   1  19
HETATM   19  C   UNL     1       5.306  26.464  51.778  1.00  0.00     0.095 A 
HETATM   20  C   UNL     1       5.265  27.496  52.694  1.00  0.00     0.107 A 
HETATM   21  O   UNL     1       4.786  28.616  52.094  1.00  0.00    -0.215 OA
HETATM   22  N   UNL     1       4.529  28.357  50.768  1.00  0.00    -0.131 NA
HETATM   23  C   UNL     1       4.847  27.070  50.571  1.00  0.00     0.087 A 
HETATM   24  C   UNL     1       4.729  26.522  49.198  1.00  0.00     0.075 C 
BRANCH  20  25
HETATM   25  C   UNL     1       5.587  27.638  54.134  1.00  0.00     0.065 C 
HETATM   26  C   UNL     1       4.443  28.277  54.906  1.00  0.00     0.012 C 
ENDBRANCH  20  25
ENDBRANCH   1  19
TORSDOF 5
ENDMDL
MODEL 9
REMARK VINA RESULT:      -8.5      4.554      7.111
REMARK  5 active torsions:
REMARK  status: ('A' for Active; 'I' for Inactive)
REMARK    1  A    between atoms: C_2  and  C_3 
REMARK    2  A    between atoms: C_8  and  N_9 
REMARK       I    between atoms: N_9  and  C_10 
REMARK       I    between atoms: C_10  and  N_11 
REMARK    3  A    between atoms: N_11  and  C_12 
REMARK    4  A    between atoms: C_12  and  C_13 
REMARK    5  A    between atoms: C_13  and  C_14 
ROOT
HETATM    1  N   UNL     1       4.020  27.549  50.965  1.00  0.00    -0.305 N 
HETATM    2  C   UNL     1       4.552  26.361  51.405  1.00  0.00     0.320 C 
HETATM    3  N   UNL     1       4.289  26.163  52.743  1.00  0.00    -0.342 N 
HETATM    4  O   UNL     1       5.156  25.546  50.723  1.00  0.00    -0.247 OA
HETATM    5  H   UNL     1       3.236  27.899  51.496  1.00  0.00     0.171 HD
HETATM    6  H   UNL     1       4.104  26.980  53.305  1.00  0.00     0.164 HD
ENDROOT
BRANCH   3   7
HETATM    7  C   UNL     1       4.784  24.990  53.452  1.00  0.00     0.138 C 
BRANCH   7   8
HETATM    8  C   UNL     1       5.996  25.259  54.386  1.00  0.00     0.003 C 
HETATM    9  C   UNL     1       6.660  26.607  53.990  1.00  0.00     0.016 C 
HETATM   10  C   UNL     1       7.478  27.023  55.211  1.00  0.00     0.001 C 
HETATM   11  C   UNL     1       6.778  26.384  56.407  1.00  0.00     0.001 C 
HETATM   12  C   UNL     1       5.572  25.647  55.826  1.00  0.00     0.016 C 
BRANCH   8  13
HETATM   13  C   UNL     1       6.963  24.057  54.327  1.00  0.00    -0.048 A 
HETATM   14  C   UNL     1       7.663  23.730  53.151  1.00  0.00     0.008 A 
HETATM   15  C   UNL     1       8.528  22.632  53.100  1.00  0.00     0.001 A 
HETATM   16  C   UNL     1       8.697  21.820  54.214  1.00  0.00     0.000 A 
HETATM   17  C   UNL     1       7.995  22.102  55.380  1.00  0.00     0.001 A 
HETATM   18  C   UNL     1       7.137  23.204  55.434  1.00  0.00     0.008 A 
ENDBRANCH   8  13
ENDBRANCH   7   8
ENDBRANCH   3   7
BRANCH   1  19
HETATM   19  C   UNL     1       4.226  28.103  49.708  1.00  0.00     0.095 A 
HETATM   20  C   UNL     1       3.614  27.641  48.561  1.00  0.00     0.107 A 
HETATM   21  O   UNL     1       4.016  28.387  47.500  1.00  0.00    -0.215 OA
HETATM   22  N   UNL     1       4.877  29.372  47.926  1.00  0.00    -0.131 NA
HETATM   23  C   UNL     1       4.999  29.212  49.252  1.00  0.00     0.087 A 
HETATM   24  C   UNL     1       5.829  30.186  50.001  1.00  0.00     0.075 C 
BRANCH  20  25
HETATM   25  C   UNL     1       2.677  26.538  48.240  1.00  0.00     0.065 C 
HETATM   26  C   UNL     1       1.306  27.064  47.845  1.00  0.00     0.012 C 
ENDBRANCH  20  25
ENDBRANCH   1  19
TORSDOF 5
ENDMDL
MODEL 10
REMARK VINA RESULT:      -8.3      2.637      7.843
REMARK  5 active torsions:
REMARK  status: ('A' for Active; 'I' for Inactive)
REMARK    1  A    between atoms: C_2  and  C_3 
REMARK    2  A    between atoms: C_8  and  N_9 
REMARK       I    between atoms: N_9  and  C_10 
REMARK       I    between atoms: C_10  and  N_11 
REMARK    3  A    between atoms: N_11  and  C_12 
REMARK    4  A    between atoms: C_12  and  C_13 
REMARK    5  A    between atoms: C_13  and  C_14 
ROOT
HETATM    1  N   UNL     1       6.959  23.694  55.826  1.00  0.00    -0.305 N 
HETATM    2  C   UNL     1       7.669  24.636  56.534  1.00  0.00     0.320 C 
HETATM    3  N   UNL     1       6.837  25.615  57.032  1.00  0.00    -0.342 N 
HETATM    4  O   UNL     1       8.873  24.623  56.744  1.00  0.00    -0.247 OA
HETATM    5  H   UNL     1       5.985  23.607  56.073  1.00  0.00     0.171 HD
HETATM    6  H   UNL     1       5.956  25.759  56.561  1.00  0.00     0.164 HD
ENDROOT
BRANCH   3   7
HETATM    7  C   UNL     1       7.358  26.747  57.786  1.00  0.00     0.138 C 
BRANCH   7   8
HETATM    8  C   UNL     1       7.643  28.016  56.938  1.00  0.00     0.003 C 
HETATM    9  C   UNL     1       9.143  28.399  57.075  1.00  0.00     0.016 C 
HETATM   10  C   UNL     1       9.436  29.300  55.876  1.00  0.00     0.001 C 
HETATM   11  C   UNL     1       8.442  28.879  54.798  1.00  0.00     0.001 C 
HETATM   12  C   UNL     1       7.634  27.737  55.413  1.00  0.00     0.016 C 
BRANCH   8  13
HETATM   13  C   UNL     1       6.679  29.144  57.366  1.00  0.00    -0.048 A 
HETATM   14  C   UNL     1       7.128  30.262  58.094  1.00  0.00     0.008 A 
HETATM   15  C   UNL     1       6.248  31.275  58.490  1.00  0.00     0.001 A 
HETATM   16  C   UNL     1       4.894  31.184  58.190  1.00  0.00     0.000 A 
HETATM   17  C   UNL     1       4.418  30.076  57.499  1.00  0.00     0.001 A 
HETATM   18  C   UNL     1       5.299  29.069  57.095  1.00  0.00     0.008 A 
ENDBRANCH   8  13
ENDBRANCH   7   8
ENDBRANCH   3   7
BRANCH   1  19
HETATM   19  C   UNL     1       7.517  22.660  55.086  1.00  0.00     0.095 A 
HETATM   20  C   UNL     1       7.621  22.676  53.710  1.00  0.00     0.107 A 
HETATM   21  O   UNL     1       8.209  21.528  53.286  1.00  0.00    -0.215 OA
HETATM   22  N   UNL     1       8.531  20.744  54.371  1.00  0.00    -0.131 NA
HETATM   23  C   UNL     1       8.125  21.423  55.454  1.00  0.00     0.087 A 
HETATM   24  C   UNL     1       8.403  20.840  56.789  1.00  0.00     0.075 C 
BRANCH  20  25
HETATM   25  C   UNL     1       7.224  23.617  52.636  1.00  0.00     0.065 C 
HETATM   26  C   UNL     1       8.039  24.900  52.684  1.00  0.00     0.012 C 
ENDBRANCH  20  25
ENDBRANCH   1  19
TORSDOF 5
ENDMDL
