MODEL 1
REMARK VINA RESULT:      -8.3      0.000      0.000
REMARK  9 active torsions:
REMARK  status: ('A' for Active; 'I' for Inactive)
REMARK    1  A    between atoms: O_2  and  C_3 
REMARK    2  A    between atoms: C_6  and  C_7 
REMARK    3  A    between atoms: C_7  and  N_8 
REMARK       I    between atoms: N_8  and  C_9 
REMARK    4  A    between atoms: C_9  and  C_10 
REMARK    5  A    between atoms: C_10  and  S_11 
REMARK    6  A    between atoms: S_11  and  C_12 
REMARK    7  A    between atoms: N_13  and  C_14 
REMARK    8  A    between atoms: C_14  and  C_15 
REMARK    9  A    between atoms: C_21  and  C_22 
ROOT
HETATM    1  C   UNL     1       5.717  25.098  53.843  1.00  0.00     0.192 A 
HETATM    2  N   UNL     1       6.843  24.689  54.506  1.00  0.00    -0.307 N 
HETATM    3  C   UNL     1       6.572  24.898  55.838  1.00  0.00     0.135 A 
HETATM    4  N   UNL     1       5.332  25.326  55.962  1.00  0.00    -0.134 NA
HETATM    5  N   UNL     1       4.795  25.450  54.705  1.00  0.00    -0.123 NA
ENDROOT
BRANCH   1   6
HETATM    6  S   UNL     1       5.583  25.183  52.125  1.00  0.00    -0.081 SA
BRANCH   6   7
HETATM    7  C   UNL     1       6.322  26.793  51.755  1.00  0.00     0.185 C 
BRANCH   7   8
HETATM    8  C   UNL     1       5.781  27.995  52.513  1.00  0.00     0.227 C 
HETATM    9  N   UNL     1       6.469  28.590  53.527  1.00  0.00    -0.356 N 
HETATM   10  H   UNL     1       5.988  29.408  53.884  1.00  0.00     0.162 HD
HETATM   11  O   UNL     1       4.744  28.553  52.140  1.00  0.00    -0.273 OA
BRANCH   9  12
HETATM   12  C   UNL     1       7.733  28.227  54.125  1.00  0.00     0.161 C 
BRANCH  12  13
HETATM   13  C   UNL     1       7.856  28.715  55.546  1.00  0.00    -0.040 A 
HETATM   14  C   UNL     1       6.721  28.849  56.360  1.00  0.00     0.011 A 
HETATM   15  C   UNL     1       6.838  29.259  57.694  1.00  0.00     0.037 A 
HETATM   16  C   UNL     1       8.094  29.525  58.237  1.00  0.00     0.068 A 
HETATM   17  C   UNL     1       9.225  29.389  57.431  1.00  0.00     0.037 A 
HETATM   18  C   UNL     1       9.112  28.988  56.097  1.00  0.00     0.011 A 
BRANCH  16  19
HETATM   19  O   UNL     1       8.349  29.915  59.523  1.00  0.00    -0.356 OA
HETATM   20  C   UNL     1       9.422  30.827  59.716  1.00  0.00     0.210 C 
ENDBRANCH  16  19
ENDBRANCH  12  13
ENDBRANCH   9  12
ENDBRANCH   7   8
ENDBRANCH   6   7
ENDBRANCH   1   6
BRANCH   2  21
HETATM   21  C   UNL     1       8.102  24.235  53.946  1.00  0.00     0.171 C 
BRANCH  21  22
HETATM   22  C   UNL     1       8.339  22.744  54.049  1.00  0.00    -0.040 A 
HETATM   23  C   UNL     1       8.949  22.139  55.159  1.00  0.00     0.009 A 
HETATM   24  C   UNL     1       9.135  20.755  55.201  1.00  0.00     0.001 A 
HETATM   25  C   UNL     1       8.689  19.954  54.152  1.00  0.00     0.000 A 
HETATM   26  C   UNL     1       8.051  20.536  53.059  1.00  0.00     0.001 A 
HETATM   27  C   UNL     1       7.874  21.919  53.009  1.00  0.00     0.009 A 
ENDBRANCH  21  22
ENDBRANCH   2  21
BRANCH   3  28
HETATM   28  C   UNL     1       7.517  24.683  57.011  1.00  0.00     0.057 A 
HETATM   29  C   UNL     1       8.805  25.481  57.041  1.00  0.00     0.013 A 
HETATM   30  C   UNL     1       7.706  25.827  57.986  1.00  0.00     0.013 A 
ENDBRANCH   3  28
TORSDOF 9
ENDMDL
MODEL 2
REMARK VINA RESULT:      -8.2      2.795      4.940
REMARK  9 active torsions:
REMARK  status: ('A' for Active; 'I' for Inactive)
REMARK    1  A    between atoms: O_2  and  C_3 
REMARK    2  A    between atoms: C_6  and  C_7 
REMARK    3  A    between atoms: C_7  and  N_8 
REMARK       I    between atoms: N_8  and  C_9 
REMARK    4  A    between atoms: C_9  and  C_10 
REMARK    5  A    between atoms: C_10  and  S_11 
REMARK    6  A    between atoms: S_11  and  C_12 
REMARK    7  A    between atoms: N_13  and  C_14 
REMARK    8  A    between atoms: C_14  and  C_15 
REMARK    9  A    between atoms: C_21  and  C_22 
ROOT
HETATM    1  C   UNL     1       7.264  27.140  55.218  1.00  0.00     0.192 A 
HETATM    2  N   UNL     1       6.424  26.311  54.524  1.00  0.00    -0.307 N 
HETATM    3  C   UNL     1       6.059  27.023  53.406  1.00  0.00     0.135 A 
HETATM    4  N   UNL     1       6.707  28.170  53.396  1.00  0.00    -0.134 NA
HETATM    5  N   UNL     1       7.467  28.241  54.537  1.00  0.00    -0.123 NA
ENDROOT
BRANCH   1   6
HETATM    6  S   UNL     1       7.897  26.785  56.784  1.00  0.00    -0.081 SA
BRANCH   6   7
HETATM    7  C   UNL     1       7.572  28.316  57.692  1.00  0.00     0.185 C 
BRANCH   7   8
HETATM    8  C   UNL     1       8.671  29.368  57.694  1.00  0.00     0.227 C 
HETATM    9  N   UNL     1       8.490  30.613  58.217  1.00  0.00    -0.356 N 
HETATM   10  H   UNL     1       9.339  31.165  58.184  1.00  0.00     0.162 HD
HETATM   11  O   UNL     1       9.814  29.077  57.328  1.00  0.00    -0.273 OA
BRANCH   9  12
HETATM   12  C   UNL     1       7.308  31.212  58.791  1.00  0.00     0.161 C 
BRANCH  12  13
HETATM   13  C   UNL     1       7.514  31.624  60.227  1.00  0.00    -0.040 A 
HETATM   14  C   UNL     1       8.580  31.106  60.977  1.00  0.00     0.011 A 
HETATM   15  C   UNL     1       8.798  31.520  62.297  1.00  0.00     0.037 A 
HETATM   16  C   UNL     1       7.964  32.472  62.879  1.00  0.00     0.068 A 
HETATM   17  C   UNL     1       6.904  32.993  62.134  1.00  0.00     0.037 A 
HETATM   18  C   UNL     1       6.677  32.576  60.819  1.00  0.00     0.011 A 
BRANCH  16  19
HETATM   19  O   UNL     1       8.074  32.975  64.146  1.00  0.00    -0.356 OA
HETATM   20  C   UNL     1       6.902  33.538  64.719  1.00  0.00     0.210 C 
ENDBRANCH  16  19
ENDBRANCH  12  13
ENDBRANCH   9  12
ENDBRANCH   7   8
ENDBRANCH   6   7
ENDBRANCH   1   6
BRANCH   2  21
HETATM   21  C   UNL     1       5.923  25.005  54.913  1.00  0.00     0.171 C 
BRANCH  21  22
HETATM   22  C   UNL     1       6.854  23.853  54.604  1.00  0.00    -0.040 A 
HETATM   23  C   UNL     1       7.468  23.075  55.598  1.00  0.00     0.009 A 
HETATM   24  C   UNL     1       8.314  22.018  55.252  1.00  0.00     0.001 A 
HETATM   25  C   UNL     1       8.536  21.706  53.913  1.00  0.00     0.000 A 
HETATM   26  C   UNL     1       7.908  22.447  52.915  1.00  0.00     0.001 A 
HETATM   27  C   UNL     1       7.071  23.510  53.258  1.00  0.00     0.009 A 
ENDBRANCH  21  22
ENDBRANCH   2  21
BRANCH   3  28
HETATM   28  C   UNL     1       5.073  26.596  52.328  1.00  0.00     0.057 A 
HETATM   29  C   UNL     1       5.120  27.317  50.996  1.00  0.00     0.013 A 
HETATM   30  C   UNL     1       5.627  25.919  51.090  1.00  0.00     0.013 A 
ENDBRANCH   3  28
TORSDOF 9
ENDMDL
MODEL 3
REMARK VINA RESULT:      -7.7      2.819      5.491
REMARK  9 active torsions:
REMARK  status: ('A' for Active; 'I' for Inactive)
REMARK    1  A    between atoms: O_2  and  C_3 
REMARK    2  A    between atoms: C_6  and  C_7 
REMARK    3  A    between atoms: C_7  and  N_8 
REMARK       I    between atoms: N_8  and  C_9 
REMARK    4  A    between atoms: C_9  and  C_10 
REMARK    5  A    between atoms: C_10  and  S_11 
REMARK    6  A    between atoms: S_11  and  C_12 
REMARK    7  A    between atoms: N_13  and  C_14 
REMARK    8  A    between atoms: C_14  and  C_15 
REMARK    9  A    between atoms: C_21  and  C_22 
ROOT
HETATM    1  C   UNL     1       8.050  23.894  56.717  1.00  0.00     0.192 A 
HETATM    2  N   UNL     1       8.159  23.915  55.352  1.00  0.00    -0.307 N 
HETATM    3  C   UNL     1       8.344  22.602  54.987  1.00  0.00     0.135 A 
HETATM    4  N   UNL     1       8.267  21.842  56.060  1.00  0.00    -0.134 NA
HETATM    5  N   UNL     1       8.080  22.657  57.148  1.00  0.00    -0.123 NA
ENDROOT
BRANCH   1   6
HETATM    6  S   UNL     1       7.952  25.308  57.701  1.00  0.00    -0.081 SA
BRANCH   6   7
HETATM    7  C   UNL     1       6.833  26.368  56.752  1.00  0.00     0.185 C 
BRANCH   7   8
HETATM    8  C   UNL     1       5.341  26.169  56.966  1.00  0.00     0.227 C 
HETATM    9  N   UNL     1       4.423  27.122  56.644  1.00  0.00    -0.356 N 
HETATM   10  H   UNL     1       3.474  26.804  56.801  1.00  0.00     0.162 HD
HETATM   11  O   UNL     1       4.902  25.071  57.327  1.00  0.00    -0.273 OA
BRANCH   9  12
HETATM   12  C   UNL     1       4.618  28.456  56.126  1.00  0.00     0.161 C 
BRANCH  12  13
HETATM   13  C   UNL     1       4.658  28.487  54.620  1.00  0.00    -0.040 A 
HETATM   14  C   UNL     1       3.473  28.475  53.869  1.00  0.00     0.011 A 
HETATM   15  C   UNL     1       3.507  28.548  52.471  1.00  0.00     0.037 A 
HETATM   16  C   UNL     1       4.727  28.652  51.805  1.00  0.00     0.068 A 
HETATM   17  C   UNL     1       5.908  28.668  52.549  1.00  0.00     0.037 A 
HETATM   18  C   UNL     1       5.879  28.587  53.943  1.00  0.00     0.011 A 
BRANCH  16  19
HETATM   19  O   UNL     1       4.901  28.747  50.452  1.00  0.00    -0.356 OA
HETATM   20  C   UNL     1       5.710  29.817  49.981  1.00  0.00     0.210 C 
ENDBRANCH  16  19
ENDBRANCH  12  13
ENDBRANCH   9  12
ENDBRANCH   7   8
ENDBRANCH   6   7
ENDBRANCH   1   6
BRANCH   2  21
HETATM   21  C   UNL     1       8.188  25.065  54.469  1.00  0.00     0.171 C 
BRANCH  21  22
HETATM   22  C   UNL     1       7.072  25.106  53.447  1.00  0.00    -0.040 A 
HETATM   23  C   UNL     1       7.291  25.339  52.081  1.00  0.00     0.009 A 
HETATM   24  C   UNL     1       6.221  25.359  51.183  1.00  0.00     0.001 A 
HETATM   25  C   UNL     1       4.924  25.117  51.630  1.00  0.00     0.000 A 
HETATM   26  C   UNL     1       4.694  24.850  52.977  1.00  0.00     0.001 A 
HETATM   27  C   UNL     1       5.760  24.841  53.879  1.00  0.00     0.009 A 
ENDBRANCH  21  22
ENDBRANCH   2  21
BRANCH   3  28
HETATM   28  C   UNL     1       8.597  22.067  53.584  1.00  0.00     0.057 A 
HETATM   29  C   UNL     1       8.760  20.571  53.413  1.00  0.00     0.013 A 
HETATM   30  C   UNL     1       7.511  21.231  52.939  1.00  0.00     0.013 A 
ENDBRANCH   3  28
TORSDOF 9
ENDMDL
MODEL 4
REMARK VINA RESULT:      -7.6      4.055      6.896
REMARK  9 active torsions:
REMARK  status: ('A' for Active; 'I' for Inactive)
REMARK    1  A    between atoms: O_2  and  C_3 
REMARK    2  A    between atoms: C_6  and  C_7 
REMARK    3  A    between atoms: C_7  and  N_8 
REMARK       I    between atoms: N_8  and  C_9 
REMARK    4  A    between atoms: C_9  and  C_10 
REMARK    5  A    between atoms: C_10  and  S_11 
REMARK    6  A    between atoms: S_11  and  C_12 
REMARK    7  A    between atoms: N_13  and  C_14 
REMARK    8  A    between atoms: C_14  and  C_15 
REMARK    9  A    between atoms: C_21  and  C_22 
ROOT
HETATM    1  C   UNL     1       7.809  28.172  57.209  1.00  0.00     0.192 A 
HETATM    2  N   UNL     1       7.727  27.491  56.024  1.00  0.00    -0.307 N 
HETATM    3  C   UNL     1       7.802  26.162  56.368  1.00  0.00     0.135 A 
HETATM    4  N   UNL     1       7.843  26.059  57.681  1.00  0.00    -0.134 NA
HETATM    5  N   UNL     1       7.845  27.326  58.209  1.00  0.00    -0.123 NA
ENDROOT
BRANCH   1   6
HETATM    6  S   UNL     1       7.909  29.890  57.332  1.00  0.00    -0.081 SA
BRANCH   6   7
HETATM    7  C   UNL     1       9.268  30.120  58.505  1.00  0.00     0.185 C 
BRANCH   7   8
HETATM    8  C   UNL     1       9.484  31.522  59.051  1.00  0.00     0.227 C 
HETATM    9  N   UNL     1       8.951  31.936  60.234  1.00  0.00    -0.356 N 
HETATM   10  H   UNL     1       9.238  32.878  60.472  1.00  0.00     0.162 HD
HETATM   11  O   UNL     1      10.265  32.298  58.490  1.00  0.00    -0.273 OA
BRANCH   9  12
HETATM   12  C   UNL     1       8.079  31.237  61.150  1.00  0.00     0.161 C 
BRANCH  12  13
HETATM   13  C   UNL     1       7.464  32.160  62.172  1.00  0.00    -0.040 A 
HETATM   14  C   UNL     1       8.102  32.401  63.399  1.00  0.00     0.011 A 
HETATM   15  C   UNL     1       7.555  33.291  64.330  1.00  0.00     0.037 A 
HETATM   16  C   UNL     1       6.371  33.968  64.041  1.00  0.00     0.068 A 
HETATM   17  C   UNL     1       5.736  33.734  62.820  1.00  0.00     0.037 A 
HETATM   18  C   UNL     1       6.274  32.840  61.891  1.00  0.00     0.011 A 
BRANCH  16  19
HETATM   19  O   UNL     1       5.741  34.872  64.850  1.00  0.00    -0.356 OA
HETATM   20  C   UNL     1       4.835  34.351  65.813  1.00  0.00     0.210 C 
ENDBRANCH  16  19
ENDBRANCH  12  13
ENDBRANCH   9  12
ENDBRANCH   7   8
ENDBRANCH   6   7
ENDBRANCH   1   6
BRANCH   2  21
HETATM   21  C   UNL     1       7.682  28.029  54.677  1.00  0.00     0.171 C 
BRANCH  21  22
HETATM   22  C   UNL     1       6.297  28.097  54.070  1.00  0.00    -0.040 A 
HETATM   23  C   UNL     1       6.016  27.696  52.755  1.00  0.00     0.009 A 
HETATM   24  C   UNL     1       4.716  27.775  52.250  1.00  0.00     0.001 A 
HETATM   25  C   UNL     1       3.675  28.227  53.059  1.00  0.00     0.000 A 
HETATM   26  C   UNL     1       3.932  28.597  54.376  1.00  0.00     0.001 A 
HETATM   27  C   UNL     1       5.232  28.529  54.880  1.00  0.00     0.009 A 
ENDBRANCH  21  22
ENDBRANCH   2  21
BRANCH   3  28
HETATM   28  C   UNL     1       7.835  24.970  55.422  1.00  0.00     0.057 A 
HETATM   29  C   UNL     1       7.238  23.664  55.904  1.00  0.00     0.013 A 
HETATM   30  C   UNL     1       6.516  24.464  54.875  1.00  0.00     0.013 A 
ENDBRANCH   3  28
TORSDOF 9
ENDMDL
MODEL 5
REMARK VINA RESULT:      -7.6      3.949      7.162
REMARK  9 active torsions:
REMARK  status: ('A' for Active; 'I' for Inactive)
REMARK    1  A    between atoms: O_2  and  C_3 
REMARK    2  A    between atoms: C_6  and  C_7 
REMARK    3  A    between atoms: C_7  and  N_8 
REMARK       I    between atoms: N_8  and  C_9 
REMARK    4  A    between atoms: C_9  and  C_10 
REMARK    5  A    between atoms: C_10  and  S_11 
REMARK    6  A    between atoms: S_11  and  C_12 
REMARK    7  A    between atoms: N_13  and  C_14 
REMARK    8  A    between atoms: C_14  and  C_15 
REMARK    9  A    between atoms: C_21  and  C_22 
ROOT
HETATM    1  C   UNL     1       5.711  26.177  53.212  1.00  0.00     0.192 A 
HETATM    2  N   UNL     1       6.851  25.977  53.942  1.00  0.00    -0.307 N 
HETATM    3  C   UNL     1       6.701  26.756  55.065  1.00  0.00     0.135 A 
HETATM    4  N   UNL     1       5.509  27.318  55.042  1.00  0.00    -0.134 NA
HETATM    5  N   UNL     1       4.887  26.951  53.875  1.00  0.00    -0.123 NA
ENDROOT
BRANCH   1   6
HETATM    6  S   UNL     1       5.451  25.540  51.630  1.00  0.00    -0.081 SA
BRANCH   6   7
HETATM    7  C   UNL     1       4.552  26.880  50.812  1.00  0.00     0.185 C 
BRANCH   7   8
HETATM    8  C   UNL     1       5.380  28.008  50.215  1.00  0.00     0.227 C 
HETATM    9  N   UNL     1       5.647  28.092  48.882  1.00  0.00    -0.356 N 
HETATM   10  H   UNL     1       6.165  28.933  48.651  1.00  0.00     0.162 HD
HETATM   11  O   UNL     1       5.732  28.962  50.917  1.00  0.00    -0.273 OA
BRANCH   9  12
HETATM   12  C   UNL     1       5.301  27.189  47.811  1.00  0.00     0.161 C 
BRANCH  12  13
HETATM   13  C   UNL     1       3.831  27.229  47.480  1.00  0.00    -0.040 A 
HETATM   14  C   UNL     1       3.078  26.047  47.406  1.00  0.00     0.011 A 
HETATM   15  C   UNL     1       1.704  26.085  47.143  1.00  0.00     0.037 A 
HETATM   16  C   UNL     1       1.059  27.308  46.967  1.00  0.00     0.068 A 
HETATM   17  C   UNL     1       1.803  28.487  47.043  1.00  0.00     0.037 A 
HETATM   18  C   UNL     1       3.177  28.452  47.297  1.00  0.00     0.011 A 
BRANCH  16  19
HETATM   19  O   UNL     1      -0.275  27.488  46.722  1.00  0.00    -0.356 OA
HETATM   20  C   UNL     1      -0.624  28.123  45.498  1.00  0.00     0.210 C 
ENDBRANCH  16  19
ENDBRANCH  12  13
ENDBRANCH   9  12
ENDBRANCH   7   8
ENDBRANCH   6   7
ENDBRANCH   1   6
BRANCH   2  21
HETATM   21  C   UNL     1       8.027  25.206  53.583  1.00  0.00     0.171 C 
BRANCH  21  22
HETATM   22  C   UNL     1       7.911  23.719  53.843  1.00  0.00    -0.040 A 
HETATM   23  C   UNL     1       7.976  22.755  52.825  1.00  0.00     0.009 A 
HETATM   24  C   UNL     1       7.869  21.395  53.127  1.00  0.00     0.001 A 
HETATM   25  C   UNL     1       7.726  20.978  54.448  1.00  0.00     0.000 A 
HETATM   26  C   UNL     1       7.694  21.920  55.473  1.00  0.00     0.001 A 
HETATM   27  C   UNL     1       7.790  23.280  55.173  1.00  0.00     0.009 A 
ENDBRANCH  21  22
ENDBRANCH   2  21
BRANCH   3  28
HETATM   28  C   UNL     1       7.716  26.965  56.180  1.00  0.00     0.057 A 
HETATM   29  C   UNL     1       7.209  27.466  57.517  1.00  0.00     0.013 A 
HETATM   30  C   UNL     1       7.643  26.047  57.383  1.00  0.00     0.013 A 
ENDBRANCH   3  28
TORSDOF 9
ENDMDL
MODEL 6
REMARK VINA RESULT:      -7.6      3.983      7.234
REMARK  9 active torsions:
REMARK  status: ('A' for Active; 'I' for Inactive)
REMARK    1  A    between atoms: O_2  and  C_3 
REMARK    2  A    between atoms: C_6  and  C_7 
REMARK    3  A    between atoms: C_7  and  N_8 
REMARK       I    between atoms: N_8  and  C_9 
REMARK    4  A    between atoms: C_9  and  C_10 
REMARK    5  A    between atoms: C_10  and  S_11 
REMARK    6  A    between atoms: S_11  and  C_12 
REMARK    7  A    between atoms: N_13  and  C_14 
REMARK    8  A    between atoms: C_14  and  C_15 
REMARK    9  A    between atoms: C_21  and  C_22 
ROOT
HETATM    1  C   UNL     1       6.506  26.974  53.012  1.00  0.00     0.192 A 
HETATM    2  N   UNL     1       6.549  26.275  54.188  1.00  0.00    -0.307 N 
HETATM    3  C   UNL     1       7.363  27.012  55.015  1.00  0.00     0.135 A 
HETATM    4  N   UNL     1       7.714  28.121  54.397  1.00  0.00    -0.134 NA
HETATM    5  N   UNL     1       7.171  28.096  53.136  1.00  0.00    -0.123 NA
ENDROOT
BRANCH   1   6
HETATM    6  S   UNL     1       5.732  26.408  51.578  1.00  0.00    -0.081 SA
BRANCH   6   7
HETATM    7  C   UNL     1       4.879  27.888  50.983  1.00  0.00     0.185 C 
BRANCH   7   8
HETATM    8  C   UNL     1       5.624  28.767  49.990  1.00  0.00     0.227 C 
HETATM    9  N   UNL     1       5.720  28.455  48.668  1.00  0.00    -0.356 N 
HETATM   10  H   UNL     1       6.204  29.174  48.142  1.00  0.00     0.162 HD
HETATM   11  O   UNL     1       6.062  29.869  50.337  1.00  0.00    -0.273 OA
BRANCH   9  12
HETATM   12  C   UNL     1       5.241  27.295  47.953  1.00  0.00     0.161 C 
BRANCH  12  13
HETATM   13  C   UNL     1       3.768  27.379  47.647  1.00  0.00    -0.040 A 
HETATM   14  C   UNL     1       3.172  28.604  47.313  1.00  0.00     0.011 A 
HETATM   15  C   UNL     1       1.812  28.677  46.985  1.00  0.00     0.037 A 
HETATM   16  C   UNL     1       1.034  27.521  46.968  1.00  0.00     0.068 A 
HETATM   17  C   UNL     1       1.624  26.299  47.295  1.00  0.00     0.037 A 
HETATM   18  C   UNL     1       2.978  26.224  47.632  1.00  0.00     0.011 A 
BRANCH  16  19
HETATM   19  O   UNL     1      -0.295  27.449  46.650  1.00  0.00    -0.356 OA
HETATM   20  C   UNL     1      -0.645  27.686  45.293  1.00  0.00     0.210 C 
ENDBRANCH  16  19
ENDBRANCH  12  13
ENDBRANCH   9  12
ENDBRANCH   7   8
ENDBRANCH   6   7
ENDBRANCH   1   6
BRANCH   2  21
HETATM   21  C   UNL     1       5.965  24.981  54.489  1.00  0.00     0.171 C 
BRANCH  21  22
HETATM   22  C   UNL     1       6.921  23.813  54.370  1.00  0.00    -0.040 A 
HETATM   23  C   UNL     1       7.444  23.134  55.481  1.00  0.00     0.009 A 
HETATM   24  C   UNL     1       8.318  22.058  55.309  1.00  0.00     0.001 A 
HETATM   25  C   UNL     1       8.658  21.627  54.029  1.00  0.00     0.000 A 
HETATM   26  C   UNL     1       8.121  22.269  52.916  1.00  0.00     0.001 A 
HETATM   27  C   UNL     1       7.256  23.351  53.085  1.00  0.00     0.009 A 
ENDBRANCH  21  22
ENDBRANCH   2  21
BRANCH   3  28
HETATM   28  C   UNL     1       7.812  26.648  56.423  1.00  0.00     0.057 A 
HETATM   29  C   UNL     1       7.984  27.770  57.427  1.00  0.00     0.013 A 
HETATM   30  C   UNL     1       6.824  26.845  57.555  1.00  0.00     0.013 A 
ENDBRANCH   3  28
TORSDOF 9
ENDMDL
MODEL 7
REMARK VINA RESULT:      -7.6      3.518      5.764
REMARK  9 active torsions:
REMARK  status: ('A' for Active; 'I' for Inactive)
REMARK    1  A    between atoms: O_2  and  C_3 
REMARK    2  A    between atoms: C_6  and  C_7 
REMARK    3  A    between atoms: C_7  and  N_8 
REMARK       I    between atoms: N_8  and  C_9 
REMARK    4  A    between atoms: C_9  and  C_10 
REMARK    5  A    between atoms: C_10  and  S_11 
REMARK    6  A    between atoms: S_11  and  C_12 
REMARK    7  A    between atoms: N_13  and  C_14 
REMARK    8  A    between atoms: C_14  and  C_15 
REMARK    9  A    between atoms: C_21  and  C_22 
ROOT
HETATM    1  C   UNL     1       6.654  28.125  56.365  1.00  0.00     0.192 A 
HETATM    2  N   UNL     1       6.538  27.810  55.038  1.00  0.00    -0.307 N 
HETATM    3  C   UNL     1       5.189  27.861  54.773  1.00  0.00     0.135 A 
HETATM    4  N   UNL     1       4.553  28.261  55.855  1.00  0.00    -0.134 NA
HETATM    5  N   UNL     1       5.478  28.429  56.856  1.00  0.00    -0.123 NA
ENDROOT
BRANCH   1   6
HETATM    6  S   UNL     1       8.135  28.063  57.248  1.00  0.00    -0.081 SA
BRANCH   6   7
HETATM    7  C   UNL     1       7.902  29.355  58.493  1.00  0.00     0.185 C 
BRANCH   7   8
HETATM    8  C   UNL     1       9.007  30.391  58.633  1.00  0.00     0.227 C 
HETATM    9  N   UNL     1       9.424  30.856  59.844  1.00  0.00    -0.356 N 
HETATM   10  H   UNL     1      10.202  31.499  59.757  1.00  0.00     0.162 HD
HETATM   11  O   UNL     1       9.654  30.751  57.645  1.00  0.00    -0.273 OA
BRANCH   9  12
HETATM   12  C   UNL     1       8.928  30.561  61.168  1.00  0.00     0.161 C 
BRANCH  12  13
HETATM   13  C   UNL     1       8.126  31.699  61.746  1.00  0.00    -0.040 A 
HETATM   14  C   UNL     1       7.181  32.382  60.966  1.00  0.00     0.011 A 
HETATM   15  C   UNL     1       6.404  33.410  61.513  1.00  0.00     0.037 A 
HETATM   16  C   UNL     1       6.548  33.758  62.855  1.00  0.00     0.068 A 
HETATM   17  C   UNL     1       7.484  33.078  63.637  1.00  0.00     0.037 A 
HETATM   18  C   UNL     1       8.268  32.057  63.092  1.00  0.00     0.011 A 
BRANCH  16  19
HETATM   19  O   UNL     1       5.845  34.725  63.517  1.00  0.00    -0.356 OA
HETATM   20  C   UNL     1       5.799  34.631  64.935  1.00  0.00     0.210 C 
ENDBRANCH  16  19
ENDBRANCH  12  13
ENDBRANCH   9  12
ENDBRANCH   7   8
ENDBRANCH   6   7
ENDBRANCH   1   6
BRANCH   2  21
HETATM   21  C   UNL     1       7.580  27.400  54.115  1.00  0.00     0.171 C 
BRANCH  21  22
HETATM   22  C   UNL     1       7.622  25.915  53.829  1.00  0.00    -0.040 A 
HETATM   23  C   UNL     1       7.518  24.937  54.830  1.00  0.00     0.009 A 
HETATM   24  C   UNL     1       7.556  23.579  54.505  1.00  0.00     0.001 A 
HETATM   25  C   UNL     1       7.667  23.179  53.176  1.00  0.00     0.000 A 
HETATM   26  C   UNL     1       7.737  24.136  52.167  1.00  0.00     0.001 A 
HETATM   27  C   UNL     1       7.711  25.493  52.490  1.00  0.00     0.009 A 
ENDBRANCH  21  22
ENDBRANCH   2  21
BRANCH   3  28
HETATM   28  C   UNL     1       4.499  27.520  53.460  1.00  0.00     0.057 A 
HETATM   29  C   UNL     1       3.349  28.399  53.013  1.00  0.00     0.013 A 
HETATM   30  C   UNL     1       4.657  28.489  52.306  1.00  0.00     0.013 A 
ENDBRANCH   3  28
TORSDOF 9
ENDMDL
MODEL 8
REMARK VINA RESULT:      -7.3      2.923      5.676
REMARK  9 active torsions:
REMARK  status: ('A' for Active; 'I' for Inactive)
REMARK    1  A    between atoms: O_2  and  C_3 
REMARK    2  A    between atoms: C_6  and  C_7 
REMARK    3  A    between atoms: C_7  and  N_8 
REMARK       I    between atoms: N_8  and  C_9 
REMARK    4  A    between atoms: C_9  and  C_10 
REMARK    5  A    between atoms: C_10  and  S_11 
REMARK    6  A    between atoms: S_11  and  C_12 
REMARK    7  A    between atoms: N_13  and  C_14 
REMARK    8  A    between atoms: C_14  and  C_15 
REMARK    9  A    between atoms: C_21  and  C_22 
ROOT
HETATM    1  C   UNL     1       5.925  26.809  56.061  1.00  0.00     0.192 A 
HETATM    2  N   UNL     1       6.732  26.394  55.036  1.00  0.00    -0.307 N 
HETATM    3  C   UNL     1       6.992  25.069  55.298  1.00  0.00     0.135 A 
HETATM    4  N   UNL     1       6.316  24.701  56.367  1.00  0.00    -0.134 NA
HETATM    5  N   UNL     1       5.643  25.798  56.845  1.00  0.00    -0.123 NA
ENDROOT
BRANCH   1   6
HETATM    6  S   UNL     1       5.422  28.443  56.294  1.00  0.00    -0.081 SA
BRANCH   6   7
HETATM    7  C   UNL     1       6.978  29.279  56.688  1.00  0.00     0.185 C 
BRANCH   7   8
HETATM    8  C   UNL     1       7.674  28.877  57.979  1.00  0.00     0.227 C 
HETATM    9  N   UNL     1       7.811  29.731  59.032  1.00  0.00    -0.356 N 
HETATM   10  H   UNL     1       8.250  29.284  59.828  1.00  0.00     0.162 HD
HETATM   11  O   UNL     1       8.029  27.708  58.160  1.00  0.00    -0.273 OA
BRANCH   9  12
HETATM   12  C   UNL     1       7.425  31.117  59.155  1.00  0.00     0.161 C 
BRANCH  12  13
HETATM   13  C   UNL     1       7.505  31.610  60.577  1.00  0.00    -0.040 A 
HETATM   14  C   UNL     1       8.695  31.495  61.312  1.00  0.00     0.011 A 
HETATM   15  C   UNL     1       8.785  31.992  62.617  1.00  0.00     0.037 A 
HETATM   16  C   UNL     1       7.691  32.628  63.201  1.00  0.00     0.068 A 
HETATM   17  C   UNL     1       6.506  32.749  62.472  1.00  0.00     0.037 A 
HETATM   18  C   UNL     1       6.410  32.246  61.172  1.00  0.00     0.011 A 
BRANCH  16  19
HETATM   19  O   UNL     1       7.649  33.171  64.455  1.00  0.00    -0.356 OA
HETATM   20  C   UNL     1       6.726  34.232  64.666  1.00  0.00     0.210 C 
ENDBRANCH  16  19
ENDBRANCH  12  13
ENDBRANCH   9  12
ENDBRANCH   7   8
ENDBRANCH   6   7
ENDBRANCH   1   6
BRANCH   2  21
HETATM   21  C   UNL     1       7.295  27.183  53.956  1.00  0.00     0.171 C 
BRANCH  21  22
HETATM   22  C   UNL     1       6.409  27.308  52.736  1.00  0.00    -0.040 A 
HETATM   23  C   UNL     1       6.137  26.237  51.872  1.00  0.00     0.009 A 
HETATM   24  C   UNL     1       5.304  26.410  50.764  1.00  0.00     0.001 A 
HETATM   25  C   UNL     1       4.710  27.646  50.519  1.00  0.00     0.000 A 
HETATM   26  C   UNL     1       4.943  28.711  51.386  1.00  0.00     0.001 A 
HETATM   27  C   UNL     1       5.782  28.543  52.488  1.00  0.00     0.009 A 
ENDBRANCH  21  22
ENDBRANCH   2  21
BRANCH   3  28
HETATM   28  C   UNL     1       7.905  24.140  54.510  1.00  0.00     0.057 A 
HETATM   29  C   UNL     1       7.764  22.648  54.733  1.00  0.00     0.013 A 
HETATM   30  C   UNL     1       7.272  23.248  53.462  1.00  0.00     0.013 A 
ENDBRANCH   3  28
TORSDOF 9
ENDMDL
MODEL 9
REMARK VINA RESULT:      -7.3      2.723      4.972
REMARK  9 active torsions:
REMARK  status: ('A' for Active; 'I' for Inactive)
REMARK    1  A    between atoms: O_2  and  C_3 
REMARK    2  A    between atoms: C_6  and  C_7 
REMARK    3  A    between atoms: C_7  and  N_8 
REMARK       I    between atoms: N_8  and  C_9 
REMARK    4  A    between atoms: C_9  and  C_10 
REMARK    5  A    between atoms: C_10  and  S_11 
REMARK    6  A    between atoms: S_11  and  C_12 
REMARK    7  A    between atoms: N_13  and  C_14 
REMARK    8  A    between atoms: C_14  and  C_15 
REMARK    9  A    between atoms: C_21  and  C_22 
ROOT
HETATM    1  C   UNL     1       7.812  25.161  56.866  1.00  0.00     0.192 A 
HETATM    2  N   UNL     1       7.870  25.121  55.499  1.00  0.00    -0.307 N 
HETATM    3  C   UNL     1       8.363  23.873  55.197  1.00  0.00     0.135 A 
HETATM    4  N   UNL     1       8.511  23.187  56.311  1.00  0.00    -0.134 NA
HETATM    5  N   UNL     1       8.162  23.999  57.362  1.00  0.00    -0.123 NA
ENDROOT
BRANCH   1   6
HETATM    6  S   UNL     1       7.397  26.567  57.776  1.00  0.00    -0.081 SA
BRANCH   6   7
HETATM    7  C   UNL     1       8.630  27.770  57.222  1.00  0.00     0.185 C 
BRANCH   7   8
HETATM    8  C   UNL     1       8.145  29.185  56.948  1.00  0.00     0.227 C 
HETATM    9  N   UNL     1       8.554  30.253  57.687  1.00  0.00    -0.356 N 
HETATM   10  H   UNL     1       8.176  31.126  57.336  1.00  0.00     0.162 HD
HETATM   11  O   UNL     1       7.453  29.427  55.954  1.00  0.00    -0.273 OA
BRANCH   9  12
HETATM   12  C   UNL     1       9.418  30.302  58.844  1.00  0.00     0.161 C 
BRANCH  12  13
HETATM   13  C   UNL     1       8.708  30.820  60.068  1.00  0.00    -0.040 A 
HETATM   14  C   UNL     1       9.155  30.483  61.355  1.00  0.00     0.011 A 
HETATM   15  C   UNL     1       8.524  31.000  62.493  1.00  0.00     0.037 A 
HETATM   16  C   UNL     1       7.447  31.874  62.361  1.00  0.00     0.068 A 
HETATM   17  C   UNL     1       7.002  32.215  61.082  1.00  0.00     0.037 A 
HETATM   18  C   UNL     1       7.624  31.696  59.944  1.00  0.00     0.011 A 
BRANCH  16  19
HETATM   19  O   UNL     1       6.755  32.461  63.384  1.00  0.00    -0.356 OA
HETATM   20  C   UNL     1       7.516  33.175  64.349  1.00  0.00     0.210 C 
ENDBRANCH  16  19
ENDBRANCH  12  13
ENDBRANCH   9  12
ENDBRANCH   7   8
ENDBRANCH   6   7
ENDBRANCH   1   6
BRANCH   2  21
HETATM   21  C   UNL     1       7.585  26.185  54.554  1.00  0.00     0.171 C 
BRANCH  21  22
HETATM   22  C   UNL     1       6.584  25.823  53.478  1.00  0.00    -0.040 A 
HETATM   23  C   UNL     1       6.808  26.057  52.113  1.00  0.00     0.009 A 
HETATM   24  C   UNL     1       5.849  25.695  51.163  1.00  0.00     0.001 A 
HETATM   25  C   UNL     1       4.670  25.070  51.560  1.00  0.00     0.000 A 
HETATM   26  C   UNL     1       4.447  24.800  52.907  1.00  0.00     0.001 A 
HETATM   27  C   UNL     1       5.399  25.170  53.859  1.00  0.00     0.009 A 
ENDBRANCH  21  22
ENDBRANCH   2  21
BRANCH   3  28
HETATM   28  C   UNL     1       8.697  23.330  53.815  1.00  0.00     0.057 A 
HETATM   29  C   UNL     1       8.984  21.848  53.685  1.00  0.00     0.013 A 
HETATM   30  C   UNL     1       7.700  22.394  53.162  1.00  0.00     0.013 A 
ENDBRANCH   3  28
TORSDOF 9
ENDMDL
MODEL 10
REMARK VINA RESULT:      -7.3      3.110      6.311
REMARK  9 active torsions:
REMARK  status: ('A' for Active; 'I' for Inactive)
REMARK    1  A    between atoms: O_2  and  C_3 
REMARK    2  A    between atoms: C_6  and  C_7 
REMARK    3  A    between atoms: C_7  and  N_8 
REMARK       I    between atoms: N_8  and  C_9 
REMARK    4  A    between atoms: C_9  and  C_10 
REMARK    5  A    between atoms: C_10  and  S_11 
REMARK    6  A    between atoms: S_11  and  C_12 
REMARK    7  A    between atoms: N_13  and  C_14 
REMARK    8  A    between atoms: C_14  and  C_15 
REMARK    9  A    between atoms: C_21  and  C_22 
ROOT
HETATM    1  C   UNL     1       6.833  28.554  56.583  1.00  0.00     0.192 A 
HETATM    2  N   UNL     1       7.531  27.595  55.900  1.00  0.00    -0.307 N 
HETATM    3  C   UNL     1       8.008  26.740  56.866  1.00  0.00     0.135 A 
HETATM    4  N   UNL     1       7.552  27.122  58.041  1.00  0.00    -0.134 NA
HETATM    5  N   UNL     1       6.811  28.264  57.861  1.00  0.00    -0.123 NA
ENDROOT
BRANCH   1   6
HETATM    6  S   UNL     1       6.148  29.958  55.852  1.00  0.00    -0.081 SA
BRANCH   6   7
HETATM    7  C   UNL     1       4.738  29.278  54.944  1.00  0.00     0.185 C 
BRANCH   7   8
HETATM    8  C   UNL     1       4.212  30.090  53.771  1.00  0.00     0.227 C 
HETATM    9  N   UNL     1       4.658  29.907  52.497  1.00  0.00    -0.356 N 
HETATM   10  H   UNL     1       4.163  30.492  51.833  1.00  0.00     0.162 HD
HETATM   11  O   UNL     1       3.259  30.862  53.923  1.00  0.00    -0.273 OA
BRANCH   9  12
HETATM   12  C   UNL     1       5.687  29.027  51.994  1.00  0.00     0.161 C 
BRANCH  12  13
HETATM   13  C   UNL     1       5.285  28.349  50.709  1.00  0.00    -0.040 A 
HETATM   14  C   UNL     1       5.342  29.035  49.487  1.00  0.00     0.011 A 
HETATM   15  C   UNL     1       5.011  28.394  48.287  1.00  0.00     0.037 A 
HETATM   16  C   UNL     1       4.636  27.052  48.291  1.00  0.00     0.068 A 
HETATM   17  C   UNL     1       4.583  26.364  49.505  1.00  0.00     0.037 A 
HETATM   18  C   UNL     1       4.903  27.003  50.705  1.00  0.00     0.011 A 
BRANCH  16  19
HETATM   19  O   UNL     1       4.306  26.304  47.194  1.00  0.00    -0.356 OA
HETATM   20  C   UNL     1       2.968  25.828  47.120  1.00  0.00     0.210 C 
ENDBRANCH  16  19
ENDBRANCH  12  13
ENDBRANCH   9  12
ENDBRANCH   7   8
ENDBRANCH   6   7
ENDBRANCH   1   6
BRANCH   2  21
HETATM   21  C   UNL     1       7.816  27.531  54.478  1.00  0.00     0.171 C 
BRANCH  21  22
HETATM   22  C   UNL     1       7.235  26.325  53.772  1.00  0.00    -0.040 A 
HETATM   23  C   UNL     1       7.948  25.573  52.825  1.00  0.00     0.009 A 
HETATM   24  C   UNL     1       7.362  24.464  52.210  1.00  0.00     0.001 A 
HETATM   25  C   UNL     1       6.070  24.074  52.551  1.00  0.00     0.000 A 
HETATM   26  C   UNL     1       5.361  24.789  53.513  1.00  0.00     0.001 A 
HETATM   27  C   UNL     1       5.940  25.903  54.122  1.00  0.00     0.009 A 
ENDBRANCH  21  22
ENDBRANCH   2  21
BRANCH   3  28
HETATM   28  C   UNL     1       8.915  25.536  56.658  1.00  0.00     0.057 A 
HETATM   29  C   UNL     1       8.903  24.448  57.711  1.00  0.00     0.013 A 
HETATM   30  C   UNL     1       8.261  24.195  56.391  1.00  0.00     0.013 A 
ENDBRANCH   3  28
TORSDOF 9
ENDMDL
