MODEL 1
REMARK VINA RESULT:     -10.5      0.000      0.000
REMARK  3 active torsions:
REMARK  status: ('A' for Active; 'I' for Inactive)
REMARK    1  A    between atoms: C_8  and  C_9 
REMARK       I    between atoms: C_9  and  N_10 
REMARK    2  A    between atoms: N_10  and  N_11 
REMARK    3  A    between atoms: N_11  and  C_12 
ROOT
HETATM    1  C   UNL     1       7.556  27.386  56.027  1.00  0.00     0.276 C 
HETATM    2  N   UNL     1       8.296  28.031  56.988  1.00  0.00    -0.264 N 
HETATM    3  O   UNL     1       6.830  28.006  55.247  1.00  0.00    -0.266 OA
HETATM    4  H   UNL     1       8.889  27.566  57.685  1.00  0.00     0.190 HD
ENDROOT
BRANCH   2   5
HETATM    5  N   UNL     1       8.210  29.426  57.044  1.00  0.00    -0.275 N 
HETATM    6  H   UNL     1       7.822  29.841  56.192  1.00  0.00     0.189 HD
BRANCH   5   7
HETATM    7  C   UNL     1       8.057  30.085  58.215  1.00  0.00     0.187 A 
HETATM    8  S   UNL     1       6.838  31.287  58.372  1.00  0.00    -0.048 SA
HETATM    9  C   UNL     1       7.322  31.580  59.996  1.00  0.00     0.043 A 
HETATM   10  C   UNL     1       8.388  30.734  60.312  1.00  0.00     0.115 A 
HETATM   11  C   UNL     1       6.796  32.497  60.922  1.00  0.00     0.063 A 
HETATM   12  N   UNL     1       8.785  29.885  59.288  1.00  0.00    -0.219 NA
HETATM   13  C   UNL     1       8.940  30.825  61.610  1.00  0.00     0.149 A 
HETATM   14  C   UNL     1       8.435  31.730  62.542  1.00  0.00     0.087 A 
HETATM   15  F   UNL     1       9.966  30.040  61.969  1.00  0.00    -0.203 F 
HETATM   16  C   UNL     1       7.376  32.548  62.188  1.00  0.00     0.120 A 
HETATM   17  F   UNL     1       6.894  33.415  63.087  1.00  0.00    -0.206 F 
ENDBRANCH   5   7
ENDBRANCH   2   5
BRANCH   1  18
HETATM   18  C   UNL     1       7.677  25.899  55.977  1.00  0.00     0.110 A 
HETATM   19  C   UNL     1       7.894  25.071  57.184  1.00  0.00     0.304 A 
HETATM   20  O   UNL     1       7.992  23.693  57.008  1.00  0.00    -0.274 OA
HETATM   21  O   UNL     1       7.987  25.569  58.302  1.00  0.00    -0.259 OA
HETATM   22  C   UNL     1       7.901  23.106  55.734  1.00  0.00     0.089 A 
HETATM   23  C   UNL     1       7.701  23.891  54.605  1.00  0.00    -0.001 A 
HETATM   24  C   UNL     1       8.020  21.721  55.651  1.00  0.00     0.038 A 
HETATM   25  C   UNL     1       7.620  23.271  53.356  1.00  0.00     0.014 A 
HETATM   26  C   UNL     1       7.586  25.330  54.763  1.00  0.00     0.037 A 
HETATM   27  C   UNL     1       7.740  21.881  53.256  1.00  0.00     0.001 A 
HETATM   28  C   UNL     1       7.939  21.108  54.402  1.00  0.00     0.003 A 
ENDBRANCH   1  18
TORSDOF 3
ENDMDL
MODEL 2
REMARK VINA RESULT:     -10.3      2.296      3.252
REMARK  3 active torsions:
REMARK  status: ('A' for Active; 'I' for Inactive)
REMARK    1  A    between atoms: C_8  and  C_9 
REMARK       I    between atoms: C_9  and  N_10 
REMARK    2  A    between atoms: N_10  and  N_11 
REMARK    3  A    between atoms: N_11  and  C_12 
ROOT
HETATM    1  C   UNL     1       6.588  26.142  54.554  1.00  0.00     0.276 C 
HETATM    2  N   UNL     1       7.452  27.205  54.441  1.00  0.00    -0.264 N 
HETATM    3  O   UNL     1       5.430  26.290  54.953  1.00  0.00    -0.266 OA
HETATM    4  H   UNL     1       8.433  27.137  54.149  1.00  0.00     0.190 HD
ENDROOT
BRANCH   2   5
HETATM    5  N   UNL     1       6.967  28.472  54.783  1.00  0.00    -0.275 N 
HETATM    6  H   UNL     1       5.981  28.605  54.544  1.00  0.00     0.189 HD
BRANCH   5   7
HETATM    7  C   UNL     1       7.489  29.181  55.810  1.00  0.00     0.187 A 
HETATM    8  S   UNL     1       6.447  29.944  56.944  1.00  0.00    -0.048 SA
HETATM    9  C   UNL     1       7.807  30.564  57.793  1.00  0.00     0.043 A 
HETATM   10  C   UNL     1       8.974  30.143  57.150  1.00  0.00     0.115 A 
HETATM   11  C   UNL     1       7.838  31.369  58.944  1.00  0.00     0.063 A 
HETATM   12  N   UNL     1       8.772  29.350  56.029  1.00  0.00    -0.219 NA
HETATM   13  C   UNL     1      10.212  30.557  57.692  1.00  0.00     0.149 A 
HETATM   14  C   UNL     1      10.264  31.358  58.832  1.00  0.00     0.087 A 
HETATM   15  F   UNL     1      11.364  30.186  57.116  1.00  0.00    -0.203 F 
HETATM   16  C   UNL     1       9.083  31.750  59.439  1.00  0.00     0.120 A 
HETATM   17  F   UNL     1       9.138  32.518  60.534  1.00  0.00    -0.206 F 
ENDBRANCH   5   7
ENDBRANCH   2   5
BRANCH   1  18
HETATM   18  C   UNL     1       7.123  24.803  54.167  1.00  0.00     0.110 A 
HETATM   19  C   UNL     1       7.544  24.475  52.788  1.00  0.00     0.304 A 
HETATM   20  O   UNL     1       8.026  23.190  52.553  1.00  0.00    -0.274 OA
HETATM   21  O   UNL     1       7.476  25.296  51.878  1.00  0.00    -0.259 OA
HETATM   22  C   UNL     1       8.100  22.232  53.579  1.00  0.00     0.089 A 
HETATM   23  C   UNL     1       7.698  22.547  54.871  1.00  0.00    -0.001 A 
HETATM   24  C   UNL     1       8.585  20.969  53.250  1.00  0.00     0.038 A 
HETATM   25  C   UNL     1       7.782  21.567  55.863  1.00  0.00     0.014 A 
HETATM   26  C   UNL     1       7.201  23.884  55.145  1.00  0.00     0.037 A 
HETATM   27  C   UNL     1       8.265  20.293  55.548  1.00  0.00     0.001 A 
HETATM   28  C   UNL     1       8.666  19.995  54.244  1.00  0.00     0.003 A 
ENDBRANCH   1  18
TORSDOF 3
ENDMDL
MODEL 3
REMARK VINA RESULT:     -10.2      7.687      9.868
REMARK  3 active torsions:
REMARK  status: ('A' for Active; 'I' for Inactive)
REMARK    1  A    between atoms: C_8  and  C_9 
REMARK       I    between atoms: C_9  and  N_10 
REMARK    2  A    between atoms: N_10  and  N_11 
REMARK    3  A    between atoms: N_11  and  C_12 
ROOT
HETATM    1  C   UNL     1       6.802  26.051  52.665  1.00  0.00     0.276 C 
HETATM    2  N   UNL     1       6.124  25.889  51.481  1.00  0.00    -0.264 N 
HETATM    3  O   UNL     1       7.203  27.157  53.034  1.00  0.00    -0.266 OA
HETATM    4  H   UNL     1       5.799  24.991  51.107  1.00  0.00     0.190 HD
ENDROOT
BRANCH   2   5
HETATM    5  N   UNL     1       5.889  27.032  50.709  1.00  0.00    -0.275 N 
HETATM    6  H   UNL     1       6.748  27.509  50.422  1.00  0.00     0.189 HD
BRANCH   5   7
HETATM    7  C   UNL     1       4.788  27.154  49.933  1.00  0.00     0.187 A 
HETATM    8  S   UNL     1       3.720  28.481  50.159  1.00  0.00    -0.048 SA
HETATM    9  C   UNL     1       2.705  27.892  48.903  1.00  0.00     0.043 A 
HETATM   10  C   UNL     1       3.254  26.714  48.389  1.00  0.00     0.115 A 
HETATM   11  C   UNL     1       1.505  28.434  48.410  1.00  0.00     0.063 A 
HETATM   12  N   UNL     1       4.444  26.316  48.983  1.00  0.00    -0.219 NA
HETATM   13  C   UNL     1       2.560  26.063  47.344  1.00  0.00     0.149 A 
HETATM   14  C   UNL     1       1.368  26.583  46.843  1.00  0.00     0.087 A 
HETATM   15  F   UNL     1       3.039  24.929  46.814  1.00  0.00    -0.203 F 
HETATM   16  C   UNL     1       0.860  27.754  47.379  1.00  0.00     0.120 A 
HETATM   17  F   UNL     1      -0.285  28.250  46.893  1.00  0.00    -0.206 F 
ENDBRANCH   5   7
ENDBRANCH   2   5
BRANCH   1  18
HETATM   18  C   UNL     1       7.026  24.820  53.480  1.00  0.00     0.110 A 
HETATM   19  C   UNL     1       6.692  24.738  54.918  1.00  0.00     0.304 A 
HETATM   20  O   UNL     1       6.950  23.534  55.569  1.00  0.00    -0.274 OA
HETATM   21  O   UNL     1       6.207  25.688  55.525  1.00  0.00    -0.259 OA
HETATM   22  C   UNL     1       7.516  22.439  54.894  1.00  0.00     0.089 A 
HETATM   23  C   UNL     1       7.831  22.525  53.543  1.00  0.00    -0.001 A 
HETATM   24  C   UNL     1       7.748  21.278  55.627  1.00  0.00     0.038 A 
HETATM   25  C   UNL     1       8.397  21.418  52.908  1.00  0.00     0.014 A 
HETATM   26  C   UNL     1       7.563  23.767  52.839  1.00  0.00     0.037 A 
HETATM   27  C   UNL     1       8.638  20.245  53.631  1.00  0.00     0.001 A 
HETATM   28  C   UNL     1       8.314  20.175  54.988  1.00  0.00     0.003 A 
ENDBRANCH   1  18
TORSDOF 3
ENDMDL
MODEL 4
REMARK VINA RESULT:     -10.2      1.677      2.051
REMARK  3 active torsions:
REMARK  status: ('A' for Active; 'I' for Inactive)
REMARK    1  A    between atoms: C_8  and  C_9 
REMARK       I    between atoms: C_9  and  N_10 
REMARK    2  A    between atoms: N_10  and  N_11 
REMARK    3  A    between atoms: N_11  and  C_12 
ROOT
HETATM    1  C   UNL     1       6.945  25.977  55.449  1.00  0.00     0.276 C 
HETATM    2  N   UNL     1       7.843  27.014  55.521  1.00  0.00    -0.264 N 
HETATM    3  O   UNL     1       5.729  26.177  55.399  1.00  0.00    -0.266 OA
HETATM    4  H   UNL     1       8.860  26.908  55.600  1.00  0.00     0.190 HD
ENDROOT
BRANCH   2   5
HETATM    5  N   UNL     1       7.330  28.315  55.523  1.00  0.00    -0.275 N 
HETATM    6  H   UNL     1       6.452  28.404  55.004  1.00  0.00     0.189 HD
BRANCH   5   7
HETATM    7  C   UNL     1       7.575  29.177  56.536  1.00  0.00     0.187 A 
HETATM    8  S   UNL     1       6.276  29.776  57.489  1.00  0.00    -0.048 SA
HETATM    9  C   UNL     1       7.376  30.713  58.419  1.00  0.00     0.043 A 
HETATM   10  C   UNL     1       8.671  30.504  57.938  1.00  0.00     0.115 A 
HETATM   11  C   UNL     1       7.110  31.575  59.497  1.00  0.00     0.063 A 
HETATM   12  N   UNL     1       8.764  29.620  56.872  1.00  0.00    -0.219 NA
HETATM   13  C   UNL     1       9.729  31.196  58.569  1.00  0.00     0.149 A 
HETATM   14  C   UNL     1       9.486  32.058  59.638  1.00  0.00     0.087 A 
HETATM   15  F   UNL     1      10.992  31.036  58.149  1.00  0.00    -0.203 F 
HETATM   16  C   UNL     1       8.188  32.234  60.085  1.00  0.00     0.120 A 
HETATM   17  F   UNL     1       7.959  33.061  61.112  1.00  0.00    -0.206 F 
ENDBRANCH   5   7
ENDBRANCH   2   5
BRANCH   1  18
HETATM   18  C   UNL     1       7.518  24.598  55.432  1.00  0.00     0.110 A 
HETATM   19  C   UNL     1       8.247  24.019  56.581  1.00  0.00     0.304 A 
HETATM   20  O   UNL     1       8.736  22.722  56.444  1.00  0.00    -0.274 OA
HETATM   21  O   UNL     1       8.422  24.648  57.621  1.00  0.00    -0.259 OA
HETATM   22  C   UNL     1       8.557  21.990  55.257  1.00  0.00     0.089 A 
HETATM   23  C   UNL     1       7.874  22.543  54.180  1.00  0.00    -0.001 A 
HETATM   24  C   UNL     1       9.088  20.704  55.204  1.00  0.00     0.038 A 
HETATM   25  C   UNL     1       7.720  21.786  53.017  1.00  0.00     0.014 A 
HETATM   26  C   UNL     1       7.346  23.890  54.303  1.00  0.00     0.037 A 
HETATM   27  C   UNL     1       8.249  20.494  52.948  1.00  0.00     0.001 A 
HETATM   28  C   UNL     1       8.932  19.954  54.041  1.00  0.00     0.003 A 
ENDBRANCH   1  18
TORSDOF 3
ENDMDL
MODEL 5
REMARK VINA RESULT:     -10.0      2.369      3.255
REMARK  3 active torsions:
REMARK  status: ('A' for Active; 'I' for Inactive)
REMARK    1  A    between atoms: C_8  and  C_9 
REMARK       I    between atoms: C_9  and  N_10 
REMARK    2  A    between atoms: N_10  and  N_11 
REMARK    3  A    between atoms: N_11  and  C_12 
ROOT
HETATM    1  C   UNL     1       6.462  26.145  54.561  1.00  0.00     0.276 C 
HETATM    2  N   UNL     1       7.334  27.131  54.956  1.00  0.00    -0.264 N 
HETATM    3  O   UNL     1       5.247  26.343  54.500  1.00  0.00    -0.266 OA
HETATM    4  H   UNL     1       8.348  27.014  55.059  1.00  0.00     0.190 HD
ENDROOT
BRANCH   2   5
HETATM    5  N   UNL     1       6.794  28.381  55.277  1.00  0.00    -0.275 N 
HETATM    6  H   UNL     1       5.797  28.459  55.057  1.00  0.00     0.189 HD
BRANCH   5   7
HETATM    7  C   UNL     1       7.300  29.142  56.274  1.00  0.00     0.187 A 
HETATM    8  S   UNL     1       8.991  29.137  56.586  1.00  0.00    -0.048 SA
HETATM    9  C   UNL     1       8.766  30.243  57.882  1.00  0.00     0.043 A 
HETATM   10  C   UNL     1       7.406  30.546  57.990  1.00  0.00     0.115 A 
HETATM   11  C   UNL     1       9.726  30.800  58.744  1.00  0.00     0.063 A 
HETATM   12  N   UNL     1       6.590  29.916  57.061  1.00  0.00    -0.219 NA
HETATM   13  C   UNL     1       7.008  31.440  59.010  1.00  0.00     0.149 A 
HETATM   14  C   UNL     1       7.945  32.001  59.877  1.00  0.00     0.087 A 
HETATM   15  F   UNL     1       5.717  31.766  59.162  1.00  0.00    -0.203 F 
HETATM   16  C   UNL     1       9.282  31.676  59.733  1.00  0.00     0.120 A 
HETATM   17  F   UNL     1      10.178  32.218  60.567  1.00  0.00    -0.206 F 
ENDBRANCH   5   7
ENDBRANCH   2   5
BRANCH   1  18
HETATM   18  C   UNL     1       7.064  24.825  54.208  1.00  0.00     0.110 A 
HETATM   19  C   UNL     1       7.608  24.524  52.866  1.00  0.00     0.304 A 
HETATM   20  O   UNL     1       8.142  23.255  52.660  1.00  0.00    -0.274 OA
HETATM   21  O   UNL     1       7.593  25.353  51.961  1.00  0.00    -0.259 OA
HETATM   22  C   UNL     1       8.156  22.287  53.680  1.00  0.00     0.089 A 
HETATM   23  C   UNL     1       7.639  22.576  54.937  1.00  0.00    -0.001 A 
HETATM   24  C   UNL     1       8.701  21.041  53.381  1.00  0.00     0.038 A 
HETATM   25  C   UNL     1       7.668  21.588  55.923  1.00  0.00     0.014 A 
HETATM   26  C   UNL     1       7.086  23.896  55.180  1.00  0.00     0.037 A 
HETATM   27  C   UNL     1       8.210  20.331  55.638  1.00  0.00     0.001 A 
HETATM   28  C   UNL     1       8.726  20.058  54.369  1.00  0.00     0.003 A 
ENDBRANCH   1  18
TORSDOF 3
ENDMDL
MODEL 6
REMARK VINA RESULT:      -9.8      3.916      9.674
REMARK  3 active torsions:
REMARK  status: ('A' for Active; 'I' for Inactive)
REMARK    1  A    between atoms: C_8  and  C_9 
REMARK       I    between atoms: C_9  and  N_10 
REMARK    2  A    between atoms: N_10  and  N_11 
REMARK    3  A    between atoms: N_11  and  C_12 
ROOT
HETATM    1  C   UNL     1       8.065  31.440  59.540  1.00  0.00     0.276 C 
HETATM    2  N   UNL     1       7.820  30.124  59.230  1.00  0.00    -0.264 N 
HETATM    3  O   UNL     1       8.910  32.101  58.932  1.00  0.00    -0.266 OA
HETATM    4  H   UNL     1       7.156  29.517  59.723  1.00  0.00     0.190 HD
ENDROOT
BRANCH   2   5
HETATM    5  N   UNL     1       8.556  29.559  58.183  1.00  0.00    -0.275 N 
HETATM    6  H   UNL     1       9.568  29.633  58.315  1.00  0.00     0.189 HD
BRANCH   5   7
HETATM    7  C   UNL     1       8.070  28.538  57.441  1.00  0.00     0.187 A 
HETATM    8  S   UNL     1       6.990  28.856  56.143  1.00  0.00    -0.048 SA
HETATM    9  C   UNL     1       6.881  27.174  55.806  1.00  0.00     0.043 A 
HETATM   10  C   UNL     1       7.684  26.476  56.712  1.00  0.00     0.115 A 
HETATM   11  C   UNL     1       6.135  26.519  54.812  1.00  0.00     0.063 A 
HETATM   12  N   UNL     1       8.359  27.271  57.628  1.00  0.00    -0.219 NA
HETATM   13  C   UNL     1       7.727  25.068  56.608  1.00  0.00     0.149 A 
HETATM   14  C   UNL     1       6.992  24.399  55.630  1.00  0.00     0.087 A 
HETATM   15  F   UNL     1       8.479  24.346  57.451  1.00  0.00    -0.203 F 
HETATM   16  C   UNL     1       6.212  25.129  54.750  1.00  0.00     0.120 A 
HETATM   17  F   UNL     1       5.508  24.482  53.812  1.00  0.00    -0.206 F 
ENDBRANCH   5   7
ENDBRANCH   2   5
BRANCH   1  18
HETATM   18  C   UNL     1       7.256  32.026  60.650  1.00  0.00     0.110 A 
HETATM   19  C   UNL     1       5.821  32.355  60.509  1.00  0.00     0.304 A 
HETATM   20  O   UNL     1       5.175  32.898  61.617  1.00  0.00    -0.274 OA
HETATM   21  O   UNL     1       5.213  32.162  59.461  1.00  0.00    -0.259 OA
HETATM   22  C   UNL     1       5.858  33.139  62.822  1.00  0.00     0.089 A 
HETATM   23  C   UNL     1       7.207  32.831  62.945  1.00  0.00    -0.001 A 
HETATM   24  C   UNL     1       5.135  33.694  63.875  1.00  0.00     0.038 A 
HETATM   25  C   UNL     1       7.852  33.088  64.157  1.00  0.00     0.014 A 
HETATM   26  C   UNL     1       7.901  32.254  61.807  1.00  0.00     0.037 A 
HETATM   27  C   UNL     1       7.140  33.647  65.223  1.00  0.00     0.001 A 
HETATM   28  C   UNL     1       5.783  33.949  65.081  1.00  0.00     0.003 A 
ENDBRANCH   1  18
TORSDOF 3
ENDMDL
MODEL 7
REMARK VINA RESULT:      -9.6      4.070      9.372
REMARK  3 active torsions:
REMARK  status: ('A' for Active; 'I' for Inactive)
REMARK    1  A    between atoms: C_8  and  C_9 
REMARK       I    between atoms: C_9  and  N_10 
REMARK    2  A    between atoms: N_10  and  N_11 
REMARK    3  A    between atoms: N_11  and  C_12 
ROOT
HETATM    1  C   UNL     1       7.290  28.804  56.272  1.00  0.00     0.276 C 
HETATM    2  N   UNL     1       7.572  27.465  56.148  1.00  0.00    -0.264 N 
HETATM    3  O   UNL     1       6.484  29.366  55.528  1.00  0.00    -0.266 OA
HETATM    4  H   UNL     1       8.257  26.952  56.714  1.00  0.00     0.190 HD
ENDROOT
BRANCH   2   5
HETATM    5  N   UNL     1       6.899  26.752  55.150  1.00  0.00    -0.275 N 
HETATM    6  H   UNL     1       6.517  27.351  54.413  1.00  0.00     0.189 HD
BRANCH   5   7
HETATM    7  C   UNL     1       7.220  25.474  54.847  1.00  0.00     0.187 A 
HETATM    8  S   UNL     1       7.371  24.992  53.204  1.00  0.00    -0.048 SA
HETATM    9  C   UNL     1       7.738  23.387  53.697  1.00  0.00     0.043 A 
HETATM   10  C   UNL     1       7.722  23.325  55.093  1.00  0.00     0.115 A 
HETATM   11  C   UNL     1       8.018  22.261  52.903  1.00  0.00     0.063 A 
HETATM   12  N   UNL     1       7.434  24.525  55.728  1.00  0.00    -0.219 NA
HETATM   13  C   UNL     1       7.994  22.079  55.702  1.00  0.00     0.149 A 
HETATM   14  C   UNL     1       8.270  20.950  54.932  1.00  0.00     0.087 A 
HETATM   15  F   UNL     1       7.990  21.960  57.037  1.00  0.00    -0.203 F 
HETATM   16  C   UNL     1       8.279  21.056  53.552  1.00  0.00     0.120 A 
HETATM   17  F   UNL     1       8.546  19.969  52.817  1.00  0.00    -0.206 F 
ENDBRANCH   5   7
ENDBRANCH   2   5
BRANCH   1  18
HETATM   18  C   UNL     1       8.010  29.539  57.355  1.00  0.00     0.110 A 
HETATM   19  C   UNL     1       9.484  29.549  57.474  1.00  0.00     0.304 A 
HETATM   20  O   UNL     1      10.037  30.272  58.529  1.00  0.00    -0.274 OA
HETATM   21  O   UNL     1      10.202  28.948  56.681  1.00  0.00    -0.259 OA
HETATM   22  C   UNL     1       9.231  30.957  59.454  1.00  0.00     0.089 A 
HETATM   23  C   UNL     1       7.846  30.939  59.338  1.00  0.00    -0.001 A 
HETATM   24  C   UNL     1       9.870  31.645  60.483  1.00  0.00     0.038 A 
HETATM   25  C   UNL     1       7.079  31.628  60.279  1.00  0.00     0.014 A 
HETATM   26  C   UNL     1       7.245  30.201  58.241  1.00  0.00     0.037 A 
HETATM   27  C   UNL     1       7.706  32.322  61.319  1.00  0.00     0.001 A 
HETATM   28  C   UNL     1       9.099  32.330  61.420  1.00  0.00     0.003 A 
ENDBRANCH   1  18
TORSDOF 3
ENDMDL
MODEL 8
REMARK VINA RESULT:      -9.5      4.456      5.120
REMARK  3 active torsions:
REMARK  status: ('A' for Active; 'I' for Inactive)
REMARK    1  A    between atoms: C_8  and  C_9 
REMARK       I    between atoms: C_9  and  N_10 
REMARK    2  A    between atoms: N_10  and  N_11 
REMARK    3  A    between atoms: N_11  and  C_12 
ROOT
HETATM    1  C   UNL     1       5.891  25.611  53.302  1.00  0.00     0.276 C 
HETATM    2  N   UNL     1       4.617  25.942  53.697  1.00  0.00    -0.264 N 
HETATM    3  O   UNL     1       6.489  26.259  52.440  1.00  0.00    -0.266 OA
HETATM    4  H   UNL     1       4.059  25.420  54.382  1.00  0.00     0.190 HD
ENDROOT
BRANCH   2   5
HETATM    5  N   UNL     1       4.021  27.054  53.094  1.00  0.00    -0.275 N 
HETATM    6  H   UNL     1       3.323  26.806  52.388  1.00  0.00     0.189 HD
BRANCH   5   7
HETATM    7  C   UNL     1       3.898  28.235  53.741  1.00  0.00     0.187 A 
HETATM    8  S   UNL     1       3.389  29.636  52.885  1.00  0.00    -0.048 SA
HETATM    9  C   UNL     1       3.517  30.573  54.321  1.00  0.00     0.043 A 
HETATM   10  C   UNL     1       3.940  29.748  55.366  1.00  0.00     0.115 A 
HETATM   11  C   UNL     1       3.262  31.943  54.507  1.00  0.00     0.063 A 
HETATM   12  N   UNL     1       4.143  28.420  55.018  1.00  0.00    -0.219 NA
HETATM   13  C   UNL     1       4.114  30.334  56.640  1.00  0.00     0.149 A 
HETATM   14  C   UNL     1       3.870  31.691  56.845  1.00  0.00     0.087 A 
HETATM   15  F   UNL     1       4.521  29.591  57.680  1.00  0.00    -0.203 F 
HETATM   16  C   UNL     1       3.449  32.472  55.782  1.00  0.00     0.120 A 
HETATM   17  F   UNL     1       3.215  33.775  55.983  1.00  0.00    -0.206 F 
ENDBRANCH   5   7
ENDBRANCH   2   5
BRANCH   1  18
HETATM   18  C   UNL     1       6.512  24.429  53.972  1.00  0.00     0.110 A 
HETATM   19  C   UNL     1       6.609  24.300  55.442  1.00  0.00     0.304 A 
HETATM   20  O   UNL     1       7.212  23.151  55.946  1.00  0.00    -0.274 OA
HETATM   21  O   UNL     1       6.180  25.167  56.198  1.00  0.00    -0.259 OA
HETATM   22  C   UNL     1       7.721  22.153  55.097  1.00  0.00     0.089 A 
HETATM   23  C   UNL     1       7.629  22.284  53.716  1.00  0.00    -0.001 A 
HETATM   24  C   UNL     1       8.316  21.042  55.689  1.00  0.00     0.038 A 
HETATM   25  C   UNL     1       8.150  21.274  52.905  1.00  0.00     0.014 A 
HETATM   26  C   UNL     1       6.996  23.469  53.165  1.00  0.00     0.037 A 
HETATM   27  C   UNL     1       8.753  20.153  53.485  1.00  0.00     0.001 A 
HETATM   28  C   UNL     1       8.835  20.037  54.875  1.00  0.00     0.003 A 
ENDBRANCH   1  18
TORSDOF 3
ENDMDL
MODEL 9
REMARK VINA RESULT:      -9.4      0.990      1.167
REMARK  3 active torsions:
REMARK  status: ('A' for Active; 'I' for Inactive)
REMARK    1  A    between atoms: C_8  and  C_9 
REMARK       I    between atoms: C_9  and  N_10 
REMARK    2  A    between atoms: N_10  and  N_11 
REMARK    3  A    between atoms: N_11  and  C_12 
ROOT
HETATM    1  C   UNL     1       7.855  28.302  56.366  1.00  0.00     0.276 C 
HETATM    2  N   UNL     1       8.762  28.670  57.330  1.00  0.00    -0.264 N 
HETATM    3  O   UNL     1       7.156  29.135  55.784  1.00  0.00    -0.266 OA
HETATM    4  H   UNL     1       9.343  28.020  57.870  1.00  0.00     0.190 HD
ENDROOT
BRANCH   2   5
HETATM    5  N   UNL     1       8.877  30.033  57.623  1.00  0.00    -0.275 N 
HETATM    6  H   UNL     1       9.042  30.612  56.795  1.00  0.00     0.189 HD
BRANCH   5   7
HETATM    7  C   UNL     1       8.259  30.588  58.690  1.00  0.00     0.187 A 
HETATM    8  S   UNL     1       6.840  31.532  58.467  1.00  0.00    -0.048 SA
HETATM    9  C   UNL     1       6.754  31.822  60.159  1.00  0.00     0.043 A 
HETATM   10  C   UNL     1       7.821  31.173  60.787  1.00  0.00     0.115 A 
HETATM   11  C   UNL     1       5.810  32.574  60.880  1.00  0.00     0.063 A 
HETATM   12  N   UNL     1       8.660  30.469  59.934  1.00  0.00    -0.219 NA
HETATM   13  C   UNL     1       7.935  31.295  62.190  1.00  0.00     0.149 A 
HETATM   14  C   UNL     1       7.010  32.039  62.922  1.00  0.00     0.087 A 
HETATM   15  F   UNL     1       8.939  30.696  62.845  1.00  0.00    -0.203 F 
HETATM   16  C   UNL     1       5.967  32.663  62.261  1.00  0.00     0.120 A 
HETATM   17  F   UNL     1       5.081  33.376  62.969  1.00  0.00    -0.206 F 
ENDBRANCH   5   7
ENDBRANCH   2   5
BRANCH   1  18
HETATM   18  C   UNL     1       7.761  26.844  56.060  1.00  0.00     0.110 A 
HETATM   19  C   UNL     1       7.694  25.806  57.111  1.00  0.00     0.304 A 
HETATM   20  O   UNL     1       7.611  24.479  56.699  1.00  0.00    -0.274 OA
HETATM   21  O   UNL     1       7.711  26.092  58.305  1.00  0.00    -0.259 OA
HETATM   22  C   UNL     1       7.602  24.130  55.337  1.00  0.00     0.089 A 
HETATM   23  C   UNL     1       7.670  25.111  54.355  1.00  0.00    -0.001 A 
HETATM   24  C   UNL     1       7.527  22.777  55.017  1.00  0.00     0.038 A 
HETATM   25  C   UNL     1       7.664  24.725  53.013  1.00  0.00     0.014 A 
HETATM   26  C   UNL     1       7.748  26.503  54.759  1.00  0.00     0.037 A 
HETATM   27  C   UNL     1       7.590  23.370  52.675  1.00  0.00     0.001 A 
HETATM   28  C   UNL     1       7.521  22.398  53.676  1.00  0.00     0.003 A 
ENDBRANCH   1  18
TORSDOF 3
ENDMDL
MODEL 10
REMARK VINA RESULT:      -9.3      4.339      9.481
REMARK  3 active torsions:
REMARK  status: ('A' for Active; 'I' for Inactive)
REMARK    1  A    between atoms: C_8  and  C_9 
REMARK       I    between atoms: C_9  and  N_10 
REMARK    2  A    between atoms: N_10  and  N_11 
REMARK    3  A    between atoms: N_11  and  C_12 
ROOT
HETATM    1  C   UNL     1       6.548  29.574  56.782  1.00  0.00     0.276 C 
HETATM    2  N   UNL     1       6.659  28.208  56.685  1.00  0.00    -0.264 N 
HETATM    3  O   UNL     1       6.042  30.247  55.882  1.00  0.00    -0.266 OA
HETATM    4  H   UNL     1       7.101  27.601  57.384  1.00  0.00     0.190 HD
ENDROOT
BRANCH   2   5
HETATM    5  N   UNL     1       6.162  27.600  55.527  1.00  0.00    -0.275 N 
HETATM    6  H   UNL     1       5.912  28.269  54.794  1.00  0.00     0.189 HD
BRANCH   5   7
HETATM    7  C   UNL     1       6.526  26.348  55.167  1.00  0.00     0.187 A 
HETATM    8  S   UNL     1       6.509  25.080  56.327  1.00  0.00    -0.048 SA
HETATM    9  C   UNL     1       7.071  23.971  55.139  1.00  0.00     0.043 A 
HETATM   10  C   UNL     1       7.234  24.647  53.927  1.00  0.00     0.115 A 
HETATM   11  C   UNL     1       7.351  22.600  55.272  1.00  0.00     0.063 A 
HETATM   12  N   UNL     1       6.910  25.997  53.961  1.00  0.00    -0.219 NA
HETATM   13  C   UNL     1       7.700  23.909  52.816  1.00  0.00     0.149 A 
HETATM   14  C   UNL     1       7.986  22.549  52.928  1.00  0.00     0.087 A 
HETATM   15  F   UNL     1       7.877  24.505  51.629  1.00  0.00    -0.203 F 
HETATM   16  C   UNL     1       7.808  21.917  54.147  1.00  0.00     0.120 A 
HETATM   17  F   UNL     1       8.083  20.610  54.250  1.00  0.00    -0.206 F 
ENDBRANCH   5   7
ENDBRANCH   2   5
BRANCH   1  18
HETATM   18  C   UNL     1       7.071  30.198  58.034  1.00  0.00     0.110 A 
HETATM   19  C   UNL     1       8.373  29.828  58.631  1.00  0.00     0.304 A 
HETATM   20  O   UNL     1       8.750  30.481  59.801  1.00  0.00    -0.274 OA
HETATM   21  O   UNL     1       9.100  28.979  58.123  1.00  0.00    -0.259 OA
HETATM   22  C   UNL     1       7.926  31.447  60.404  1.00  0.00     0.089 A 
HETATM   23  C   UNL     1       6.702  31.786  59.839  1.00  0.00    -0.001 A 
HETATM   24  C   UNL     1       8.379  32.042  61.579  1.00  0.00     0.038 A 
HETATM   25  C   UNL     1       5.909  32.747  60.470  1.00  0.00     0.014 A 
HETATM   26  C   UNL     1       6.290  31.126  58.613  1.00  0.00     0.037 A 
HETATM   27  C   UNL     1       6.350  33.351  61.651  1.00  0.00     0.001 A 
HETATM   28  C   UNL     1       7.583  32.999  62.205  1.00  0.00     0.003 A 
ENDBRANCH   1  18
TORSDOF 3
ENDMDL
