MODEL 1
REMARK VINA RESULT:      -8.9      0.000      0.000
REMARK  5 active torsions:
REMARK  status: ('A' for Active; 'I' for Inactive)
REMARK    1  A    between atoms: C_6  and  C_7 
REMARK    2  A    between atoms: C_7  and  C_8 
REMARK    3  A    between atoms: C_8  and  C_9 
REMARK    4  A    between atoms: C_9  and  N_10 
REMARK    5  A    between atoms: C_9  and  C_14 
ROOT
HETATM    1  C   UNL     1       7.248  28.683  57.029  1.00  0.00     0.253 C 
ENDROOT
BRANCH   1   2
HETATM    2  C   UNL     1       8.151  27.432  57.060  1.00  0.00     0.048 C 
BRANCH   2   3
HETATM    3  C   UNL     1       7.521  26.130  57.576  1.00  0.00     0.081 C 
BRANCH   3   4
HETATM    4  C   UNL     1       7.690  25.014  56.609  1.00  0.00     0.105 A 
HETATM    5  N   UNL     1       7.731  25.158  55.298  1.00  0.00    -0.233 NA
HETATM    6  C   UNL     1       7.799  23.874  54.798  1.00  0.00     0.085 A 
HETATM    7  C   UNL     1       7.816  22.943  55.831  1.00  0.00     0.062 A 
HETATM    8  C   UNL     1       7.828  23.427  53.469  1.00  0.00     0.034 A 
HETATM    9  C   UNL     1       7.858  21.564  55.619  1.00  0.00     0.032 A 
HETATM   10  N   UNL     1       7.783  23.695  56.976  1.00  0.00    -0.343 N 
HETATM   11  C   UNL     1       7.877  21.135  54.288  1.00  0.00     0.002 A 
HETATM   12  C   UNL     1       7.863  22.046  53.229  1.00  0.00     0.002 A 
HETATM   13  H   UNL     1       7.796  23.329  57.919  1.00  0.00     0.167 HD
ENDBRANCH   3   4
ENDBRANCH   2   3
ENDBRANCH   1   2
BRANCH   1  14
HETATM   14  N   UNL     1       7.458  29.456  55.781  1.00  0.00    -0.068 N 
HETATM   15  H   UNL     1       6.765  30.207  55.713  1.00  0.00     0.275 HD
HETATM   16  H   UNL     1       8.377  29.911  55.778  1.00  0.00     0.275 HD
HETATM   17  H   UNL     1       7.338  28.831  54.964  1.00  0.00     0.275 HD
ENDBRANCH   1  14
BRANCH   1  18
HETATM   18  C   UNL     1       7.535  29.570  58.197  1.00  0.00     0.136 A 
HETATM   19  N   UNL     1       8.580  29.455  58.991  1.00  0.00    -0.231 NA
HETATM   20  C   UNL     1       8.454  30.474  59.908  1.00  0.00     0.085 A 
HETATM   21  C   UNL     1       7.329  31.246  59.635  1.00  0.00     0.062 A 
HETATM   22  C   UNL     1       9.266  30.809  61.001  1.00  0.00     0.034 A 
HETATM   23  N   UNL     1       6.758  30.649  58.540  1.00  0.00    -0.341 N 
HETATM   24  C   UNL     1       6.963  32.363  60.387  1.00  0.00     0.032 A 
HETATM   25  H   UNL     1       5.915  30.970  58.082  1.00  0.00     0.167 HD
HETATM   26  C   UNL     1       7.787  32.684  61.472  1.00  0.00     0.002 A 
HETATM   27  C   UNL     1       8.916  31.920  61.778  1.00  0.00     0.002 A 
ENDBRANCH   1  18
TORSDOF 5
ENDMDL
MODEL 2
REMARK VINA RESULT:      -8.9      4.318      6.409
REMARK  5 active torsions:
REMARK  status: ('A' for Active; 'I' for Inactive)
REMARK    1  A    between atoms: C_6  and  C_7 
REMARK    2  A    between atoms: C_7  and  C_8 
REMARK    3  A    between atoms: C_8  and  C_9 
REMARK    4  A    between atoms: C_9  and  N_10 
REMARK    5  A    between atoms: C_9  and  C_14 
ROOT
HETATM    1  C   UNL     1       5.394  26.936  56.140  1.00  0.00     0.253 C 
ENDROOT
BRANCH   1   2
HETATM    2  C   UNL     1       5.545  25.494  56.670  1.00  0.00     0.048 C 
BRANCH   2   3
HETATM    3  C   UNL     1       6.965  25.025  57.015  1.00  0.00     0.081 C 
BRANCH   3   4
HETATM    4  C   UNL     1       7.410  23.915  56.131  1.00  0.00     0.105 A 
HETATM    5  N   UNL     1       7.260  23.896  54.820  1.00  0.00    -0.233 NA
HETATM    6  C   UNL     1       7.719  22.655  54.425  1.00  0.00     0.085 A 
HETATM    7  C   UNL     1       8.168  21.925  55.520  1.00  0.00     0.062 A 
HETATM    8  C   UNL     1       7.761  22.077  53.148  1.00  0.00     0.034 A 
HETATM    9  C   UNL     1       8.665  20.624  55.421  1.00  0.00     0.032 A 
HETATM   10  N   UNL     1       7.995  22.762  56.591  1.00  0.00    -0.343 N 
HETATM   11  C   UNL     1       8.693  20.060  54.141  1.00  0.00     0.002 A 
HETATM   12  C   UNL     1       8.251  20.770  53.023  1.00  0.00     0.002 A 
HETATM   13  H   UNL     1       8.234  22.546  57.550  1.00  0.00     0.167 HD
ENDBRANCH   3   4
ENDBRANCH   2   3
ENDBRANCH   1   2
BRANCH   1  14
HETATM   14  N   UNL     1       4.176  27.578  56.693  1.00  0.00    -0.068 N 
HETATM   15  H   UNL     1       4.057  28.511  56.288  1.00  0.00     0.275 HD
HETATM   16  H   UNL     1       3.333  27.047  56.449  1.00  0.00     0.275 HD
HETATM   17  H   UNL     1       4.278  27.683  57.719  1.00  0.00     0.275 HD
ENDBRANCH   1  14
BRANCH   1  18
HETATM   18  C   UNL     1       5.302  26.943  54.648  1.00  0.00     0.136 A 
HETATM   19  N   UNL     1       5.460  28.008  53.889  1.00  0.00    -0.231 NA
HETATM   20  C   UNL     1       5.308  27.559  52.596  1.00  0.00     0.085 A 
HETATM   21  C   UNL     1       5.095  26.185  52.575  1.00  0.00     0.062 A 
HETATM   22  C   UNL     1       5.345  28.266  51.387  1.00  0.00     0.034 A 
HETATM   23  N   UNL     1       5.093  25.814  53.895  1.00  0.00    -0.341 N 
HETATM   24  C   UNL     1       4.930  25.452  51.398  1.00  0.00     0.032 A 
HETATM   25  H   UNL     1       4.964  24.867  54.229  1.00  0.00     0.167 HD
HETATM   26  C   UNL     1       4.973  26.173  50.200  1.00  0.00     0.002 A 
HETATM   27  C   UNL     1       5.174  27.556  50.192  1.00  0.00     0.002 A 
ENDBRANCH   1  18
TORSDOF 5
ENDMDL
MODEL 3
REMARK VINA RESULT:      -8.8      1.655      8.765
REMARK  5 active torsions:
REMARK  status: ('A' for Active; 'I' for Inactive)
REMARK    1  A    between atoms: C_6  and  C_7 
REMARK    2  A    between atoms: C_7  and  C_8 
REMARK    3  A    between atoms: C_8  and  C_9 
REMARK    4  A    between atoms: C_9  and  N_10 
REMARK    5  A    between atoms: C_9  and  C_14 
ROOT
HETATM    1  C   UNL     1       6.936  24.851  57.021  1.00  0.00     0.253 C 
ENDROOT
BRANCH   1   2
HETATM    2  C   UNL     1       6.490  26.078  56.197  1.00  0.00     0.048 C 
BRANCH   2   3
HETATM    3  C   UNL     1       5.975  27.293  56.981  1.00  0.00     0.081 C 
BRANCH   3   4
HETATM    4  C   UNL     1       7.045  28.301  57.201  1.00  0.00     0.105 A 
HETATM    5  N   UNL     1       8.237  28.266  56.635  1.00  0.00    -0.233 NA
HETATM    6  C   UNL     1       8.929  29.323  57.190  1.00  0.00     0.085 A 
HETATM    7  C   UNL     1       8.130  30.016  58.093  1.00  0.00     0.062 A 
HETATM    8  C   UNL     1      10.252  29.739  56.983  1.00  0.00     0.034 A 
HETATM    9  C   UNL     1       8.577  31.119  58.822  1.00  0.00     0.032 A 
HETATM   10  N   UNL     1       6.923  29.368  58.056  1.00  0.00    -0.343 N 
HETATM   11  C   UNL     1       9.902  31.515  58.610  1.00  0.00     0.002 A 
HETATM   12  C   UNL     1      10.727  30.840  57.708  1.00  0.00     0.002 A 
HETATM   13  H   UNL     1       6.103  29.624  58.591  1.00  0.00     0.167 HD
ENDBRANCH   3   4
ENDBRANCH   2   3
ENDBRANCH   1   2
BRANCH   1  14
HETATM   14  N   UNL     1       8.094  25.187  57.886  1.00  0.00    -0.068 N 
HETATM   15  H   UNL     1       8.369  24.369  58.438  1.00  0.00     0.275 HD
HETATM   16  H   UNL     1       8.912  25.447  57.325  1.00  0.00     0.275 HD
HETATM   17  H   UNL     1       7.825  25.942  58.543  1.00  0.00     0.275 HD
ENDBRANCH   1  14
BRANCH   1  18
HETATM   18  C   UNL     1       7.324  23.723  56.121  1.00  0.00     0.136 A 
HETATM   19  N   UNL     1       7.186  23.724  54.810  1.00  0.00    -0.231 NA
HETATM   20  C   UNL     1       7.678  22.508  54.392  1.00  0.00     0.085 A 
HETATM   21  C   UNL     1       8.160  21.775  55.471  1.00  0.00     0.062 A 
HETATM   22  C   UNL     1       7.752  21.961  53.103  1.00  0.00     0.034 A 
HETATM   23  N   UNL     1       7.921  22.569  56.563  1.00  0.00    -0.341 N 
HETATM   24  C   UNL     1       8.738  20.511  55.343  1.00  0.00     0.032 A 
HETATM   25  H   UNL     1       8.159  22.326  57.517  1.00  0.00     0.167 HD
HETATM   26  C   UNL     1       8.807  19.982  54.050  1.00  0.00     0.002 A 
HETATM   27  C   UNL     1       8.320  20.691  52.948  1.00  0.00     0.002 A 
ENDBRANCH   1  18
TORSDOF 5
ENDMDL
MODEL 4
REMARK VINA RESULT:      -8.8      1.882      2.813
REMARK  5 active torsions:
REMARK  status: ('A' for Active; 'I' for Inactive)
REMARK    1  A    between atoms: C_6  and  C_7 
REMARK    2  A    between atoms: C_7  and  C_8 
REMARK    3  A    between atoms: C_8  and  C_9 
REMARK    4  A    between atoms: C_9  and  N_10 
REMARK    5  A    between atoms: C_9  and  C_14 
ROOT
HETATM    1  C   UNL     1       5.844  26.946  56.144  1.00  0.00     0.253 C 
ENDROOT
BRANCH   1   2
HETATM    2  C   UNL     1       5.925  25.607  56.907  1.00  0.00     0.048 C 
BRANCH   2   3
HETATM    3  C   UNL     1       7.328  25.046  57.181  1.00  0.00     0.081 C 
BRANCH   3   4
HETATM    4  C   UNL     1       7.669  23.936  56.252  1.00  0.00     0.105 A 
HETATM    5  N   UNL     1       7.450  23.953  54.951  1.00  0.00    -0.233 NA
HETATM    6  C   UNL     1       7.824  22.701  54.508  1.00  0.00     0.085 A 
HETATM    7  C   UNL     1       8.293  21.924  55.562  1.00  0.00     0.062 A 
HETATM    8  C   UNL     1       7.770  22.150  53.219  1.00  0.00     0.034 A 
HETATM    9  C   UNL     1       8.719  20.604  55.411  1.00  0.00     0.032 A 
HETATM   10  N   UNL     1       8.219  22.745  56.657  1.00  0.00    -0.343 N 
HETATM   11  C   UNL     1       8.651  20.068  54.120  1.00  0.00     0.002 A 
HETATM   12  C   UNL     1       8.187  20.824  53.042  1.00  0.00     0.002 A 
HETATM   13  H   UNL     1       8.497  22.496  57.597  1.00  0.00     0.167 HD
ENDBRANCH   3   4
ENDBRANCH   2   3
ENDBRANCH   1   2
BRANCH   1  14
HETATM   14  N   UNL     1       5.969  26.730  54.681  1.00  0.00    -0.068 N 
HETATM   15  H   UNL     1       5.754  25.755  54.451  1.00  0.00     0.275 HD
HETATM   16  H   UNL     1       5.296  27.305  54.163  1.00  0.00     0.275 HD
HETATM   17  H   UNL     1       6.944  26.923  54.387  1.00  0.00     0.275 HD
ENDBRANCH   1  14
BRANCH   1  18
HETATM   18  C   UNL     1       6.931  27.871  56.585  1.00  0.00     0.136 A 
HETATM   19  N   UNL     1       6.968  28.490  57.748  1.00  0.00    -0.231 NA
HETATM   20  C   UNL     1       8.137  29.218  57.737  1.00  0.00     0.085 A 
HETATM   21  C   UNL     1       8.840  29.000  56.557  1.00  0.00     0.062 A 
HETATM   22  C   UNL     1       8.669  30.083  58.702  1.00  0.00     0.034 A 
HETATM   23  N   UNL     1       8.051  28.140  55.837  1.00  0.00    -0.341 N 
HETATM   24  C   UNL     1      10.074  29.590  56.278  1.00  0.00     0.032 A 
HETATM   25  H   UNL     1       8.279  27.777  54.920  1.00  0.00     0.167 HD
HETATM   26  C   UNL     1      10.592  30.448  57.255  1.00  0.00     0.002 A 
HETATM   27  C   UNL     1       9.902  30.695  58.445  1.00  0.00     0.002 A 
ENDBRANCH   1  18
TORSDOF 5
ENDMDL
MODEL 5
REMARK VINA RESULT:      -8.8      2.175      3.151
REMARK  5 active torsions:
REMARK  status: ('A' for Active; 'I' for Inactive)
REMARK    1  A    between atoms: C_6  and  C_7 
REMARK    2  A    between atoms: C_7  and  C_8 
REMARK    3  A    between atoms: C_8  and  C_9 
REMARK    4  A    between atoms: C_9  and  N_10 
REMARK    5  A    between atoms: C_9  and  C_14 
ROOT
HETATM    1  C   UNL     1       6.004  28.134  54.318  1.00  0.00     0.253 C 
ENDROOT
BRANCH   1   2
HETATM    2  C   UNL     1       6.242  26.628  54.079  1.00  0.00     0.048 C 
BRANCH   2   3
HETATM    3  C   UNL     1       6.284  25.725  55.320  1.00  0.00     0.081 C 
BRANCH   3   4
HETATM    4  C   UNL     1       6.883  24.398  55.017  1.00  0.00     0.105 A 
HETATM    5  N   UNL     1       7.149  23.956  53.803  1.00  0.00    -0.233 NA
HETATM    6  C   UNL     1       7.597  22.663  53.983  1.00  0.00     0.085 A 
HETATM    7  C   UNL     1       7.614  22.330  55.333  1.00  0.00     0.062 A 
HETATM    8  C   UNL     1       7.985  21.706  53.034  1.00  0.00     0.034 A 
HETATM    9  C   UNL     1       8.001  21.077  55.808  1.00  0.00     0.032 A 
HETATM   10  N   UNL     1       7.191  23.465  55.975  1.00  0.00    -0.343 N 
HETATM   11  C   UNL     1       8.377  20.131  54.847  1.00  0.00     0.002 A 
HETATM   12  C   UNL     1       8.371  20.437  53.485  1.00  0.00     0.002 A 
HETATM   13  H   UNL     1       7.098  23.572  56.977  1.00  0.00     0.167 HD
ENDBRANCH   3   4
ENDBRANCH   2   3
ENDBRANCH   1   2
BRANCH   1  14
HETATM   14  N   UNL     1       6.039  28.884  53.038  1.00  0.00    -0.068 N 
HETATM   15  H   UNL     1       5.361  28.488  52.381  1.00  0.00     0.275 HD
HETATM   16  H   UNL     1       5.770  29.864  53.176  1.00  0.00     0.275 HD
HETATM   17  H   UNL     1       6.982  28.802  52.617  1.00  0.00     0.275 HD
ENDBRANCH   1  14
BRANCH   1  18
HETATM   18  C   UNL     1       7.046  28.695  55.230  1.00  0.00     0.136 A 
HETATM   19  N   UNL     1       6.839  29.045  56.484  1.00  0.00    -0.231 NA
HETATM   20  C   UNL     1       8.059  29.491  56.943  1.00  0.00     0.085 A 
HETATM   21  C   UNL     1       9.030  29.368  55.955  1.00  0.00     0.062 A 
HETATM   22  C   UNL     1       8.416  30.009  58.195  1.00  0.00     0.034 A 
HETATM   23  N   UNL     1       8.361  28.860  54.872  1.00  0.00    -0.341 N 
HETATM   24  C   UNL     1      10.368  29.721  56.145  1.00  0.00     0.032 A 
HETATM   25  H   UNL     1       8.785  28.649  53.977  1.00  0.00     0.167 HD
HETATM   26  C   UNL     1      10.706  30.234  57.402  1.00  0.00     0.002 A 
HETATM   27  C   UNL     1       9.749  30.379  58.410  1.00  0.00     0.002 A 
ENDBRANCH   1  18
TORSDOF 5
ENDMDL
MODEL 6
REMARK VINA RESULT:      -8.8      1.832      8.596
REMARK  5 active torsions:
REMARK  status: ('A' for Active; 'I' for Inactive)
REMARK    1  A    between atoms: C_6  and  C_7 
REMARK    2  A    between atoms: C_7  and  C_8 
REMARK    3  A    between atoms: C_8  and  C_9 
REMARK    4  A    between atoms: C_9  and  N_10 
REMARK    5  A    between atoms: C_9  and  C_14 
ROOT
HETATM    1  C   UNL     1       6.305  25.674  55.047  1.00  0.00     0.253 C 
ENDROOT
BRANCH   1   2
HETATM    2  C   UNL     1       6.215  26.001  56.553  1.00  0.00     0.048 C 
BRANCH   2   3
HETATM    3  C   UNL     1       5.839  27.441  56.931  1.00  0.00     0.081 C 
BRANCH   3   4
HETATM    4  C   UNL     1       7.038  28.261  57.245  1.00  0.00     0.105 A 
HETATM    5  N   UNL     1       7.032  29.337  58.009  1.00  0.00    -0.233 NA
HETATM    6  C   UNL     1       8.320  29.828  57.947  1.00  0.00     0.085 A 
HETATM    7  C   UNL     1       9.118  29.020  57.144  1.00  0.00     0.062 A 
HETATM    8  C   UNL     1       8.875  30.973  58.535  1.00  0.00     0.034 A 
HETATM    9  C   UNL     1      10.462  29.289  56.882  1.00  0.00     0.032 A 
HETATM   10  N   UNL     1       8.288  28.008  56.738  1.00  0.00    -0.343 N 
HETATM   11  C   UNL     1      10.997  30.440  57.471  1.00  0.00     0.002 A 
HETATM   12  C   UNL     1      10.221  31.269  58.283  1.00  0.00     0.002 A 
HETATM   13  H   UNL     1       8.555  27.232  56.145  1.00  0.00     0.167 HD
ENDBRANCH   3   4
ENDBRANCH   2   3
ENDBRANCH   1   2
BRANCH   1  14
HETATM   14  N   UNL     1       4.970  25.761  54.406  1.00  0.00    -0.068 N 
HETATM   15  H   UNL     1       4.416  26.501  54.849  1.00  0.00     0.275 HD
HETATM   16  H   UNL     1       5.050  26.014  53.416  1.00  0.00     0.275 HD
HETATM   17  H   UNL     1       4.468  24.864  54.533  1.00  0.00     0.275 HD
ENDBRANCH   1  14
BRANCH   1  18
HETATM   18  C   UNL     1       6.847  24.297  54.838  1.00  0.00     0.136 A 
HETATM   19  N   UNL     1       7.104  23.759  53.663  1.00  0.00    -0.231 NA
HETATM   20  C   UNL     1       7.595  22.502  53.937  1.00  0.00     0.085 A 
HETATM   21  C   UNL     1       7.673  22.294  55.310  1.00  0.00     0.062 A 
HETATM   22  C   UNL     1       8.001  21.484  53.065  1.00  0.00     0.034 A 
HETATM   23  N   UNL     1       7.189  23.451  55.864  1.00  0.00    -0.341 N 
HETATM   24  C   UNL     1       8.156  21.116  55.882  1.00  0.00     0.032 A 
HETATM   25  H   UNL     1       7.112  23.628  56.858  1.00  0.00     0.167 HD
HETATM   26  C   UNL     1       8.561  20.111  54.996  1.00  0.00     0.002 A 
HETATM   27  C   UNL     1       8.483  20.288  53.612  1.00  0.00     0.002 A 
ENDBRANCH   1  18
TORSDOF 5
ENDMDL
MODEL 7
REMARK VINA RESULT:      -8.7      5.718      7.999
REMARK  5 active torsions:
REMARK  status: ('A' for Active; 'I' for Inactive)
REMARK    1  A    between atoms: C_6  and  C_7 
REMARK    2  A    between atoms: C_7  and  C_8 
REMARK    3  A    between atoms: C_8  and  C_9 
REMARK    4  A    between atoms: C_9  and  N_10 
REMARK    5  A    between atoms: C_9  and  C_14 
ROOT
HETATM    1  C   UNL     1       5.050  26.405  53.257  1.00  0.00     0.253 C 
ENDROOT
BRANCH   1   2
HETATM    2  C   UNL     1       6.506  26.276  53.755  1.00  0.00     0.048 C 
BRANCH   2   3
HETATM    3  C   UNL     1       7.486  25.516  52.850  1.00  0.00     0.081 C 
BRANCH   3   4
HETATM    4  C   UNL     1       7.869  24.203  53.432  1.00  0.00     0.105 A 
HETATM    5  N   UNL     1       7.930  23.072  52.754  1.00  0.00    -0.233 NA
HETATM    6  C   UNL     1       8.226  22.106  53.694  1.00  0.00     0.085 A 
HETATM    7  C   UNL     1       8.362  22.672  54.957  1.00  0.00     0.062 A 
HETATM    8  C   UNL     1       8.372  20.720  53.542  1.00  0.00     0.034 A 
HETATM    9  C   UNL     1       8.638  21.927  56.104  1.00  0.00     0.032 A 
HETATM   10  N   UNL     1       8.166  24.014  54.758  1.00  0.00    -0.343 N 
HETATM   11  C   UNL     1       8.773  20.545  55.937  1.00  0.00     0.002 A 
HETATM   12  C   UNL     1       8.644  19.948  54.680  1.00  0.00     0.002 A 
HETATM   13  H   UNL     1       8.208  24.725  55.476  1.00  0.00     0.167 HD
ENDBRANCH   3   4
ENDBRANCH   2   3
ENDBRANCH   1   2
BRANCH   1  14
HETATM   14  N   UNL     1       4.333  25.112  53.379  1.00  0.00    -0.068 N 
HETATM   15  H   UNL     1       4.950  24.342  53.103  1.00  0.00     0.275 HD
HETATM   16  H   UNL     1       4.060  24.930  54.350  1.00  0.00     0.275 HD
HETATM   17  H   UNL     1       3.514  25.112  52.744  1.00  0.00     0.275 HD
ENDBRANCH   1  14
BRANCH   1  18
HETATM   18  C   UNL     1       5.018  26.838  51.827  1.00  0.00     0.136 A 
HETATM   19  N   UNL     1       5.428  28.010  51.385  1.00  0.00    -0.231 NA
HETATM   20  C   UNL     1       5.232  27.974  50.023  1.00  0.00     0.085 A 
HETATM   21  C   UNL     1       4.730  26.737  49.631  1.00  0.00     0.062 A 
HETATM   22  C   UNL     1       5.465  28.958  49.053  1.00  0.00     0.034 A 
HETATM   23  N   UNL     1       4.600  26.030  50.799  1.00  0.00    -0.341 N 
HETATM   24  C   UNL     1       4.456  26.406  48.303  1.00  0.00     0.032 A 
HETATM   25  H   UNL     1       4.259  25.079  50.863  1.00  0.00     0.167 HD
HETATM   26  C   UNL     1       4.698  27.399  47.348  1.00  0.00     0.002 A 
HETATM   27  C   UNL     1       5.190  28.655  47.714  1.00  0.00     0.002 A 
ENDBRANCH   1  18
TORSDOF 5
ENDMDL
MODEL 8
REMARK VINA RESULT:      -8.6      1.310      8.810
REMARK  5 active torsions:
REMARK  status: ('A' for Active; 'I' for Inactive)
REMARK    1  A    between atoms: C_6  and  C_7 
REMARK    2  A    between atoms: C_7  and  C_8 
REMARK    3  A    between atoms: C_8  and  C_9 
REMARK    4  A    between atoms: C_9  and  N_10 
REMARK    5  A    between atoms: C_9  and  C_14 
ROOT
HETATM    1  C   UNL     1       5.693  27.076  56.357  1.00  0.00     0.253 C 
ENDROOT
BRANCH   1   2
HETATM    2  C   UNL     1       6.614  27.759  57.390  1.00  0.00     0.048 C 
BRANCH   2   3
HETATM    3  C   UNL     1       7.165  29.144  57.023  1.00  0.00     0.081 C 
BRANCH   3   4
HETATM    4  C   UNL     1       7.515  29.937  58.230  1.00  0.00     0.105 A 
HETATM    5  N   UNL     1       8.560  29.704  59.003  1.00  0.00    -0.233 NA
HETATM    6  C   UNL     1       8.443  30.604  60.043  1.00  0.00     0.085 A 
HETATM    7  C   UNL     1       7.317  31.402  59.881  1.00  0.00     0.062 A 
HETATM    8  C   UNL     1       9.254  30.780  61.174  1.00  0.00     0.034 A 
HETATM    9  C   UNL     1       6.936  32.386  60.795  1.00  0.00     0.032 A 
HETATM   10  N   UNL     1       6.762  30.984  58.700  1.00  0.00    -0.343 N 
HETATM   11  C   UNL     1       7.752  32.543  61.922  1.00  0.00     0.002 A 
HETATM   12  C   UNL     1       8.891  31.757  62.110  1.00  0.00     0.002 A 
HETATM   13  H   UNL     1       5.928  31.367  58.275  1.00  0.00     0.167 HD
ENDBRANCH   3   4
ENDBRANCH   2   3
ENDBRANCH   1   2
BRANCH   1  14
HETATM   14  N   UNL     1       4.461  26.561  57.005  1.00  0.00    -0.068 N 
HETATM   15  H   UNL     1       4.634  25.629  57.395  1.00  0.00     0.275 HD
HETATM   16  H   UNL     1       4.180  27.156  57.792  1.00  0.00     0.275 HD
HETATM   17  H   UNL     1       3.708  26.480  56.299  1.00  0.00     0.275 HD
ENDBRANCH   1  14
BRANCH   1  18
HETATM   18  C   UNL     1       6.397  25.936  55.695  1.00  0.00     0.136 A 
HETATM   19  N   UNL     1       7.327  25.194  56.261  1.00  0.00    -0.231 NA
HETATM   20  C   UNL     1       7.683  24.267  55.307  1.00  0.00     0.085 A 
HETATM   21  C   UNL     1       6.921  24.429  54.155  1.00  0.00     0.062 A 
HETATM   22  C   UNL     1       8.646  23.250  55.355  1.00  0.00     0.034 A 
HETATM   23  N   UNL     1       6.109  25.501  54.425  1.00  0.00    -0.341 N 
HETATM   24  C   UNL     1       7.048  23.614  53.029  1.00  0.00     0.032 A 
HETATM   25  H   UNL     1       5.423  25.881  53.785  1.00  0.00     0.167 HD
HETATM   26  C   UNL     1       8.012  22.602  53.096  1.00  0.00     0.002 A 
HETATM   27  C   UNL     1       8.800  22.423  54.235  1.00  0.00     0.002 A 
ENDBRANCH   1  18
TORSDOF 5
ENDMDL
MODEL 9
REMARK VINA RESULT:      -8.5      1.635      2.603
REMARK  5 active torsions:
REMARK  status: ('A' for Active; 'I' for Inactive)
REMARK    1  A    between atoms: C_6  and  C_7 
REMARK    2  A    between atoms: C_7  and  C_8 
REMARK    3  A    between atoms: C_8  and  C_9 
REMARK    4  A    between atoms: C_9  and  N_10 
REMARK    5  A    between atoms: C_9  and  C_14 
ROOT
HETATM    1  C   UNL     1       7.921  26.565  56.736  1.00  0.00     0.253 C 
ENDROOT
BRANCH   1   2
HETATM    2  C   UNL     1       6.895  26.771  55.601  1.00  0.00     0.048 C 
BRANCH   2   3
HETATM    3  C   UNL     1       7.270  26.223  54.216  1.00  0.00     0.081 C 
BRANCH   3   4
HETATM    4  C   UNL     1       7.411  24.743  54.228  1.00  0.00     0.105 A 
HETATM    5  N   UNL     1       7.273  23.985  55.300  1.00  0.00    -0.233 NA
HETATM    6  C   UNL     1       7.580  22.708  54.879  1.00  0.00     0.085 A 
HETATM    7  C   UNL     1       7.891  22.698  53.523  1.00  0.00     0.062 A 
HETATM    8  C   UNL     1       7.634  21.510  55.605  1.00  0.00     0.034 A 
HETATM    9  C   UNL     1       8.263  21.544  52.831  1.00  0.00     0.032 A 
HETATM   10  N   UNL     1       7.740  24.000  53.123  1.00  0.00    -0.343 N 
HETATM   11  C   UNL     1       8.320  20.359  53.574  1.00  0.00     0.002 A 
HETATM   12  C   UNL     1       8.012  20.339  54.936  1.00  0.00     0.002 A 
HETATM   13  H   UNL     1       7.879  24.344  52.182  1.00  0.00     0.167 HD
ENDBRANCH   3   4
ENDBRANCH   2   3
ENDBRANCH   1   2
BRANCH   1  14
HETATM   14  N   UNL     1       7.351  25.724  57.817  1.00  0.00    -0.068 N 
HETATM   15  H   UNL     1       7.767  24.788  57.790  1.00  0.00     0.275 HD
HETATM   16  H   UNL     1       7.570  26.110  58.741  1.00  0.00     0.275 HD
HETATM   17  H   UNL     1       6.329  25.627  57.676  1.00  0.00     0.275 HD
ENDBRANCH   1  14
BRANCH   1  18
HETATM   18  C   UNL     1       8.334  27.878  57.318  1.00  0.00     0.136 A 
HETATM   19  N   UNL     1       9.427  28.537  56.990  1.00  0.00    -0.231 NA
HETATM   20  C   UNL     1       9.402  29.685  57.750  1.00  0.00     0.085 A 
HETATM   21  C   UNL     1       8.246  29.737  58.523  1.00  0.00     0.062 A 
HETATM   22  C   UNL     1      10.328  30.733  57.829  1.00  0.00     0.034 A 
HETATM   23  N   UNL     1       7.582  28.574  58.232  1.00  0.00    -0.341 N 
HETATM   24  C   UNL     1       7.941  30.800  59.375  1.00  0.00     0.032 A 
HETATM   25  H   UNL     1       6.693  28.302  58.631  1.00  0.00     0.167 HD
HETATM   26  C   UNL     1       8.876  31.839  59.439  1.00  0.00     0.002 A 
HETATM   27  C   UNL     1      10.050  31.808  58.683  1.00  0.00     0.002 A 
ENDBRANCH   1  18
TORSDOF 5
ENDMDL
MODEL 10
REMARK VINA RESULT:      -8.4      4.858      7.780
REMARK  5 active torsions:
REMARK  status: ('A' for Active; 'I' for Inactive)
REMARK    1  A    between atoms: C_6  and  C_7 
REMARK    2  A    between atoms: C_7  and  C_8 
REMARK    3  A    between atoms: C_8  and  C_9 
REMARK    4  A    between atoms: C_9  and  N_10 
REMARK    5  A    between atoms: C_9  and  C_14 
ROOT
HETATM    1  C   UNL     1       5.406  31.909  62.596  1.00  0.00     0.253 C 
ENDROOT
BRANCH   1   2
HETATM    2  C   UNL     1       5.963  32.708  61.398  1.00  0.00     0.048 C 
BRANCH   2   3
HETATM    3  C   UNL     1       7.481  32.938  61.359  1.00  0.00     0.081 C 
BRANCH   3   4
HETATM    4  C   UNL     1       8.144  32.076  60.345  1.00  0.00     0.105 A 
HETATM    5  N   UNL     1       9.243  32.400  59.691  1.00  0.00    -0.233 NA
HETATM    6  C   UNL     1       9.444  31.369  58.795  1.00  0.00     0.085 A 
HETATM    7  C   UNL     1       8.454  30.401  58.929  1.00  0.00     0.062 A 
HETATM    8  C   UNL     1      10.440  31.204  57.823  1.00  0.00     0.034 A 
HETATM    9  C   UNL     1       8.392  29.255  58.135  1.00  0.00     0.032 A 
HETATM   10  N   UNL     1       7.658  30.856  59.947  1.00  0.00    -0.343 N 
HETATM   11  C   UNL     1       9.389  29.110  57.164  1.00  0.00     0.002 A 
HETATM   12  C   UNL     1      10.396  30.065  57.008  1.00  0.00     0.002 A 
HETATM   13  H   UNL     1       6.843  30.380  60.313  1.00  0.00     0.167 HD
ENDBRANCH   3   4
ENDBRANCH   2   3
ENDBRANCH   1   2
BRANCH   1  14
HETATM   14  N   UNL     1       4.123  31.254  62.244  1.00  0.00    -0.068 N 
HETATM   15  H   UNL     1       4.174  30.867  61.297  1.00  0.00     0.275 HD
HETATM   16  H   UNL     1       3.926  30.465  62.868  1.00  0.00     0.275 HD
HETATM   17  H   UNL     1       3.361  31.957  62.263  1.00  0.00     0.275 HD
ENDBRANCH   1  14
BRANCH   1  18
HETATM   18  C   UNL     1       5.180  32.807  63.769  1.00  0.00     0.136 A 
HETATM   19  N   UNL     1       6.079  33.080  64.693  1.00  0.00    -0.231 NA
HETATM   20  C   UNL     1       5.455  33.947  65.562  1.00  0.00     0.085 A 
HETATM   21  C   UNL     1       4.165  34.234  65.129  1.00  0.00     0.062 A 
HETATM   22  C   UNL     1       5.931  34.537  66.741  1.00  0.00     0.034 A 
HETATM   23  N   UNL     1       4.011  33.495  63.985  1.00  0.00    -0.341 N 
HETATM   24  C   UNL     1       3.305  35.104  65.802  1.00  0.00     0.032 A 
HETATM   25  H   UNL     1       3.175  33.479  63.415  1.00  0.00     0.167 HD
HETATM   26  C   UNL     1       3.798  35.687  66.975  1.00  0.00     0.002 A 
HETATM   27  C   UNL     1       5.085  35.407  67.440  1.00  0.00     0.002 A 
ENDBRANCH   1  18
TORSDOF 5
ENDMDL
