MODEL 1
REMARK VINA RESULT:      -9.4      0.000      0.000
REMARK  4 active torsions:
REMARK  status: ('A' for Active; 'I' for Inactive)
REMARK    1  A    between atoms: C_4  and  O_5 
REMARK    2  A    between atoms: O_5  and  C_6 
REMARK    3  A    between atoms: C_9  and  N_10 
REMARK       I    between atoms: N_10  and  C_11 
REMARK    4  A    between atoms: C_11  and  C_12 
ROOT
HETATM    1  C   UNL     1       7.186  24.634  53.830  1.00  0.00     0.076 A 
HETATM    2  C   UNL     1       5.836  24.823  54.101  1.00  0.00     0.039 A 
HETATM    3  C   UNL     1       4.958  25.174  53.070  1.00  0.00     0.032 A 
HETATM    4  C   UNL     1       5.433  25.359  51.769  1.00  0.00     0.035 A 
HETATM    5  C   UNL     1       6.805  25.201  51.517  1.00  0.00     0.032 A 
HETATM    6  C   UNL     1       7.682  24.845  52.545  1.00  0.00     0.039 A 
ENDROOT
BRANCH   4   7
HETATM    7  N   UNL     1       4.612  25.686  50.669  1.00  0.00    -0.323 N 
HETATM    8  C   UNL     1       4.599  26.868  49.954  1.00  0.00     0.257 C 
HETATM    9  O   UNL     1       5.361  27.819  50.088  1.00  0.00    -0.267 OA
HETATM   10  H   UNL     1       3.980  24.957  50.364  1.00  0.00     0.169 HD
BRANCH   8  11
HETATM   11  C   UNL     1       3.538  26.903  48.895  1.00  0.00     0.048 A 
HETATM   12  C   UNL     1       2.582  27.843  49.004  1.00  0.00     0.108 A 
HETATM   13  N   UNL     1       1.571  27.924  48.075  1.00  0.00    -0.333 N 
HETATM   14  C   UNL     1       1.443  27.075  47.002  1.00  0.00     0.245 A 
HETATM   15  H   UNL     1       0.858  28.639  48.162  1.00  0.00     0.168 HD
HETATM   16  O   UNL     1       0.543  27.169  46.177  1.00  0.00    -0.268 OA
HETATM   17  C   UNL     1       2.473  26.007  46.900  1.00  0.00     0.075 A 
HETATM   18  C   UNL     1       3.457  25.938  47.811  1.00  0.00     0.024 A 
ENDBRANCH   8  11
ENDBRANCH   4   7
BRANCH   1  19
HETATM   19  O   UNL     1       8.018  24.303  54.871  1.00  0.00    -0.311 OA
BRANCH  19  20
HETATM   20  C   UNL     1       8.110  22.970  55.213  1.00  0.00     0.076 A 
HETATM   21  C   UNL     1       8.290  22.702  56.571  1.00  0.00     0.037 A 
HETATM   22  C   UNL     1       8.361  21.384  57.025  1.00  0.00     0.003 A 
HETATM   23  C   UNL     1       8.243  20.329  56.119  1.00  0.00     0.000 A 
HETATM   24  C   UNL     1       8.046  20.592  54.764  1.00  0.00     0.003 A 
HETATM   25  C   UNL     1       7.973  21.911  54.310  1.00  0.00     0.037 A 
ENDBRANCH  19  20
ENDBRANCH   1  19
TORSDOF 4
ENDMDL
MODEL 2
REMARK VINA RESULT:      -9.0      6.881      9.681
REMARK  4 active torsions:
REMARK  status: ('A' for Active; 'I' for Inactive)
REMARK    1  A    between atoms: C_4  and  O_5 
REMARK    2  A    between atoms: O_5  and  C_6 
REMARK    3  A    between atoms: C_9  and  N_10 
REMARK       I    between atoms: N_10  and  C_11 
REMARK    4  A    between atoms: C_11  and  C_12 
ROOT
HETATM    1  C   UNL     1       8.377  30.515  58.165  1.00  0.00     0.076 A 
HETATM    2  C   UNL     1       7.092  29.992  58.073  1.00  0.00     0.039 A 
HETATM    3  C   UNL     1       6.889  28.731  57.505  1.00  0.00     0.032 A 
HETATM    4  C   UNL     1       7.970  27.997  57.006  1.00  0.00     0.035 A 
HETATM    5  C   UNL     1       9.257  28.554  57.071  1.00  0.00     0.032 A 
HETATM    6  C   UNL     1       9.461  29.812  57.644  1.00  0.00     0.039 A 
ENDROOT
BRANCH   4   7
HETATM    7  N   UNL     1       7.855  26.708  56.444  1.00  0.00    -0.323 N 
HETATM    8  C   UNL     1       8.094  25.498  57.066  1.00  0.00     0.257 C 
HETATM    9  O   UNL     1       8.365  25.318  58.248  1.00  0.00    -0.267 OA
HETATM   10  H   UNL     1       7.541  26.677  55.483  1.00  0.00     0.169 HD
BRANCH   8  11
HETATM   11  C   UNL     1       7.952  24.324  56.143  1.00  0.00     0.048 A 
HETATM   12  C   UNL     1       8.220  23.105  56.644  1.00  0.00     0.108 A 
HETATM   13  N   UNL     1       8.124  21.986  55.851  1.00  0.00    -0.333 N 
HETATM   14  C   UNL     1       7.773  22.014  54.522  1.00  0.00     0.245 A 
HETATM   15  H   UNL     1       8.323  21.070  56.237  1.00  0.00     0.168 HD
HETATM   16  O   UNL     1       7.680  21.006  53.832  1.00  0.00    -0.268 OA
HETATM   17  C   UNL     1       7.516  23.363  53.952  1.00  0.00     0.075 A 
HETATM   18  C   UNL     1       7.612  24.449  54.736  1.00  0.00     0.024 A 
ENDBRANCH   8  11
ENDBRANCH   4   7
BRANCH   1  19
HETATM   19  O   UNL     1       8.533  31.762  58.717  1.00  0.00    -0.311 OA
BRANCH  19  20
HETATM   20  C   UNL     1       8.483  31.860  60.092  1.00  0.00     0.076 A 
HETATM   21  C   UNL     1       7.538  32.752  60.603  1.00  0.00     0.037 A 
HETATM   22  C   UNL     1       7.384  32.900  61.982  1.00  0.00     0.003 A 
HETATM   23  C   UNL     1       8.169  32.146  62.855  1.00  0.00     0.000 A 
HETATM   24  C   UNL     1       9.102  31.242  62.348  1.00  0.00     0.003 A 
HETATM   25  C   UNL     1       9.255  31.093  60.968  1.00  0.00     0.037 A 
ENDBRANCH  19  20
ENDBRANCH   1  19
TORSDOF 4
ENDMDL
MODEL 3
REMARK VINA RESULT:      -8.5      6.879      9.979
REMARK  4 active torsions:
REMARK  status: ('A' for Active; 'I' for Inactive)
REMARK    1  A    between atoms: C_4  and  O_5 
REMARK    2  A    between atoms: O_5  and  C_6 
REMARK    3  A    between atoms: C_9  and  N_10 
REMARK       I    between atoms: N_10  and  C_11 
REMARK    4  A    between atoms: C_11  and  C_12 
ROOT
HETATM    1  C   UNL     1       6.254  26.596  55.445  1.00  0.00     0.076 A 
HETATM    2  C   UNL     1       7.591  26.800  55.768  1.00  0.00     0.039 A 
HETATM    3  C   UNL     1       7.933  27.657  56.819  1.00  0.00     0.032 A 
HETATM    4  C   UNL     1       6.940  28.330  57.536  1.00  0.00     0.035 A 
HETATM    5  C   UNL     1       5.596  28.143  57.175  1.00  0.00     0.032 A 
HETATM    6  C   UNL     1       5.252  27.283  56.129  1.00  0.00     0.039 A 
ENDROOT
BRANCH   4   7
HETATM    7  N   UNL     1       7.198  29.188  58.626  1.00  0.00    -0.323 N 
HETATM    8  C   UNL     1       8.184  30.152  58.718  1.00  0.00     0.257 C 
HETATM    9  O   UNL     1       8.960  30.499  57.835  1.00  0.00    -0.267 OA
HETATM   10  H   UNL     1       6.572  29.094  59.414  1.00  0.00     0.169 HD
BRANCH   8  11
HETATM   11  C   UNL     1       8.223  30.827  60.057  1.00  0.00     0.048 A 
HETATM   12  C   UNL     1       7.181  31.609  60.390  1.00  0.00     0.108 A 
HETATM   13  N   UNL     1       7.158  32.268  61.596  1.00  0.00    -0.333 N 
HETATM   14  C   UNL     1       8.166  32.202  62.528  1.00  0.00     0.245 A 
HETATM   15  H   UNL     1       6.366  32.851  61.842  1.00  0.00     0.168 HD
HETATM   16  O   UNL     1       8.124  32.787  63.603  1.00  0.00    -0.268 OA
HETATM   17  C   UNL     1       9.340  31.373  62.147  1.00  0.00     0.075 A 
HETATM   18  C   UNL     1       9.352  30.732  60.967  1.00  0.00     0.024 A 
ENDBRANCH   8  11
ENDBRANCH   4   7
BRANCH   1  19
HETATM   19  O   UNL     1       5.959  25.758  54.399  1.00  0.00    -0.311 OA
BRANCH  19  20
HETATM   20  C   UNL     1       6.649  24.566  54.324  1.00  0.00     0.076 A 
HETATM   21  C   UNL     1       7.209  24.265  53.081  1.00  0.00     0.037 A 
HETATM   22  C   UNL     1       7.955  23.098  52.910  1.00  0.00     0.003 A 
HETATM   23  C   UNL     1       8.152  22.233  53.986  1.00  0.00     0.000 A 
HETATM   24  C   UNL     1       7.609  22.539  55.234  1.00  0.00     0.003 A 
HETATM   25  C   UNL     1       6.864  23.707  55.406  1.00  0.00     0.037 A 
ENDBRANCH  19  20
ENDBRANCH   1  19
TORSDOF 4
ENDMDL
MODEL 4
REMARK VINA RESULT:      -8.4      5.888      8.758
REMARK  4 active torsions:
REMARK  status: ('A' for Active; 'I' for Inactive)
REMARK    1  A    between atoms: C_4  and  O_5 
REMARK    2  A    between atoms: O_5  and  C_6 
REMARK    3  A    between atoms: C_9  and  N_10 
REMARK       I    between atoms: N_10  and  C_11 
REMARK    4  A    between atoms: C_11  and  C_12 
ROOT
HETATM    1  C   UNL     1       6.616  29.413  56.846  1.00  0.00     0.076 A 
HETATM    2  C   UNL     1       5.712  28.437  57.250  1.00  0.00     0.039 A 
HETATM    3  C   UNL     1       5.838  27.128  56.774  1.00  0.00     0.032 A 
HETATM    4  C   UNL     1       6.856  26.796  55.875  1.00  0.00     0.035 A 
HETATM    5  C   UNL     1       7.739  27.800  55.448  1.00  0.00     0.032 A 
HETATM    6  C   UNL     1       7.618  29.108  55.926  1.00  0.00     0.039 A 
ENDROOT
BRANCH   4   7
HETATM    7  N   UNL     1       7.070  25.496  55.371  1.00  0.00    -0.323 N 
HETATM    8  C   UNL     1       7.519  24.390  56.066  1.00  0.00     0.257 C 
HETATM    9  O   UNL     1       7.732  24.314  57.271  1.00  0.00    -0.267 OA
HETATM   10  H   UNL     1       6.844  25.364  54.394  1.00  0.00     0.169 HD
BRANCH   8  11
HETATM   11  C   UNL     1       7.709  23.184  55.195  1.00  0.00     0.048 A 
HETATM   12  C   UNL     1       7.798  23.384  53.868  1.00  0.00     0.108 A 
HETATM   13  N   UNL     1       7.959  22.321  53.010  1.00  0.00    -0.333 N 
HETATM   14  C   UNL     1       8.024  21.009  53.415  1.00  0.00     0.245 A 
HETATM   15  H   UNL     1       8.031  22.481  52.011  1.00  0.00     0.168 HD
HETATM   16  O   UNL     1       8.179  20.075  52.638  1.00  0.00    -0.268 OA
HETATM   17  C   UNL     1       7.883  20.779  54.877  1.00  0.00     0.075 A 
HETATM   18  C   UNL     1       7.728  21.824  55.706  1.00  0.00     0.024 A 
ENDBRANCH   8  11
ENDBRANCH   4   7
BRANCH   1  19
HETATM   19  O   UNL     1       6.451  30.689  57.324  1.00  0.00    -0.311 OA
BRANCH  19  20
HETATM   20  C   UNL     1       7.046  30.999  58.529  1.00  0.00     0.076 A 
HETATM   21  C   UNL     1       6.467  32.054  59.239  1.00  0.00     0.037 A 
HETATM   22  C   UNL     1       6.974  32.424  60.486  1.00  0.00     0.003 A 
HETATM   23  C   UNL     1       8.056  31.732  61.031  1.00  0.00     0.000 A 
HETATM   24  C   UNL     1       8.625  30.667  60.333  1.00  0.00     0.003 A 
HETATM   25  C   UNL     1       8.118  30.295  59.086  1.00  0.00     0.037 A 
ENDBRANCH  19  20
ENDBRANCH   1  19
TORSDOF 4
ENDMDL
MODEL 5
REMARK VINA RESULT:      -8.3      5.832      8.621
REMARK  4 active torsions:
REMARK  status: ('A' for Active; 'I' for Inactive)
REMARK    1  A    between atoms: C_4  and  O_5 
REMARK    2  A    between atoms: O_5  and  C_6 
REMARK    3  A    between atoms: C_9  and  N_10 
REMARK       I    between atoms: N_10  and  C_11 
REMARK    4  A    between atoms: C_11  and  C_12 
ROOT
HETATM    1  C   UNL     1       6.548  25.149  54.576  1.00  0.00     0.076 A 
HETATM    2  C   UNL     1       7.356  26.202  54.161  1.00  0.00     0.039 A 
HETATM    3  C   UNL     1       7.464  27.352  54.949  1.00  0.00     0.032 A 
HETATM    4  C   UNL     1       6.745  27.462  56.143  1.00  0.00     0.035 A 
HETATM    5  C   UNL     1       5.905  26.407  56.531  1.00  0.00     0.032 A 
HETATM    6  C   UNL     1       5.801  25.254  55.747  1.00  0.00     0.039 A 
ENDROOT
BRANCH   4   7
HETATM    7  N   UNL     1       6.819  28.575  57.008  1.00  0.00    -0.323 N 
HETATM    8  C   UNL     1       7.910  28.991  57.747  1.00  0.00     0.257 C 
HETATM    9  O   UNL     1       9.042  28.520  57.720  1.00  0.00    -0.267 OA
HETATM   10  H   UNL     1       5.981  29.136  57.070  1.00  0.00     0.169 HD
BRANCH   8  11
HETATM   11  C   UNL     1       7.611  30.170  58.625  1.00  0.00     0.048 A 
HETATM   12  C   UNL     1       8.375  30.341  59.718  1.00  0.00     0.108 A 
HETATM   13  N   UNL     1       8.148  31.393  60.574  1.00  0.00    -0.333 N 
HETATM   14  C   UNL     1       7.148  32.320  60.403  1.00  0.00     0.245 A 
HETATM   15  H   UNL     1       8.732  31.518  61.392  1.00  0.00     0.168 HD
HETATM   16  O   UNL     1       6.966  33.259  61.168  1.00  0.00    -0.268 OA
HETATM   17  C   UNL     1       6.272  32.111  59.219  1.00  0.00     0.075 A 
HETATM   18  C   UNL     1       6.504  31.081  58.389  1.00  0.00     0.024 A 
ENDBRANCH   8  11
ENDBRANCH   4   7
BRANCH   1  19
HETATM   19  O   UNL     1       6.459  24.042  53.768  1.00  0.00    -0.311 OA
BRANCH  19  20
HETATM   20  C   UNL     1       7.206  22.937  54.118  1.00  0.00     0.076 A 
HETATM   21  C   UNL     1       7.698  22.176  53.056  1.00  0.00     0.037 A 
HETATM   22  C   UNL     1       8.494  21.056  53.304  1.00  0.00     0.003 A 
HETATM   23  C   UNL     1       8.807  20.700  54.616  1.00  0.00     0.000 A 
HETATM   24  C   UNL     1       8.331  21.468  55.679  1.00  0.00     0.003 A 
HETATM   25  C   UNL     1       7.537  22.590  55.432  1.00  0.00     0.037 A 
ENDBRANCH  19  20
ENDBRANCH   1  19
TORSDOF 4
ENDMDL
MODEL 6
REMARK VINA RESULT:      -8.3      1.504      1.872
REMARK  4 active torsions:
REMARK  status: ('A' for Active; 'I' for Inactive)
REMARK    1  A    between atoms: C_4  and  O_5 
REMARK    2  A    between atoms: O_5  and  C_6 
REMARK    3  A    between atoms: C_9  and  N_10 
REMARK       I    between atoms: N_10  and  C_11 
REMARK    4  A    between atoms: C_11  and  C_12 
ROOT
HETATM    1  C   UNL     1       6.931  25.114  53.734  1.00  0.00     0.076 A 
HETATM    2  C   UNL     1       7.243  26.400  53.307  1.00  0.00     0.039 A 
HETATM    3  C   UNL     1       6.381  27.075  52.437  1.00  0.00     0.032 A 
HETATM    4  C   UNL     1       5.216  26.457  51.973  1.00  0.00     0.035 A 
HETATM    5  C   UNL     1       4.933  25.145  52.384  1.00  0.00     0.032 A 
HETATM    6  C   UNL     1       5.791  24.471  53.258  1.00  0.00     0.039 A 
ENDROOT
BRANCH   4   7
HETATM    7  N   UNL     1       4.281  27.078  51.118  1.00  0.00    -0.323 N 
HETATM    8  C   UNL     1       4.233  27.011  49.739  1.00  0.00     0.257 C 
HETATM    9  O   UNL     1       4.943  26.327  49.009  1.00  0.00    -0.267 OA
HETATM   10  H   UNL     1       3.556  27.612  51.578  1.00  0.00     0.169 HD
BRANCH   8  11
HETATM   11  C   UNL     1       3.150  27.863  49.145  1.00  0.00     0.048 A 
HETATM   12  C   UNL     1       3.121  29.162  49.492  1.00  0.00     0.108 A 
HETATM   13  N   UNL     1       2.148  29.997  48.996  1.00  0.00    -0.333 N 
HETATM   14  C   UNL     1       1.147  29.590  48.146  1.00  0.00     0.245 A 
HETATM   15  H   UNL     1       2.136  30.975  49.259  1.00  0.00     0.168 HD
HETATM   16  O   UNL     1       0.294  30.350  47.703  1.00  0.00    -0.268 OA
HETATM   17  C   UNL     1       1.150  28.146  47.793  1.00  0.00     0.075 A 
HETATM   18  C   UNL     1       2.105  27.340  48.282  1.00  0.00     0.024 A 
ENDBRANCH   8  11
ENDBRANCH   4   7
BRANCH   1  19
HETATM   19  O   UNL     1       7.809  24.479  54.578  1.00  0.00    -0.311 OA
BRANCH  19  20
HETATM   20  C   UNL     1       7.961  23.116  54.430  1.00  0.00     0.076 A 
HETATM   21  C   UNL     1       7.641  22.345  55.549  1.00  0.00     0.037 A 
HETATM   22  C   UNL     1       7.729  20.953  55.492  1.00  0.00     0.003 A 
HETATM   23  C   UNL     1       8.128  20.328  54.310  1.00  0.00     0.000 A 
HETATM   24  C   UNL     1       8.432  21.095  53.185  1.00  0.00     0.003 A 
HETATM   25  C   UNL     1       8.342  22.487  53.241  1.00  0.00     0.037 A 
ENDBRANCH  19  20
ENDBRANCH   1  19
TORSDOF 4
ENDMDL
MODEL 7
REMARK VINA RESULT:      -8.2      4.005      5.193
REMARK  4 active torsions:
REMARK  status: ('A' for Active; 'I' for Inactive)
REMARK    1  A    between atoms: C_4  and  O_5 
REMARK    2  A    between atoms: O_5  and  C_6 
REMARK    3  A    between atoms: C_9  and  N_10 
REMARK       I    between atoms: N_10  and  C_11 
REMARK    4  A    between atoms: C_11  and  C_12 
ROOT
HETATM    1  C   UNL     1       7.028  24.340  52.980  1.00  0.00     0.076 A 
HETATM    2  C   UNL     1       7.723  25.466  53.407  1.00  0.00     0.039 A 
HETATM    3  C   UNL     1       7.026  26.629  53.753  1.00  0.00     0.032 A 
HETATM    4  C   UNL     1       5.633  26.675  53.652  1.00  0.00     0.035 A 
HETATM    5  C   UNL     1       4.947  25.543  53.184  1.00  0.00     0.032 A 
HETATM    6  C   UNL     1       5.642  24.380  52.843  1.00  0.00     0.039 A 
ENDROOT
BRANCH   4   7
HETATM    7  N   UNL     1       4.854  27.797  54.007  1.00  0.00    -0.323 N 
HETATM    8  C   UNL     1       4.740  28.990  53.321  1.00  0.00     0.257 C 
HETATM    9  O   UNL     1       5.228  29.262  52.229  1.00  0.00    -0.267 OA
HETATM   10  H   UNL     1       4.303  27.697  54.849  1.00  0.00     0.169 HD
BRANCH   8  11
HETATM   11  C   UNL     1       3.886  29.998  54.030  1.00  0.00     0.048 A 
HETATM   12  C   UNL     1       3.227  30.896  53.275  1.00  0.00     0.108 A 
HETATM   13  N   UNL     1       2.437  31.857  53.860  1.00  0.00    -0.333 N 
HETATM   14  C   UNL     1       2.267  31.990  55.217  1.00  0.00     0.245 A 
HETATM   15  H   UNL     1       1.940  32.526  53.283  1.00  0.00     0.168 HD
HETATM   16  O   UNL     1       1.549  32.844  55.722  1.00  0.00    -0.268 OA
HETATM   17  C   UNL     1       3.025  31.027  56.058  1.00  0.00     0.075 A 
HETATM   18  C   UNL     1       3.794  30.092  55.477  1.00  0.00     0.024 A 
ENDBRANCH   8  11
ENDBRANCH   4   7
BRANCH   1  19
HETATM   19  O   UNL     1       7.749  23.224  52.636  1.00  0.00    -0.311 OA
BRANCH  19  20
HETATM   20  C   UNL     1       7.913  22.251  53.601  1.00  0.00     0.076 A 
HETATM   21  C   UNL     1       8.452  21.042  53.157  1.00  0.00     0.037 A 
HETATM   22  C   UNL     1       8.689  20.005  54.061  1.00  0.00     0.003 A 
HETATM   23  C   UNL     1       8.397  20.179  55.414  1.00  0.00     0.000 A 
HETATM   24  C   UNL     1       7.875  21.392  55.863  1.00  0.00     0.003 A 
HETATM   25  C   UNL     1       7.639  22.431  54.960  1.00  0.00     0.037 A 
ENDBRANCH  19  20
ENDBRANCH   1  19
TORSDOF 4
ENDMDL
MODEL 8
REMARK VINA RESULT:      -8.1      2.549      8.982
REMARK  4 active torsions:
REMARK  status: ('A' for Active; 'I' for Inactive)
REMARK    1  A    between atoms: C_4  and  O_5 
REMARK    2  A    between atoms: O_5  and  C_6 
REMARK    3  A    between atoms: C_9  and  N_10 
REMARK       I    between atoms: N_10  and  C_11 
REMARK    4  A    between atoms: C_11  and  C_12 
ROOT
HETATM    1  C   UNL     1       4.258  28.102  51.079  1.00  0.00     0.076 A 
HETATM    2  C   UNL     1       4.206  28.044  52.467  1.00  0.00     0.039 A 
HETATM    3  C   UNL     1       4.751  26.947  53.142  1.00  0.00     0.032 A 
HETATM    4  C   UNL     1       5.331  25.893  52.428  1.00  0.00     0.035 A 
HETATM    5  C   UNL     1       5.344  25.949  51.026  1.00  0.00     0.032 A 
HETATM    6  C   UNL     1       4.804  27.047  50.351  1.00  0.00     0.039 A 
ENDROOT
BRANCH   4   7
HETATM    7  N   UNL     1       5.927  24.766  53.032  1.00  0.00    -0.323 N 
HETATM    8  C   UNL     1       7.251  24.379  52.961  1.00  0.00     0.257 C 
HETATM    9  O   UNL     1       8.171  24.993  52.431  1.00  0.00    -0.267 OA
HETATM   10  H   UNL     1       5.311  24.196  53.596  1.00  0.00     0.169 HD
BRANCH   8  11
HETATM   11  C   UNL     1       7.522  23.079  53.659  1.00  0.00     0.048 A 
HETATM   12  C   UNL     1       7.456  23.070  55.002  1.00  0.00     0.108 A 
HETATM   13  N   UNL     1       7.707  21.916  55.707  1.00  0.00    -0.333 N 
HETATM   14  C   UNL     1       8.049  20.719  55.124  1.00  0.00     0.245 A 
HETATM   15  H   UNL     1       7.649  21.916  56.718  1.00  0.00     0.168 HD
HETATM   16  O   UNL     1       8.258  19.697  55.766  1.00  0.00    -0.268 OA
HETATM   17  C   UNL     1       8.166  20.734  53.642  1.00  0.00     0.075 A 
HETATM   18  C   UNL     1       7.918  21.866  52.964  1.00  0.00     0.024 A 
ENDBRANCH   8  11
ENDBRANCH   4   7
BRANCH   1  19
HETATM   19  O   UNL     1       3.701  29.190  50.453  1.00  0.00    -0.311 OA
BRANCH  19  20
HETATM   20  C   UNL     1       2.946  28.955  49.322  1.00  0.00     0.076 A 
HETATM   21  C   UNL     1       3.463  29.469  48.131  1.00  0.00     0.037 A 
HETATM   22  C   UNL     1       2.792  29.257  46.925  1.00  0.00     0.003 A 
HETATM   23  C   UNL     1       1.607  28.521  46.907  1.00  0.00     0.000 A 
HETATM   24  C   UNL     1       1.097  27.992  48.093  1.00  0.00     0.003 A 
HETATM   25  C   UNL     1       1.769  28.202  49.299  1.00  0.00     0.037 A 
ENDBRANCH  19  20
ENDBRANCH   1  19
TORSDOF 4
ENDMDL
MODEL 9
REMARK VINA RESULT:      -7.9      6.772      8.494
REMARK  4 active torsions:
REMARK  status: ('A' for Active; 'I' for Inactive)
REMARK    1  A    between atoms: C_4  and  O_5 
REMARK    2  A    between atoms: O_5  and  C_6 
REMARK    3  A    between atoms: C_9  and  N_10 
REMARK       I    between atoms: N_10  and  C_11 
REMARK    4  A    between atoms: C_11  and  C_12 
ROOT
HETATM    1  C   UNL     1       8.947  30.550  58.398  1.00  0.00     0.076 A 
HETATM    2  C   UNL     1       7.559  30.462  58.424  1.00  0.00     0.039 A 
HETATM    3  C   UNL     1       6.896  29.613  57.533  1.00  0.00     0.032 A 
HETATM    4  C   UNL     1       7.617  28.866  56.596  1.00  0.00     0.035 A 
HETATM    5  C   UNL     1       9.014  28.993  56.557  1.00  0.00     0.032 A 
HETATM    6  C   UNL     1       9.679  29.837  57.451  1.00  0.00     0.039 A 
ENDROOT
BRANCH   4   7
HETATM    7  N   UNL     1       7.028  27.967  55.682  1.00  0.00    -0.323 N 
HETATM    8  C   UNL     1       7.082  26.587  55.711  1.00  0.00     0.257 C 
HETATM    9  O   UNL     1       7.579  25.887  56.586  1.00  0.00    -0.267 OA
HETATM   10  H   UNL     1       6.489  28.391  54.939  1.00  0.00     0.169 HD
BRANCH   8  11
HETATM   11  C   UNL     1       6.408  25.948  54.533  1.00  0.00     0.048 A 
HETATM   12  C   UNL     1       5.196  26.411  54.183  1.00  0.00     0.108 A 
HETATM   13  N   UNL     1       4.516  25.862  53.122  1.00  0.00    -0.333 N 
HETATM   14  C   UNL     1       4.990  24.819  52.362  1.00  0.00     0.245 A 
HETATM   15  H   UNL     1       3.604  26.220  52.861  1.00  0.00     0.168 HD
HETATM   16  O   UNL     1       4.377  24.349  51.412  1.00  0.00    -0.268 OA
HETATM   17  C   UNL     1       6.312  24.274  52.771  1.00  0.00     0.075 A 
HETATM   18  C   UNL     1       6.968  24.819  53.808  1.00  0.00     0.024 A 
ENDBRANCH   8  11
ENDBRANCH   4   7
BRANCH   1  19
HETATM   19  O   UNL     1       9.560  31.405  59.280  1.00  0.00    -0.311 OA
BRANCH  19  20
HETATM   20  C   UNL     1       8.963  31.586  60.510  1.00  0.00     0.076 A 
HETATM   21  C   UNL     1       9.243  30.612  61.471  1.00  0.00     0.037 A 
HETATM   22  C   UNL     1       8.715  30.722  62.758  1.00  0.00     0.003 A 
HETATM   23  C   UNL     1       7.911  31.814  63.090  1.00  0.00     0.000 A 
HETATM   24  C   UNL     1       7.644  32.797  62.138  1.00  0.00     0.003 A 
HETATM   25  C   UNL     1       8.174  32.689  60.851  1.00  0.00     0.037 A 
ENDBRANCH  19  20
ENDBRANCH   1  19
TORSDOF 4
ENDMDL
MODEL 10
REMARK VINA RESULT:      -7.9     15.168     17.186
REMARK  4 active torsions:
REMARK  status: ('A' for Active; 'I' for Inactive)
REMARK    1  A    between atoms: C_4  and  O_5 
REMARK    2  A    between atoms: O_5  and  C_6 
REMARK    3  A    between atoms: C_9  and  N_10 
REMARK       I    between atoms: N_10  and  C_11 
REMARK    4  A    between atoms: C_11  and  C_12 
ROOT
HETATM    1  C   UNL     1       5.549  34.464  68.423  1.00  0.00     0.076 A 
HETATM    2  C   UNL     1       4.497  34.187  67.558  1.00  0.00     0.039 A 
HETATM    3  C   UNL     1       4.756  33.864  66.222  1.00  0.00     0.032 A 
HETATM    4  C   UNL     1       6.069  33.840  65.742  1.00  0.00     0.035 A 
HETATM    5  C   UNL     1       7.119  34.158  66.618  1.00  0.00     0.032 A 
HETATM    6  C   UNL     1       6.861  34.475  67.954  1.00  0.00     0.039 A 
ENDROOT
BRANCH   4   7
HETATM    7  N   UNL     1       6.418  33.498  64.418  1.00  0.00    -0.323 N 
HETATM    8  C   UNL     1       5.807  32.563  63.605  1.00  0.00     0.257 C 
HETATM    9  O   UNL     1       4.793  31.920  63.854  1.00  0.00    -0.267 OA
HETATM   10  H   UNL     1       7.190  34.017  64.022  1.00  0.00     0.169 HD
BRANCH   8  11
HETATM   11  C   UNL     1       6.492  32.398  62.281  1.00  0.00     0.048 A 
HETATM   12  C   UNL     1       5.716  32.178  61.204  1.00  0.00     0.108 A 
HETATM   13  N   UNL     1       6.278  32.004  59.961  1.00  0.00    -0.333 N 
HETATM   14  C   UNL     1       7.631  32.023  59.720  1.00  0.00     0.245 A 
HETATM   15  H   UNL     1       5.687  31.844  59.154  1.00  0.00     0.168 HD
HETATM   16  O   UNL     1       8.115  31.878  58.604  1.00  0.00    -0.268 OA
HETATM   17  C   UNL     1       8.495  32.223  60.914  1.00  0.00     0.075 A 
HETATM   18  C   UNL     1       7.936  32.393  62.123  1.00  0.00     0.024 A 
ENDBRANCH   8  11
ENDBRANCH   4   7
BRANCH   1  19
HETATM   19  O   UNL     1       5.253  34.789  69.724  1.00  0.00    -0.311 OA
BRANCH  19  20
HETATM   20  C   UNL     1       6.053  34.255  70.712  1.00  0.00     0.076 A 
HETATM   21  C   UNL     1       6.655  35.177  71.570  1.00  0.00     0.037 A 
HETATM   22  C   UNL     1       7.457  34.736  72.624  1.00  0.00     0.003 A 
HETATM   23  C   UNL     1       7.651  33.370  72.828  1.00  0.00     0.000 A 
HETATM   24  C   UNL     1       7.036  32.446  71.983  1.00  0.00     0.003 A 
HETATM   25  C   UNL     1       6.232  32.885  70.930  1.00  0.00     0.037 A 
ENDBRANCH  19  20
ENDBRANCH   1  19
TORSDOF 4
ENDMDL
