MODEL 1
REMARK VINA RESULT:      -9.1      0.000      0.000
REMARK  5 active torsions:
REMARK  status: ('A' for Active; 'I' for Inactive)
REMARK    1  A    between atoms: C_7  and  C_8 
REMARK    2  A    between atoms: N_9  and  N_10 
REMARK       I    between atoms: N_10  and  C_11 
REMARK    3  A    between atoms: C_11  and  C_12 
REMARK    4  A    between atoms: C_12  and  O_13 
REMARK    5  A    between atoms: O_13  and  C_14 
ROOT
HETATM    1  C   UNL     1       7.902  25.497  55.124  1.00  0.00     0.153 C 
HETATM    2  N   UNL     1       6.817  26.017  55.607  1.00  0.00    -0.184 NA
ENDROOT
BRANCH   2   3
HETATM    3  N   UNL     1       6.909  27.226  56.260  1.00  0.00    -0.246 N 
HETATM    4  C   UNL     1       7.384  27.426  57.553  1.00  0.00     0.261 C 
HETATM    5  O   UNL     1       7.876  26.568  58.284  1.00  0.00    -0.269 OA
HETATM    6  H   UNL     1       6.297  27.950  55.886  1.00  0.00     0.192 HD
BRANCH   4   7
HETATM    7  C   UNL     1       7.333  28.888  57.986  1.00  0.00     0.280 C 
BRANCH   7   8
HETATM    8  O   UNL     1       8.515  29.280  58.676  1.00  0.00    -0.342 OA
BRANCH   8   9
HETATM    9  C   UNL     1       8.376  30.350  59.521  1.00  0.00     0.069 A 
HETATM   10  C   UNL     1       7.319  31.212  59.220  1.00  0.00     0.037 A 
HETATM   11  C   UNL     1       7.071  32.335  60.012  1.00  0.00     0.003 A 
HETATM   12  C   UNL     1       7.889  32.610  61.105  1.00  0.00     0.000 A 
HETATM   13  C   UNL     1       8.953  31.763  61.404  1.00  0.00     0.003 A 
HETATM   14  C   UNL     1       9.200  30.637  60.613  1.00  0.00     0.037 A 
ENDBRANCH   8   9
ENDBRANCH   7   8
ENDBRANCH   4   7
ENDBRANCH   2   3
BRANCH   1  15
HETATM   15  C   UNL     1       7.881  24.199  54.469  1.00  0.00     0.018 A 
HETATM   16  C   UNL     1       7.716  23.926  53.118  1.00  0.00     0.018 A 
HETATM   17  C   UNL     1       7.520  24.828  51.952  1.00  0.00     0.069 C 
HETATM   18  N   UNL     1       7.770  22.563  52.959  1.00  0.00    -0.358 N 
HETATM   19  H   UNL     1       7.679  22.077  52.078  1.00  0.00     0.166 HD
HETATM   20  C   UNL     1       7.968  21.938  54.167  1.00  0.00     0.043 A 
HETATM   21  C   UNL     1       8.040  22.937  55.135  1.00  0.00     0.004 A 
HETATM   22  C   UNL     1       8.082  20.576  54.471  1.00  0.00     0.030 A 
HETATM   23  C   UNL     1       8.228  22.552  56.480  1.00  0.00     0.014 A 
HETATM   24  C   UNL     1       8.341  21.195  56.804  1.00  0.00     0.001 A 
HETATM   25  C   UNL     1       8.271  20.223  55.811  1.00  0.00     0.002 A 
ENDBRANCH   1  15
TORSDOF 5
ENDMDL
MODEL 2
REMARK VINA RESULT:      -9.1      1.661      2.249
REMARK  5 active torsions:
REMARK  status: ('A' for Active; 'I' for Inactive)
REMARK    1  A    between atoms: C_7  and  C_8 
REMARK    2  A    between atoms: N_9  and  N_10 
REMARK       I    between atoms: N_10  and  C_11 
REMARK    3  A    between atoms: C_11  and  C_12 
REMARK    4  A    between atoms: C_12  and  O_13 
REMARK    5  A    between atoms: O_13  and  C_14 
ROOT
HETATM    1  C   UNL     1       7.653  25.218  55.231  1.00  0.00     0.153 C 
HETATM    2  N   UNL     1       6.523  25.525  55.788  1.00  0.00    -0.184 NA
ENDROOT
BRANCH   2   3
HETATM    3  N   UNL     1       6.470  26.654  56.575  1.00  0.00    -0.246 N 
HETATM    4  C   UNL     1       6.259  27.955  56.128  1.00  0.00     0.261 C 
HETATM    5  O   UNL     1       6.002  28.292  54.973  1.00  0.00    -0.269 OA
HETATM    6  H   UNL     1       6.929  26.555  57.479  1.00  0.00     0.192 HD
BRANCH   4   7
HETATM    7  C   UNL     1       6.278  28.982  57.256  1.00  0.00     0.280 C 
BRANCH   7   8
HETATM    8  O   UNL     1       7.320  28.726  58.191  1.00  0.00    -0.342 OA
BRANCH   8   9
HETATM    9  C   UNL     1       8.521  29.326  57.915  1.00  0.00     0.069 A 
HETATM   10  C   UNL     1       8.754  30.526  58.590  1.00  0.00     0.037 A 
HETATM   11  C   UNL     1       9.946  31.229  58.397  1.00  0.00     0.003 A 
HETATM   12  C   UNL     1      10.908  30.740  57.517  1.00  0.00     0.000 A 
HETATM   13  C   UNL     1      10.677  29.550  56.830  1.00  0.00     0.003 A 
HETATM   14  C   UNL     1       9.485  28.845  57.025  1.00  0.00     0.037 A 
ENDBRANCH   8   9
ENDBRANCH   7   8
ENDBRANCH   4   7
ENDBRANCH   2   3
BRANCH   1  15
HETATM   15  C   UNL     1       7.787  24.012  54.431  1.00  0.00     0.018 A 
HETATM   16  C   UNL     1       7.769  23.897  53.048  1.00  0.00     0.018 A 
HETATM   17  C   UNL     1       7.617  24.920  51.980  1.00  0.00     0.069 C 
HETATM   18  N   UNL     1       7.937  22.569  52.739  1.00  0.00    -0.358 N 
HETATM   19  H   UNL     1       7.964  22.190  51.802  1.00  0.00     0.166 HD
HETATM   20  C   UNL     1       8.067  21.814  53.879  1.00  0.00     0.043 A 
HETATM   21  C   UNL     1       7.976  22.690  54.959  1.00  0.00     0.004 A 
HETATM   22  C   UNL     1       8.252  20.435  54.033  1.00  0.00     0.030 A 
HETATM   23  C   UNL     1       8.066  22.155  56.263  1.00  0.00     0.014 A 
HETATM   24  C   UNL     1       8.247  20.778  56.437  1.00  0.00     0.001 A 
HETATM   25  C   UNL     1       8.341  19.932  55.336  1.00  0.00     0.002 A 
ENDBRANCH   1  15
TORSDOF 5
ENDMDL
MODEL 3
REMARK VINA RESULT:      -8.7      4.642      8.114
REMARK  5 active torsions:
REMARK  status: ('A' for Active; 'I' for Inactive)
REMARK    1  A    between atoms: C_7  and  C_8 
REMARK    2  A    between atoms: N_9  and  N_10 
REMARK       I    between atoms: N_10  and  C_11 
REMARK    3  A    between atoms: C_11  and  C_12 
REMARK    4  A    between atoms: C_12  and  O_13 
REMARK    5  A    between atoms: O_13  and  C_14 
ROOT
HETATM    1  C   UNL     1       6.948  25.122  54.211  1.00  0.00     0.153 C 
HETATM    2  N   UNL     1       5.678  25.138  53.952  1.00  0.00    -0.184 NA
ENDROOT
BRANCH   2   3
HETATM    3  N   UNL     1       5.179  26.182  53.205  1.00  0.00    -0.246 N 
HETATM    4  C   UNL     1       5.380  26.386  51.843  1.00  0.00     0.261 C 
HETATM    5  O   UNL     1       5.963  25.623  51.075  1.00  0.00    -0.269 OA
HETATM    6  H   UNL     1       4.924  27.003  53.753  1.00  0.00     0.192 HD
BRANCH   4   7
HETATM    7  C   UNL     1       4.705  27.652  51.325  1.00  0.00     0.280 C 
BRANCH   7   8
HETATM    8  O   UNL     1       4.889  27.817  49.924  1.00  0.00    -0.342 OA
BRANCH   8   9
HETATM    9  C   UNL     1       3.839  27.414  49.140  1.00  0.00     0.069 A 
HETATM   10  C   UNL     1       2.686  28.195  49.244  1.00  0.00     0.037 A 
HETATM   11  C   UNL     1       1.550  27.889  48.490  1.00  0.00     0.003 A 
HETATM   12  C   UNL     1       1.559  26.790  47.634  1.00  0.00     0.000 A 
HETATM   13  C   UNL     1       2.700  25.999  47.534  1.00  0.00     0.003 A 
HETATM   14  C   UNL     1       3.838  26.307  48.287  1.00  0.00     0.037 A 
ENDBRANCH   8   9
ENDBRANCH   7   8
ENDBRANCH   4   7
ENDBRANCH   2   3
BRANCH   1  15
HETATM   15  C   UNL     1       7.529  24.075  55.036  1.00  0.00     0.018 A 
HETATM   16  C   UNL     1       7.875  24.137  56.379  1.00  0.00     0.018 A 
HETATM   17  C   UNL     1       7.769  25.242  57.369  1.00  0.00     0.069 C 
HETATM   18  N   UNL     1       8.381  22.911  56.736  1.00  0.00    -0.358 N 
HETATM   19  H   UNL     1       8.716  22.667  57.658  1.00  0.00     0.166 HD
HETATM   20  C   UNL     1       8.373  22.049  55.666  1.00  0.00     0.043 A 
HETATM   21  C   UNL     1       7.845  22.749  54.584  1.00  0.00     0.004 A 
HETATM   22  C   UNL     1       8.793  20.716  55.577  1.00  0.00     0.030 A 
HETATM   23  C   UNL     1       7.740  22.082  53.343  1.00  0.00     0.014 A 
HETATM   24  C   UNL     1       8.158  20.751  53.234  1.00  0.00     0.001 A 
HETATM   25  C   UNL     1       8.675  20.079  54.337  1.00  0.00     0.002 A 
ENDBRANCH   1  15
TORSDOF 5
ENDMDL
MODEL 4
REMARK VINA RESULT:      -8.0      2.367      3.778
REMARK  5 active torsions:
REMARK  status: ('A' for Active; 'I' for Inactive)
REMARK    1  A    between atoms: C_7  and  C_8 
REMARK    2  A    between atoms: N_9  and  N_10 
REMARK       I    between atoms: N_10  and  C_11 
REMARK    3  A    between atoms: C_11  and  C_12 
REMARK    4  A    between atoms: C_12  and  O_13 
REMARK    5  A    between atoms: O_13  and  C_14 
ROOT
HETATM    1  C   UNL     1       6.853  27.303  57.062  1.00  0.00     0.153 C 
HETATM    2  N   UNL     1       7.810  27.752  57.811  1.00  0.00    -0.184 NA
ENDROOT
BRANCH   2   3
HETATM    3  N   UNL     1       7.582  28.896  58.543  1.00  0.00    -0.246 N 
HETATM    4  C   UNL     1       8.384  30.034  58.558  1.00  0.00     0.261 C 
HETATM    5  O   UNL     1       9.375  30.230  57.856  1.00  0.00    -0.269 OA
HETATM    6  H   UNL     1       6.972  28.762  59.349  1.00  0.00     0.192 HD
BRANCH   4   7
HETATM    7  C   UNL     1       7.860  31.119  59.493  1.00  0.00     0.280 C 
BRANCH   7   8
HETATM    8  O   UNL     1       8.169  30.843  60.854  1.00  0.00    -0.342 OA
BRANCH   8   9
HETATM    9  C   UNL     1       7.741  31.781  61.758  1.00  0.00     0.069 A 
HETATM   10  C   UNL     1       6.731  32.629  61.300  1.00  0.00     0.037 A 
HETATM   11  C   UNL     1       6.207  33.622  62.130  1.00  0.00     0.003 A 
HETATM   12  C   UNL     1       6.700  33.780  63.423  1.00  0.00     0.000 A 
HETATM   13  C   UNL     1       7.717  32.946  63.883  1.00  0.00     0.003 A 
HETATM   14  C   UNL     1       8.240  31.950  63.052  1.00  0.00     0.037 A 
ENDBRANCH   8   9
ENDBRANCH   7   8
ENDBRANCH   4   7
ENDBRANCH   2   3
BRANCH   1  15
HETATM   15  C   UNL     1       7.047  26.129  56.226  1.00  0.00     0.018 A 
HETATM   16  C   UNL     1       7.906  25.059  56.440  1.00  0.00     0.018 A 
HETATM   17  C   UNL     1       8.863  24.775  57.542  1.00  0.00     0.069 C 
HETATM   18  N   UNL     1       7.747  24.183  55.395  1.00  0.00    -0.358 N 
HETATM   19  H   UNL     1       8.248  23.312  55.286  1.00  0.00     0.166 HD
HETATM   20  C   UNL     1       6.808  24.647  54.506  1.00  0.00     0.043 A 
HETATM   21  C   UNL     1       6.350  25.867  54.998  1.00  0.00     0.004 A 
HETATM   22  C   UNL     1       6.338  24.085  53.313  1.00  0.00     0.030 A 
HETATM   23  C   UNL     1       5.376  26.566  54.252  1.00  0.00     0.014 A 
HETATM   24  C   UNL     1       4.897  26.021  53.056  1.00  0.00     0.001 A 
HETATM   25  C   UNL     1       5.371  24.796  52.595  1.00  0.00     0.002 A 
ENDBRANCH   1  15
TORSDOF 5
ENDMDL
MODEL 5
REMARK VINA RESULT:      -7.9      2.480      9.050
REMARK  5 active torsions:
REMARK  status: ('A' for Active; 'I' for Inactive)
REMARK    1  A    between atoms: C_7  and  C_8 
REMARK    2  A    between atoms: N_9  and  N_10 
REMARK       I    between atoms: N_10  and  C_11 
REMARK    3  A    between atoms: C_11  and  C_12 
REMARK    4  A    between atoms: C_12  and  O_13 
REMARK    5  A    between atoms: O_13  and  C_14 
ROOT
HETATM    1  C   UNL     1       7.988  29.013  58.009  1.00  0.00     0.153 C 
HETATM    2  N   UNL     1       7.162  28.149  57.508  1.00  0.00    -0.184 NA
ENDROOT
BRANCH   2   3
HETATM    3  N   UNL     1       7.681  27.014  56.925  1.00  0.00    -0.246 N 
HETATM    4  C   UNL     1       7.139  25.734  56.999  1.00  0.00     0.261 C 
HETATM    5  O   UNL     1       6.070  25.429  57.524  1.00  0.00    -0.269 OA
HETATM    6  H   UNL     1       8.675  27.073  56.707  1.00  0.00     0.192 HD
BRANCH   4   7
HETATM    7  C   UNL     1       7.972  24.692  56.259  1.00  0.00     0.280 C 
BRANCH   7   8
HETATM    8  O   UNL     1       7.166  23.845  55.447  1.00  0.00    -0.342 OA
BRANCH   8   9
HETATM    9  C   UNL     1       6.849  24.343  54.209  1.00  0.00     0.069 A 
HETATM   10  C   UNL     1       7.928  24.487  53.333  1.00  0.00     0.037 A 
HETATM   11  C   UNL     1       7.732  24.978  52.041  1.00  0.00     0.003 A 
HETATM   12  C   UNL     1       6.454  25.339  51.620  1.00  0.00     0.000 A 
HETATM   13  C   UNL     1       5.375  25.211  52.491  1.00  0.00     0.003 A 
HETATM   14  C   UNL     1       5.571  24.716  53.785  1.00  0.00     0.037 A 
ENDBRANCH   8   9
ENDBRANCH   7   8
ENDBRANCH   4   7
ENDBRANCH   2   3
BRANCH   1  15
HETATM   15  C   UNL     1       7.507  30.254  58.593  1.00  0.00     0.018 A 
HETATM   16  C   UNL     1       6.504  31.090  58.120  1.00  0.00     0.018 A 
HETATM   17  C   UNL     1       5.632  30.992  56.920  1.00  0.00     0.069 C 
HETATM   18  N   UNL     1       6.389  32.140  58.997  1.00  0.00    -0.358 N 
HETATM   19  H   UNL     1       5.736  32.906  58.903  1.00  0.00     0.166 HD
HETATM   20  C   UNL     1       7.286  32.014  60.030  1.00  0.00     0.043 A 
HETATM   21  C   UNL     1       8.003  30.842  59.805  1.00  0.00     0.004 A 
HETATM   22  C   UNL     1       7.515  32.845  61.134  1.00  0.00     0.030 A 
HETATM   23  C   UNL     1       9.010  30.486  60.729  1.00  0.00     0.014 A 
HETATM   24  C   UNL     1       9.256  31.306  61.837  1.00  0.00     0.001 A 
HETATM   25  C   UNL     1       8.515  32.468  62.035  1.00  0.00     0.002 A 
ENDBRANCH   1  15
TORSDOF 5
ENDMDL
MODEL 6
REMARK VINA RESULT:      -7.9      4.752      7.357
REMARK  5 active torsions:
REMARK  status: ('A' for Active; 'I' for Inactive)
REMARK    1  A    between atoms: C_7  and  C_8 
REMARK    2  A    between atoms: N_9  and  N_10 
REMARK       I    between atoms: N_10  and  C_11 
REMARK    3  A    between atoms: C_11  and  C_12 
REMARK    4  A    between atoms: C_12  and  O_13 
REMARK    5  A    between atoms: O_13  and  C_14 
ROOT
HETATM    1  C   UNL     1       7.380  25.363  54.035  1.00  0.00     0.153 C 
HETATM    2  N   UNL     1       6.154  25.773  53.937  1.00  0.00    -0.184 NA
ENDROOT
BRANCH   2   3
HETATM    3  N   UNL     1       5.896  26.870  53.145  1.00  0.00    -0.246 N 
HETATM    4  C   UNL     1       5.672  26.856  51.772  1.00  0.00     0.261 C 
HETATM    5  O   UNL     1       5.585  25.855  51.063  1.00  0.00    -0.269 OA
HETATM    6  H   UNL     1       6.206  27.755  53.544  1.00  0.00     0.192 HD
BRANCH   4   7
HETATM    7  C   UNL     1       5.436  28.247  51.193  1.00  0.00     0.280 C 
BRANCH   7   8
HETATM    8  O   UNL     1       5.043  28.195  49.826  1.00  0.00    -0.342 OA
BRANCH   8   9
HETATM    9  C   UNL     1       5.087  29.390  49.154  1.00  0.00     0.069 A 
HETATM   10  C   UNL     1       5.610  30.461  49.882  1.00  0.00     0.037 A 
HETATM   11  C   UNL     1       5.712  31.729  49.304  1.00  0.00     0.003 A 
HETATM   12  C   UNL     1       5.280  31.934  47.996  1.00  0.00     0.000 A 
HETATM   13  C   UNL     1       4.744  30.874  47.269  1.00  0.00     0.003 A 
HETATM   14  C   UNL     1       4.644  29.605  47.846  1.00  0.00     0.037 A 
ENDBRANCH   8   9
ENDBRANCH   7   8
ENDBRANCH   4   7
ENDBRANCH   2   3
BRANCH   1  15
HETATM   15  C   UNL     1       7.725  24.242  54.894  1.00  0.00     0.018 A 
HETATM   16  C   UNL     1       7.922  24.246  56.268  1.00  0.00     0.018 A 
HETATM   17  C   UNL     1       7.846  25.346  57.267  1.00  0.00     0.069 C 
HETATM   18  N   UNL     1       8.225  22.962  56.650  1.00  0.00    -0.358 N 
HETATM   19  H   UNL     1       8.419  22.668  57.597  1.00  0.00     0.166 HD
HETATM   20  C   UNL     1       8.228  22.118  55.565  1.00  0.00     0.043 A 
HETATM   21  C   UNL     1       7.920  22.891  54.448  1.00  0.00     0.004 A 
HETATM   22  C   UNL     1       8.484  20.744  55.491  1.00  0.00     0.030 A 
HETATM   23  C   UNL     1       7.873  22.255  53.188  1.00  0.00     0.014 A 
HETATM   24  C   UNL     1       8.128  20.883  53.093  1.00  0.00     0.001 A 
HETATM   25  C   UNL     1       8.427  20.139  54.231  1.00  0.00     0.002 A 
ENDBRANCH   1  15
TORSDOF 5
ENDMDL
MODEL 7
REMARK VINA RESULT:      -7.8      2.459      3.729
REMARK  5 active torsions:
REMARK  status: ('A' for Active; 'I' for Inactive)
REMARK    1  A    between atoms: C_7  and  C_8 
REMARK    2  A    between atoms: N_9  and  N_10 
REMARK       I    between atoms: N_10  and  C_11 
REMARK    3  A    between atoms: C_11  and  C_12 
REMARK    4  A    between atoms: C_12  and  O_13 
REMARK    5  A    between atoms: O_13  and  C_14 
ROOT
HETATM    1  C   UNL     1       5.929  28.884  55.970  1.00  0.00     0.153 C 
HETATM    2  N   UNL     1       6.112  28.642  57.230  1.00  0.00    -0.184 NA
ENDROOT
BRANCH   2   3
HETATM    3  N   UNL     1       6.496  29.684  58.045  1.00  0.00    -0.246 N 
HETATM    4  C   UNL     1       7.772  29.895  58.559  1.00  0.00     0.261 C 
HETATM    5  O   UNL     1       8.776  29.234  58.300  1.00  0.00    -0.269 OA
HETATM    6  H   UNL     1       5.727  30.129  58.544  1.00  0.00     0.192 HD
BRANCH   4   7
HETATM    7  C   UNL     1       7.858  31.133  59.446  1.00  0.00     0.280 C 
BRANCH   7   8
HETATM    8  O   UNL     1       8.036  30.795  60.817  1.00  0.00    -0.342 OA
BRANCH   8   9
HETATM    9  C   UNL     1       7.677  31.766  61.716  1.00  0.00     0.069 A 
HETATM   10  C   UNL     1       6.741  32.691  61.248  1.00  0.00     0.037 A 
HETATM   11  C   UNL     1       6.291  33.725  62.073  1.00  0.00     0.003 A 
HETATM   12  C   UNL     1       6.786  33.846  63.369  1.00  0.00     0.000 A 
HETATM   13  C   UNL     1       7.730  32.936  63.838  1.00  0.00     0.003 A 
HETATM   14  C   UNL     1       8.178  31.900  63.013  1.00  0.00     0.037 A 
ENDBRANCH   8   9
ENDBRANCH   7   8
ENDBRANCH   4   7
ENDBRANCH   2   3
BRANCH   1  15
HETATM   15  C   UNL     1       5.573  27.818  55.048  1.00  0.00     0.018 A 
HETATM   16  C   UNL     1       4.565  27.813  54.094  1.00  0.00     0.018 A 
HETATM   17  C   UNL     1       3.568  28.849  53.715  1.00  0.00     0.069 C 
HETATM   18  N   UNL     1       4.603  26.599  53.454  1.00  0.00    -0.358 N 
HETATM   19  H   UNL     1       3.981  26.315  52.710  1.00  0.00     0.166 HD
HETATM   20  C   UNL     1       5.607  25.810  53.962  1.00  0.00     0.043 A 
HETATM   21  C   UNL     1       6.234  26.546  54.965  1.00  0.00     0.004 A 
HETATM   22  C   UNL     1       6.000  24.512  53.613  1.00  0.00     0.030 A 
HETATM   23  C   UNL     1       7.306  25.947  55.663  1.00  0.00     0.014 A 
HETATM   24  C   UNL     1       7.711  24.650  55.330  1.00  0.00     0.001 A 
HETATM   25  C   UNL     1       7.067  23.945  54.318  1.00  0.00     0.002 A 
ENDBRANCH   1  15
TORSDOF 5
ENDMDL
MODEL 8
REMARK VINA RESULT:      -7.8      5.497      9.604
REMARK  5 active torsions:
REMARK  status: ('A' for Active; 'I' for Inactive)
REMARK    1  A    between atoms: C_7  and  C_8 
REMARK    2  A    between atoms: N_9  and  N_10 
REMARK       I    between atoms: N_10  and  C_11 
REMARK    3  A    between atoms: C_11  and  C_12 
REMARK    4  A    between atoms: C_12  and  O_13 
REMARK    5  A    between atoms: O_13  and  C_14 
ROOT
HETATM    1  C   UNL     1       5.431  27.626  50.720  1.00  0.00     0.153 C 
HETATM    2  N   UNL     1       4.626  27.391  51.709  1.00  0.00    -0.184 NA
ENDROOT
BRANCH   2   3
HETATM    3  N   UNL     1       5.128  26.749  52.819  1.00  0.00    -0.246 N 
HETATM    4  C   UNL     1       5.119  25.376  53.047  1.00  0.00     0.261 C 
HETATM    5  O   UNL     1       4.738  24.514  52.257  1.00  0.00    -0.269 OA
HETATM    6  H   UNL     1       5.214  27.344  53.642  1.00  0.00     0.192 HD
BRANCH   4   7
HETATM    7  C   UNL     1       5.736  24.991  54.388  1.00  0.00     0.280 C 
BRANCH   7   8
HETATM    8  O   UNL     1       7.118  24.671  54.265  1.00  0.00    -0.342 OA
BRANCH   8   9
HETATM    9  C   UNL     1       7.409  23.332  54.204  1.00  0.00     0.069 A 
HETATM   10  C   UNL     1       7.420  22.670  55.433  1.00  0.00     0.037 A 
HETATM   11  C   UNL     1       7.697  21.303  55.501  1.00  0.00     0.003 A 
HETATM   12  C   UNL     1       7.977  20.592  54.336  1.00  0.00     0.000 A 
HETATM   13  C   UNL     1       7.982  21.247  53.108  1.00  0.00     0.003 A 
HETATM   14  C   UNL     1       7.701  22.616  53.040  1.00  0.00     0.037 A 
ENDBRANCH   8   9
ENDBRANCH   7   8
ENDBRANCH   4   7
ENDBRANCH   2   3
BRANCH   1  15
HETATM   15  C   UNL     1       4.951  28.254  49.500  1.00  0.00     0.018 A 
HETATM   16  C   UNL     1       4.205  27.681  48.479  1.00  0.00     0.018 A 
HETATM   17  C   UNL     1       3.674  26.303  48.307  1.00  0.00     0.069 C 
HETATM   18  N   UNL     1       3.978  28.651  47.534  1.00  0.00    -0.358 N 
HETATM   19  H   UNL     1       3.460  28.517  46.677  1.00  0.00     0.166 HD
HETATM   20  C   UNL     1       4.552  29.842  47.909  1.00  0.00     0.043 A 
HETATM   21  C   UNL     1       5.171  29.626  49.138  1.00  0.00     0.004 A 
HETATM   22  C   UNL     1       4.571  31.080  47.256  1.00  0.00     0.030 A 
HETATM   23  C   UNL     1       5.855  30.704  49.741  1.00  0.00     0.014 A 
HETATM   24  C   UNL     1       5.888  31.949  49.102  1.00  0.00     0.001 A 
HETATM   25  C   UNL     1       5.252  32.133  47.877  1.00  0.00     0.002 A 
ENDBRANCH   1  15
TORSDOF 5
ENDMDL
MODEL 9
REMARK VINA RESULT:      -7.8      2.509      9.240
REMARK  5 active torsions:
REMARK  status: ('A' for Active; 'I' for Inactive)
REMARK    1  A    between atoms: C_7  and  C_8 
REMARK    2  A    between atoms: N_9  and  N_10 
REMARK       I    between atoms: N_10  and  C_11 
REMARK    3  A    between atoms: C_11  and  C_12 
REMARK    4  A    between atoms: C_12  and  O_13 
REMARK    5  A    between atoms: O_13  and  C_14 
ROOT
HETATM    1  C   UNL     1       7.558  29.776  57.493  1.00  0.00     0.153 C 
HETATM    2  N   UNL     1       7.178  29.836  56.256  1.00  0.00    -0.184 NA
ENDROOT
BRANCH   2   3
HETATM    3  N   UNL     1       7.613  28.856  55.392  1.00  0.00    -0.246 N 
HETATM    4  C   UNL     1       6.864  28.262  54.381  1.00  0.00     0.261 C 
HETATM    5  O   UNL     1       5.723  28.577  54.045  1.00  0.00    -0.269 OA
HETATM    6  H   UNL     1       8.416  28.327  55.730  1.00  0.00     0.192 HD
BRANCH   4   7
HETATM    7  C   UNL     1       7.638  27.194  53.615  1.00  0.00     0.280 C 
BRANCH   7   8
HETATM    8  O   UNL     1       6.840  26.044  53.353  1.00  0.00    -0.342 OA
BRANCH   8   9
HETATM    9  C   UNL     1       7.379  24.849  53.755  1.00  0.00     0.069 A 
HETATM   10  C   UNL     1       7.503  23.886  52.751  1.00  0.00     0.037 A 
HETATM   11  C   UNL     1       8.044  22.630  53.035  1.00  0.00     0.003 A 
HETATM   12  C   UNL     1       8.454  22.326  54.332  1.00  0.00     0.000 A 
HETATM   13  C   UNL     1       8.320  23.276  55.341  1.00  0.00     0.003 A 
HETATM   14  C   UNL     1       7.781  24.534  55.056  1.00  0.00     0.037 A 
ENDBRANCH   8   9
ENDBRANCH   7   8
ENDBRANCH   4   7
ENDBRANCH   2   3
BRANCH   1  15
HETATM   15  C   UNL     1       7.174  30.807  58.444  1.00  0.00     0.018 A 
HETATM   16  C   UNL     1       6.119  31.704  58.353  1.00  0.00     0.018 A 
HETATM   17  C   UNL     1       5.082  31.895  57.305  1.00  0.00     0.069 C 
HETATM   18  N   UNL     1       6.139  32.486  59.482  1.00  0.00    -0.358 N 
HETATM   19  H   UNL     1       5.484  33.228  59.685  1.00  0.00     0.166 HD
HETATM   20  C   UNL     1       7.174  32.124  60.309  1.00  0.00     0.043 A 
HETATM   21  C   UNL     1       7.845  31.074  59.685  1.00  0.00     0.004 A 
HETATM   22  C   UNL     1       7.566  32.646  61.548  1.00  0.00     0.030 A 
HETATM   23  C   UNL     1       8.972  30.522  60.332  1.00  0.00     0.014 A 
HETATM   24  C   UNL     1       9.381  31.033  61.570  1.00  0.00     0.001 A 
HETATM   25  C   UNL     1       8.684  32.079  62.168  1.00  0.00     0.002 A 
ENDBRANCH   1  15
TORSDOF 5
ENDMDL
MODEL 10
REMARK VINA RESULT:      -7.8      2.150      9.039
REMARK  5 active torsions:
REMARK  status: ('A' for Active; 'I' for Inactive)
REMARK    1  A    between atoms: C_7  and  C_8 
REMARK    2  A    between atoms: N_9  and  N_10 
REMARK       I    between atoms: N_10  and  C_11 
REMARK    3  A    between atoms: C_11  and  C_12 
REMARK    4  A    between atoms: C_12  and  O_13 
REMARK    5  A    between atoms: O_13  and  C_14 
ROOT
HETATM    1  C   UNL     1       7.149  28.573  56.285  1.00  0.00     0.153 C 
HETATM    2  N   UNL     1       6.159  27.842  55.876  1.00  0.00    -0.184 NA
ENDROOT
BRANCH   2   3
HETATM    3  N   UNL     1       6.400  26.909  54.892  1.00  0.00    -0.246 N 
HETATM    4  C   UNL     1       6.235  25.532  55.010  1.00  0.00     0.261 C 
HETATM    5  O   UNL     1       5.768  24.939  55.980  1.00  0.00    -0.269 OA
HETATM    6  H   UNL     1       7.034  27.228  54.160  1.00  0.00     0.192 HD
BRANCH   4   7
HETATM    7  C   UNL     1       6.611  24.777  53.739  1.00  0.00     0.280 C 
BRANCH   7   8
HETATM    8  O   UNL     1       7.963  24.331  53.764  1.00  0.00    -0.342 OA
BRANCH   8   9
HETATM    9  C   UNL     1       8.141  23.008  54.074  1.00  0.00     0.069 A 
HETATM   10  C   UNL     1       7.925  22.117  53.020  1.00  0.00     0.037 A 
HETATM   11  C   UNL     1       8.082  20.742  53.209  1.00  0.00     0.003 A 
HETATM   12  C   UNL     1       8.445  20.249  54.460  1.00  0.00     0.000 A 
HETATM   13  C   UNL     1       8.648  21.129  55.519  1.00  0.00     0.003 A 
HETATM   14  C   UNL     1       8.494  22.506  55.329  1.00  0.00     0.037 A 
ENDBRANCH   8   9
ENDBRANCH   7   8
ENDBRANCH   4   7
ENDBRANCH   2   3
BRANCH   1  15
HETATM   15  C   UNL     1       6.949  29.610  57.284  1.00  0.00     0.018 A 
HETATM   16  C   UNL     1       5.748  30.112  57.767  1.00  0.00     0.018 A 
HETATM   17  C   UNL     1       4.339  29.769  57.440  1.00  0.00     0.069 C 
HETATM   18  N   UNL     1       6.045  31.073  58.703  1.00  0.00    -0.358 N 
HETATM   19  H   UNL     1       5.363  31.610  59.220  1.00  0.00     0.166 HD
HETATM   20  C   UNL     1       7.405  31.211  58.846  1.00  0.00     0.043 A 
HETATM   21  C   UNL     1       8.000  30.308  57.969  1.00  0.00     0.004 A 
HETATM   22  C   UNL     1       8.143  32.063  59.676  1.00  0.00     0.030 A 
HETATM   23  C   UNL     1       9.411  30.261  57.913  1.00  0.00     0.014 A 
HETATM   24  C   UNL     1      10.166  31.107  58.732  1.00  0.00     0.001 A 
HETATM   25  C   UNL     1       9.538  31.994  59.603  1.00  0.00     0.002 A 
ENDBRANCH   1  15
TORSDOF 5
ENDMDL
