MODEL 1
REMARK VINA RESULT:      -8.1      0.000      0.000
REMARK  10 active torsions:
REMARK  status: ('A' for Active; 'I' for Inactive)
REMARK    1  A    between atoms: C_2  and  N_3 
REMARK    2  A    between atoms: N_7  and  C_8 
REMARK    3  A    between atoms: C_8  and  C_9 
REMARK    4  A    between atoms: C_9  and  N_10 
REMARK    5  A    between atoms: N_10  and  C_11 
REMARK    6  A    between atoms: C_13  and  C_14 
REMARK    7  A    between atoms: C_14  and  N_15 
REMARK    8  A    between atoms: C_23  and  C_24 
REMARK    9  A    between atoms: C_24  and  O_25 
REMARK   10  A    between atoms: O_25  and  C_26 
ROOT
HETATM    1  C   UNL     1       7.303  26.771  54.934  1.00  0.00     0.139 A 
HETATM    2  N   UNL     1       7.380  27.934  55.632  1.00  0.00    -0.214 NA
HETATM    3  C   UNL     1       7.904  27.936  56.867  1.00  0.00     0.155 A 
HETATM    4  N   UNL     1       8.375  26.873  57.529  1.00  0.00    -0.224 NA
HETATM    5  C   UNL     1       8.265  25.731  56.833  1.00  0.00     0.115 A 
HETATM    6  C   UNL     1       7.751  25.579  55.556  1.00  0.00     0.053 A 
HETATM    7  S   UNL     1       8.791  24.281  57.523  1.00  0.00    -0.063 SA
HETATM    8  C   UNL     1       8.296  23.357  56.168  1.00  0.00     0.089 A 
HETATM    9  C   UNL     1       7.746  24.170  55.172  1.00  0.00    -0.022 A 
HETATM   10  C   UNL     1       7.184  23.661  53.876  1.00  0.00     0.051 C 
ENDROOT
BRANCH   1  11
HETATM   11  N   UNL     1       6.765  26.789  53.655  1.00  0.00    -0.372 N 
HETATM   12  H   UNL     1       7.362  27.213  52.950  1.00  0.00     0.161 HD
BRANCH  11  13
HETATM   13  C   UNL     1       5.336  27.013  53.502  1.00  0.00     0.156 C 
BRANCH  13  14
HETATM   14  C   UNL     1       4.908  27.019  51.994  1.00  0.00     0.236 C 
HETATM   15  C   UNL     1       5.459  25.743  51.326  1.00  0.00     0.044 C 
BRANCH  14  16
HETATM   16  N   UNL     1       5.294  28.272  51.271  1.00  0.00     0.097 N 
HETATM   17  C   UNL     1       4.449  29.434  51.634  1.00  0.00     0.300 C 
HETATM   18  C   UNL     1       2.994  29.384  51.109  1.00  0.00     0.265 C 
HETATM   19  N   UNL     1       2.958  29.157  49.604  1.00  0.00    -0.068 N 
HETATM   20  H   UNL     1       3.343  30.005  49.163  1.00  0.00     0.280 HD
HETATM   21  C   UNL     1       3.868  28.005  49.177  1.00  0.00     0.265 C 
HETATM   22  C   UNL     1       5.274  28.158  49.792  1.00  0.00     0.300 C 
BRANCH  19  23
HETATM   23  C   UNL     1       1.559  28.954  49.055  1.00  0.00     0.230 C 
HETATM   24  C   UNL     1       1.396  27.577  48.440  1.00  0.00     0.034 C 
ENDBRANCH  19  23
ENDBRANCH  14  16
ENDBRANCH  13  14
ENDBRANCH  11  13
ENDBRANCH   1  11
BRANCH   3  25
HETATM   25  C   UNL     1       7.974  29.257  57.615  1.00  0.00     0.314 C 
BRANCH  25  26
HETATM   26  N   UNL     1       9.399  29.745  57.887  1.00  0.00    -0.072 N 
HETATM   27  H   UNL     1       9.818  28.988  58.455  1.00  0.00     0.279 HD
HETATM   28  C   UNL     1      10.230  29.832  56.641  1.00  0.00     0.269 C 
HETATM   29  C   UNL     1       9.435  31.005  58.689  1.00  0.00     0.269 C 
ENDBRANCH  25  26
ENDBRANCH   3  25
BRANCH   8  30
HETATM   30  C   UNL     1       8.479  21.906  56.159  1.00  0.00     0.300 C 
HETATM   31  O   UNL     1       8.106  21.150  57.048  1.00  0.00    -0.259 OA
BRANCH  30  32
HETATM   32  O   UNL     1       9.150  21.499  55.042  1.00  0.00    -0.317 OA
BRANCH  32  33
HETATM   33  C   UNL     1       8.738  20.254  54.460  1.00  0.00     0.174 C 
HETATM   34  C   UNL     1       8.492  20.440  52.975  1.00  0.00     0.034 C 
ENDBRANCH  32  33
ENDBRANCH  30  32
ENDBRANCH   8  30
TORSDOF 10
ENDMDL
MODEL 2
REMARK VINA RESULT:      -7.7      2.156      2.742
REMARK  10 active torsions:
REMARK  status: ('A' for Active; 'I' for Inactive)
REMARK    1  A    between atoms: C_2  and  N_3 
REMARK    2  A    between atoms: N_7  and  C_8 
REMARK    3  A    between atoms: C_8  and  C_9 
REMARK    4  A    between atoms: C_9  and  N_10 
REMARK    5  A    between atoms: N_10  and  C_11 
REMARK    6  A    between atoms: C_13  and  C_14 
REMARK    7  A    between atoms: C_14  and  N_15 
REMARK    8  A    between atoms: C_23  and  C_24 
REMARK    9  A    between atoms: C_24  and  O_25 
REMARK   10  A    between atoms: O_25  and  C_26 
ROOT
HETATM    1  C   UNL     1       5.870  27.298  53.672  1.00  0.00     0.139 A 
HETATM    2  N   UNL     1       5.071  28.190  54.312  1.00  0.00    -0.214 NA
HETATM    3  C   UNL     1       4.832  28.046  55.625  1.00  0.00     0.155 A 
HETATM    4  N   UNL     1       5.304  27.075  56.415  1.00  0.00    -0.224 NA
HETATM    5  C   UNL     1       6.069  26.190  55.756  1.00  0.00     0.115 A 
HETATM    6  C   UNL     1       6.401  26.213  54.413  1.00  0.00     0.053 A 
HETATM    7  S   UNL     1       6.734  24.881  56.593  1.00  0.00    -0.063 SA
HETATM    8  C   UNL     1       7.455  24.235  55.180  1.00  0.00     0.089 A 
HETATM    9  C   UNL     1       7.201  25.041  54.066  1.00  0.00    -0.022 A 
HETATM   10  C   UNL     1       7.662  24.730  52.671  1.00  0.00     0.051 C 
ENDROOT
BRANCH   1  11
HETATM   11  N   UNL     1       6.113  27.465  52.316  1.00  0.00    -0.372 N 
HETATM   12  H   UNL     1       7.093  27.575  52.072  1.00  0.00     0.161 HD
BRANCH  11  13
HETATM   13  C   UNL     1       5.167  28.238  51.528  1.00  0.00     0.156 C 
BRANCH  13  14
HETATM   14  C   UNL     1       4.593  27.407  50.329  1.00  0.00     0.236 C 
HETATM   15  C   UNL     1       5.044  25.941  50.494  1.00  0.00     0.044 C 
BRANCH  14  16
HETATM   16  N   UNL     1       4.938  27.979  48.989  1.00  0.00     0.097 N 
HETATM   17  C   UNL     1       4.081  29.129  48.612  1.00  0.00     0.300 C 
HETATM   18  C   UNL     1       2.615  28.775  48.267  1.00  0.00     0.265 C 
HETATM   19  N   UNL     1       2.545  27.694  47.197  1.00  0.00    -0.068 N 
HETATM   20  H   UNL     1       2.903  28.110  46.326  1.00  0.00     0.280 HD
HETATM   21  C   UNL     1       3.464  26.514  47.515  1.00  0.00     0.265 C 
HETATM   22  C   UNL     1       4.882  27.003  47.873  1.00  0.00     0.300 C 
BRANCH  19  23
HETATM   23  C   UNL     1       1.136  27.204  46.923  1.00  0.00     0.230 C 
HETATM   24  C   UNL     1       0.259  28.310  46.369  1.00  0.00     0.034 C 
ENDBRANCH  19  23
ENDBRANCH  14  16
ENDBRANCH  13  14
ENDBRANCH  11  13
ENDBRANCH   1  11
BRANCH   3  25
HETATM   25  C   UNL     1       3.932  29.065  56.306  1.00  0.00     0.314 C 
BRANCH  25  26
HETATM   26  N   UNL     1       4.514  29.645  57.597  1.00  0.00    -0.072 N 
HETATM   27  H   UNL     1       4.589  28.828  58.227  1.00  0.00     0.279 HD
HETATM   28  C   UNL     1       5.913  30.159  57.423  1.00  0.00     0.269 C 
HETATM   29  C   UNL     1       3.611  30.648  58.239  1.00  0.00     0.269 C 
ENDBRANCH  25  26
ENDBRANCH   3  25
BRANCH   8  30
HETATM   30  C   UNL     1       8.221  22.991  55.246  1.00  0.00     0.300 C 
HETATM   31  O   UNL     1       9.439  22.926  55.361  1.00  0.00    -0.259 OA
BRANCH  30  32
HETATM   32  O   UNL     1       7.405  21.902  55.132  1.00  0.00    -0.317 OA
BRANCH  32  33
HETATM   33  C   UNL     1       7.999  20.704  54.610  1.00  0.00     0.174 C 
HETATM   34  C   UNL     1       7.905  20.703  53.096  1.00  0.00     0.034 C 
ENDBRANCH  32  33
ENDBRANCH  30  32
ENDBRANCH   8  30
TORSDOF 10
ENDMDL
MODEL 3
REMARK VINA RESULT:      -7.7      2.235      6.757
REMARK  10 active torsions:
REMARK  status: ('A' for Active; 'I' for Inactive)
REMARK    1  A    between atoms: C_2  and  N_3 
REMARK    2  A    between atoms: N_7  and  C_8 
REMARK    3  A    between atoms: C_8  and  C_9 
REMARK    4  A    between atoms: C_9  and  N_10 
REMARK    5  A    between atoms: N_10  and  C_11 
REMARK    6  A    between atoms: C_13  and  C_14 
REMARK    7  A    between atoms: C_14  and  N_15 
REMARK    8  A    between atoms: C_23  and  C_24 
REMARK    9  A    between atoms: C_24  and  O_25 
REMARK   10  A    between atoms: O_25  and  C_26 
ROOT
HETATM    1  C   UNL     1       5.306  26.808  54.380  1.00  0.00     0.139 A 
HETATM    2  N   UNL     1       5.031  27.525  53.260  1.00  0.00    -0.214 NA
HETATM    3  C   UNL     1       5.494  27.107  52.071  1.00  0.00     0.155 A 
HETATM    4  N   UNL     1       6.238  26.018  51.849  1.00  0.00    -0.224 NA
HETATM    5  C   UNL     1       6.520  25.339  52.973  1.00  0.00     0.115 A 
HETATM    6  C   UNL     1       6.111  25.648  54.259  1.00  0.00     0.053 A 
HETATM    7  S   UNL     1       7.470  23.944  52.886  1.00  0.00    -0.063 SA
HETATM    8  C   UNL     1       7.438  23.714  54.583  1.00  0.00     0.089 A 
HETATM    9  C   UNL     1       6.676  24.701  55.216  1.00  0.00    -0.022 A 
HETATM   10  C   UNL     1       6.484  24.802  56.701  1.00  0.00     0.051 C 
ENDROOT
BRANCH   1  11
HETATM   11  N   UNL     1       4.813  27.251  55.599  1.00  0.00    -0.372 N 
HETATM   12  H   UNL     1       4.511  26.512  56.228  1.00  0.00     0.161 HD
BRANCH  11  13
HETATM   13  C   UNL     1       4.033  28.478  55.633  1.00  0.00     0.156 C 
BRANCH  13  14
HETATM   14  C   UNL     1       4.581  29.485  56.702  1.00  0.00     0.236 C 
HETATM   15  C   UNL     1       3.389  30.265  57.293  1.00  0.00     0.044 C 
BRANCH  14  16
HETATM   16  N   UNL     1       5.664  30.378  56.178  1.00  0.00     0.097 N 
HETATM   17  C   UNL     1       7.010  29.761  56.251  1.00  0.00     0.300 C 
HETATM   18  C   UNL     1       7.593  29.616  57.677  1.00  0.00     0.265 C 
HETATM   19  N   UNL     1       7.583  30.946  58.416  1.00  0.00    -0.068 N 
HETATM   20  H   UNL     1       8.262  31.559  57.941  1.00  0.00     0.280 HD
HETATM   21  C   UNL     1       6.229  31.649  58.312  1.00  0.00     0.265 C 
HETATM   22  C   UNL     1       5.747  31.699  56.848  1.00  0.00     0.300 C 
BRANCH  19  23
HETATM   23  C   UNL     1       8.009  30.837  59.867  1.00  0.00     0.230 C 
HETATM   24  C   UNL     1       8.916  31.984  60.271  1.00  0.00     0.034 C 
ENDBRANCH  19  23
ENDBRANCH  14  16
ENDBRANCH  13  14
ENDBRANCH  11  13
ENDBRANCH   1  11
BRANCH   3  25
HETATM   25  C   UNL     1       5.165  27.937  50.841  1.00  0.00     0.314 C 
BRANCH  25  26
HETATM   26  N   UNL     1       3.835  27.569  50.178  1.00  0.00    -0.072 N 
HETATM   27  H   UNL     1       3.360  26.980  50.883  1.00  0.00     0.279 HD
HETATM   28  C   UNL     1       2.944  28.757  49.965  1.00  0.00     0.269 C 
HETATM   29  C   UNL     1       4.014  26.757  48.936  1.00  0.00     0.269 C 
ENDBRANCH  25  26
ENDBRANCH   3  25
BRANCH   8  30
HETATM   30  C   UNL     1       8.153  22.589  55.187  1.00  0.00     0.300 C 
HETATM   31  O   UNL     1       9.176  22.689  55.854  1.00  0.00    -0.259 OA
BRANCH  30  32
HETATM   32  O   UNL     1       7.549  21.403  54.887  1.00  0.00    -0.317 OA
BRANCH  32  33
HETATM   33  C   UNL     1       8.396  20.357  54.388  1.00  0.00     0.174 C 
HETATM   34  C   UNL     1       8.385  20.370  52.871  1.00  0.00     0.034 C 
ENDBRANCH  32  33
ENDBRANCH  30  32
ENDBRANCH   8  30
TORSDOF 10
ENDMDL
MODEL 4
REMARK VINA RESULT:      -7.4      4.258      8.093
REMARK  10 active torsions:
REMARK  status: ('A' for Active; 'I' for Inactive)
REMARK    1  A    between atoms: C_2  and  N_3 
REMARK    2  A    between atoms: N_7  and  C_8 
REMARK    3  A    between atoms: C_8  and  C_9 
REMARK    4  A    between atoms: C_9  and  N_10 
REMARK    5  A    between atoms: N_10  and  C_11 
REMARK    6  A    between atoms: C_13  and  C_14 
REMARK    7  A    between atoms: C_14  and  N_15 
REMARK    8  A    between atoms: C_23  and  C_24 
REMARK    9  A    between atoms: C_24  and  O_25 
REMARK   10  A    between atoms: O_25  and  C_26 
ROOT
HETATM    1  C   UNL     1       4.342  28.059  52.733  1.00  0.00     0.139 A 
HETATM    2  N   UNL     1       4.175  29.206  53.441  1.00  0.00    -0.214 NA
HETATM    3  C   UNL     1       3.944  30.359  52.794  1.00  0.00     0.155 A 
HETATM    4  N   UNL     1       3.863  30.522  51.469  1.00  0.00    -0.224 NA
HETATM    5  C   UNL     1       4.057  29.381  50.789  1.00  0.00     0.115 A 
HETATM    6  C   UNL     1       4.301  28.125  51.318  1.00  0.00     0.053 A 
HETATM    7  S   UNL     1       4.012  29.402  49.099  1.00  0.00    -0.063 SA
HETATM    8  C   UNL     1       4.382  27.733  48.984  1.00  0.00     0.089 A 
HETATM    9  C   UNL     1       4.519  27.154  50.250  1.00  0.00    -0.022 A 
HETATM   10  C   UNL     1       4.881  25.717  50.490  1.00  0.00     0.051 C 
ENDROOT
BRANCH   1  11
HETATM   11  N   UNL     1       4.573  26.875  53.418  1.00  0.00    -0.372 N 
HETATM   12  H   UNL     1       3.815  26.200  53.366  1.00  0.00     0.161 HD
BRANCH  11  13
HETATM   13  C   UNL     1       5.297  26.927  54.678  1.00  0.00     0.156 C 
BRANCH  13  14
HETATM   14  C   UNL     1       5.889  25.528  55.066  1.00  0.00     0.236 C 
HETATM   15  C   UNL     1       5.418  25.178  56.492  1.00  0.00     0.044 C 
BRANCH  14  16
HETATM   16  N   UNL     1       7.376  25.445  54.903  1.00  0.00     0.097 N 
HETATM   17  C   UNL     1       7.785  24.971  53.559  1.00  0.00     0.300 C 
HETATM   18  C   UNL     1       7.505  23.476  53.272  1.00  0.00     0.265 C 
HETATM   19  N   UNL     1       8.106  22.585  54.350  1.00  0.00    -0.068 N 
HETATM   20  H   UNL     1       9.130  22.658  54.265  1.00  0.00     0.280 HD
HETATM   21  C   UNL     1       7.761  23.076  55.757  1.00  0.00     0.265 C 
HETATM   22  C   UNL     1       8.055  24.583  55.901  1.00  0.00     0.300 C 
BRANCH  19  23
HETATM   23  C   UNL     1       7.741  21.121  54.200  1.00  0.00     0.230 C 
HETATM   24  C   UNL     1       8.207  20.564  52.868  1.00  0.00     0.034 C 
ENDBRANCH  19  23
ENDBRANCH  14  16
ENDBRANCH  13  14
ENDBRANCH  11  13
ENDBRANCH   1  11
BRANCH   3  25
HETATM   25  C   UNL     1       3.762  31.622  53.621  1.00  0.00     0.314 C 
BRANCH  25  26
HETATM   26  N   UNL     1       2.486  31.634  54.467  1.00  0.00    -0.072 N 
HETATM   27  H   UNL     1       1.923  30.857  54.080  1.00  0.00     0.279 HD
HETATM   28  C   UNL     1       2.739  31.284  55.904  1.00  0.00     0.269 C 
HETATM   29  C   UNL     1       1.704  32.898  54.314  1.00  0.00     0.269 C 
ENDBRANCH  25  26
ENDBRANCH   3  25
BRANCH   8  30
HETATM   30  C   UNL     1       4.512  27.096  47.674  1.00  0.00     0.300 C 
HETATM   31  O   UNL     1       5.552  26.631  47.223  1.00  0.00    -0.259 OA
BRANCH  30  32
HETATM   32  O   UNL     1       3.327  27.113  46.997  1.00  0.00    -0.317 OA
BRANCH  32  33
HETATM   33  C   UNL     1       2.281  26.273  47.508  1.00  0.00     0.174 C 
HETATM   34  C   UNL     1       1.029  27.098  47.738  1.00  0.00     0.034 C 
ENDBRANCH  32  33
ENDBRANCH  30  32
ENDBRANCH   8  30
TORSDOF 10
ENDMDL
MODEL 5
REMARK VINA RESULT:      -7.3      3.383      6.540
REMARK  10 active torsions:
REMARK  status: ('A' for Active; 'I' for Inactive)
REMARK    1  A    between atoms: C_2  and  N_3 
REMARK    2  A    between atoms: N_7  and  C_8 
REMARK    3  A    between atoms: C_8  and  C_9 
REMARK    4  A    between atoms: C_9  and  N_10 
REMARK    5  A    between atoms: N_10  and  C_11 
REMARK    6  A    between atoms: C_13  and  C_14 
REMARK    7  A    between atoms: C_14  and  N_15 
REMARK    8  A    between atoms: C_23  and  C_24 
REMARK    9  A    between atoms: C_24  and  O_25 
REMARK   10  A    between atoms: O_25  and  C_26 
ROOT
HETATM    1  C   UNL     1       5.102  27.041  53.605  1.00  0.00     0.139 A 
HETATM    2  N   UNL     1       4.811  27.616  52.409  1.00  0.00    -0.214 NA
HETATM    3  C   UNL     1       5.327  27.105  51.281  1.00  0.00     0.155 A 
HETATM    4  N   UNL     1       6.143  26.048  51.191  1.00  0.00    -0.224 NA
HETATM    5  C   UNL     1       6.439  25.513  52.386  1.00  0.00     0.115 A 
HETATM    6  C   UNL     1       5.980  25.930  53.624  1.00  0.00     0.053 A 
HETATM    7  S   UNL     1       7.476  24.181  52.466  1.00  0.00    -0.063 SA
HETATM    8  C   UNL     1       7.418  24.131  54.178  1.00  0.00     0.089 A 
HETATM    9  C   UNL     1       6.580  25.128  54.687  1.00  0.00    -0.022 A 
HETATM   10  C   UNL     1       6.346  25.373  56.149  1.00  0.00     0.051 C 
ENDROOT
BRANCH   1  11
HETATM   11  N   UNL     1       4.553  27.579  54.760  1.00  0.00    -0.372 N 
HETATM   12  H   UNL     1       3.919  26.958  55.257  1.00  0.00     0.161 HD
BRANCH  11  13
HETATM   13  C   UNL     1       4.208  28.991  54.778  1.00  0.00     0.156 C 
BRANCH  13  14
HETATM   14  C   UNL     1       4.480  29.637  56.180  1.00  0.00     0.236 C 
HETATM   15  C   UNL     1       5.173  28.589  57.074  1.00  0.00     0.044 C 
BRANCH  14  16
HETATM   16  N   UNL     1       3.257  30.228  56.811  1.00  0.00     0.097 N 
HETATM   17  C   UNL     1       2.675  31.337  56.017  1.00  0.00     0.300 C 
HETATM   18  C   UNL     1       3.501  32.646  56.004  1.00  0.00     0.265 C 
HETATM   19  N   UNL     1       3.811  33.117  57.418  1.00  0.00    -0.068 N 
HETATM   20  H   UNL     1       2.917  33.402  57.843  1.00  0.00     0.280 HD
HETATM   21  C   UNL     1       4.356  31.986  58.292  1.00  0.00     0.265 C 
HETATM   22  C   UNL     1       3.462  30.734  58.190  1.00  0.00     0.300 C 
BRANCH  19  23
HETATM   23  C   UNL     1       4.740  34.314  57.468  1.00  0.00     0.230 C 
HETATM   24  C   UNL     1       4.605  35.176  56.227  1.00  0.00     0.034 C 
ENDBRANCH  19  23
ENDBRANCH  14  16
ENDBRANCH  13  14
ENDBRANCH  11  13
ENDBRANCH   1  11
BRANCH   3  25
HETATM   25  C   UNL     1       4.978  27.776  49.963  1.00  0.00     0.314 C 
BRANCH  25  26
HETATM   26  N   UNL     1       5.029  26.839  48.754  1.00  0.00    -0.072 N 
HETATM   27  H   UNL     1       5.756  26.148  49.005  1.00  0.00     0.279 HD
HETATM   28  C   UNL     1       3.762  26.056  48.572  1.00  0.00     0.269 C 
HETATM   29  C   UNL     1       5.457  27.534  47.502  1.00  0.00     0.269 C 
ENDBRANCH  25  26
ENDBRANCH   3  25
BRANCH   8  30
HETATM   30  C   UNL     1       8.186  23.125  54.912  1.00  0.00     0.300 C 
HETATM   31  O   UNL     1       9.190  23.360  55.574  1.00  0.00    -0.259 OA
BRANCH  30  32
HETATM   32  O   UNL     1       7.658  21.879  54.740  1.00  0.00    -0.317 OA
BRANCH  32  33
HETATM   33  C   UNL     1       8.563  20.848  54.318  1.00  0.00     0.174 C 
HETATM   34  C   UNL     1       8.264  20.461  52.882  1.00  0.00     0.034 C 
ENDBRANCH  32  33
ENDBRANCH  30  32
ENDBRANCH   8  30
TORSDOF 10
ENDMDL
MODEL 6
REMARK VINA RESULT:      -7.2      4.658      7.675
REMARK  10 active torsions:
REMARK  status: ('A' for Active; 'I' for Inactive)
REMARK    1  A    between atoms: C_2  and  N_3 
REMARK    2  A    between atoms: N_7  and  C_8 
REMARK    3  A    between atoms: C_8  and  C_9 
REMARK    4  A    between atoms: C_9  and  N_10 
REMARK    5  A    between atoms: N_10  and  C_11 
REMARK    6  A    between atoms: C_13  and  C_14 
REMARK    7  A    between atoms: C_14  and  N_15 
REMARK    8  A    between atoms: C_23  and  C_24 
REMARK    9  A    between atoms: C_24  and  O_25 
REMARK   10  A    between atoms: O_25  and  C_26 
ROOT
HETATM    1  C   UNL     1       6.536  29.256  57.528  1.00  0.00     0.139 A 
HETATM    2  N   UNL     1       7.518  29.589  58.405  1.00  0.00    -0.214 NA
HETATM    3  C   UNL     1       7.591  30.842  58.879  1.00  0.00     0.155 A 
HETATM    4  N   UNL     1       6.774  31.856  58.568  1.00  0.00    -0.224 NA
HETATM    5  C   UNL     1       5.828  31.511  57.680  1.00  0.00     0.115 A 
HETATM    6  C   UNL     1       5.632  30.264  57.111  1.00  0.00     0.053 A 
HETATM    7  S   UNL     1       4.719  32.673  57.155  1.00  0.00    -0.063 SA
HETATM    8  C   UNL     1       3.952  31.579  56.082  1.00  0.00     0.089 A 
HETATM    9  C   UNL     1       4.537  30.311  56.146  1.00  0.00    -0.022 A 
HETATM   10  C   UNL     1       4.119  29.141  55.303  1.00  0.00     0.051 C 
ENDROOT
BRANCH   1  11
HETATM   11  N   UNL     1       6.471  27.954  57.054  1.00  0.00    -0.372 N 
HETATM   12  H   UNL     1       5.871  27.335  57.593  1.00  0.00     0.161 HD
BRANCH  11  13
HETATM   13  C   UNL     1       7.673  27.353  56.497  1.00  0.00     0.156 C 
BRANCH  13  14
HETATM   14  C   UNL     1       7.387  26.647  55.127  1.00  0.00     0.236 C 
HETATM   15  C   UNL     1       7.215  27.733  54.045  1.00  0.00     0.044 C 
BRANCH  14  16
HETATM   16  N   UNL     1       6.240  25.686  55.180  1.00  0.00     0.097 N 
HETATM   17  C   UNL     1       6.536  24.472  55.978  1.00  0.00     0.300 C 
HETATM   18  C   UNL     1       7.544  23.489  55.334  1.00  0.00     0.265 C 
HETATM   19  N   UNL     1       7.114  23.101  53.926  1.00  0.00    -0.068 N 
HETATM   20  H   UNL     1       6.256  22.539  54.018  1.00  0.00     0.280 HD
HETATM   21  C   UNL     1       6.737  24.321  53.087  1.00  0.00     0.265 C 
HETATM   22  C   UNL     1       5.756  25.234  53.852  1.00  0.00     0.300 C 
BRANCH  19  23
HETATM   23  C   UNL     1       8.136  22.254  53.193  1.00  0.00     0.230 C 
HETATM   24  C   UNL     1       7.881  20.772  53.397  1.00  0.00     0.034 C 
ENDBRANCH  19  23
ENDBRANCH  14  16
ENDBRANCH  13  14
ENDBRANCH  11  13
ENDBRANCH   1  11
BRANCH   3  25
HETATM   25  C   UNL     1       8.705  31.175  59.859  1.00  0.00     0.314 C 
BRANCH  25  26
HETATM   26  N   UNL     1       8.364  30.863  61.318  1.00  0.00    -0.072 N 
HETATM   27  H   UNL     1       7.612  30.157  61.253  1.00  0.00     0.279 HD
HETATM   28  C   UNL     1       9.493  30.196  62.047  1.00  0.00     0.269 C 
HETATM   29  C   UNL     1       7.829  32.049  62.053  1.00  0.00     0.269 C 
ENDBRANCH  25  26
ENDBRANCH   3  25
BRANCH   8  30
HETATM   30  C   UNL     1       2.832  32.023  55.253  1.00  0.00     0.300 C 
HETATM   31  O   UNL     1       1.650  31.893  55.548  1.00  0.00    -0.259 OA
BRANCH  30  32
HETATM   32  O   UNL     1       3.271  32.578  54.086  1.00  0.00    -0.317 OA
BRANCH  32  33
HETATM   33  C   UNL     1       3.132  31.781  52.901  1.00  0.00     0.174 C 
HETATM   34  C   UNL     1       2.181  32.462  51.934  1.00  0.00     0.034 C 
ENDBRANCH  32  33
ENDBRANCH  30  32
ENDBRANCH   8  30
TORSDOF 10
ENDMDL
MODEL 7
REMARK VINA RESULT:      -7.1      4.225      8.547
REMARK  10 active torsions:
REMARK  status: ('A' for Active; 'I' for Inactive)
REMARK    1  A    between atoms: C_2  and  N_3 
REMARK    2  A    between atoms: N_7  and  C_8 
REMARK    3  A    between atoms: C_8  and  C_9 
REMARK    4  A    between atoms: C_9  and  N_10 
REMARK    5  A    between atoms: N_10  and  C_11 
REMARK    6  A    between atoms: C_13  and  C_14 
REMARK    7  A    between atoms: C_14  and  N_15 
REMARK    8  A    between atoms: C_23  and  C_24 
REMARK    9  A    between atoms: C_24  and  O_25 
REMARK   10  A    between atoms: O_25  and  C_26 
ROOT
HETATM    1  C   UNL     1       4.245  28.280  54.325  1.00  0.00     0.139 A 
HETATM    2  N   UNL     1       3.829  28.160  53.038  1.00  0.00    -0.214 NA
HETATM    3  C   UNL     1       3.512  29.258  52.335  1.00  0.00     0.155 A 
HETATM    4  N   UNL     1       3.552  30.521  52.776  1.00  0.00    -0.224 NA
HETATM    5  C   UNL     1       3.940  30.614  54.058  1.00  0.00     0.115 A 
HETATM    6  C   UNL     1       4.298  29.574  54.900  1.00  0.00     0.053 A 
HETATM    7  S   UNL     1       4.028  32.134  54.791  1.00  0.00    -0.063 SA
HETATM    8  C   UNL     1       4.490  31.473  56.303  1.00  0.00     0.089 A 
HETATM    9  C   UNL     1       4.599  30.080  56.236  1.00  0.00    -0.022 A 
HETATM   10  C   UNL     1       4.948  29.200  57.401  1.00  0.00     0.051 C 
ENDROOT
BRANCH   1  11
HETATM   11  N   UNL     1       4.575  27.135  55.034  1.00  0.00    -0.372 N 
HETATM   12  H   UNL     1       4.787  27.291  56.016  1.00  0.00     0.161 HD
BRANCH  11  13
HETATM   13  C   UNL     1       5.352  26.101  54.369  1.00  0.00     0.156 C 
BRANCH  13  14
HETATM   14  C   UNL     1       6.004  25.113  55.397  1.00  0.00     0.236 C 
HETATM   15  C   UNL     1       5.524  25.495  56.812  1.00  0.00     0.044 C 
BRANCH  14  16
HETATM   16  N   UNL     1       7.495  25.036  55.285  1.00  0.00     0.097 N 
HETATM   17  C   UNL     1       7.957  24.696  53.917  1.00  0.00     0.300 C 
HETATM   18  C   UNL     1       7.684  23.240  53.470  1.00  0.00     0.265 C 
HETATM   19  N   UNL     1       8.238  22.241  54.476  1.00  0.00    -0.068 N 
HETATM   20  H   UNL     1       9.264  22.314  54.438  1.00  0.00     0.280 HD
HETATM   21  C   UNL     1       7.838  22.590  55.909  1.00  0.00     0.265 C 
HETATM   22  C   UNL     1       8.131  24.073  56.217  1.00  0.00     0.300 C 
BRANCH  19  23
HETATM   23  C   UNL     1       7.874  20.802  54.164  1.00  0.00     0.230 C 
HETATM   24  C   UNL     1       8.365  20.388  52.790  1.00  0.00     0.034 C 
ENDBRANCH  19  23
ENDBRANCH  14  16
ENDBRANCH  13  14
ENDBRANCH  11  13
ENDBRANCH   1  11
BRANCH   3  25
HETATM   25  C   UNL     1       3.051  29.082  50.897  1.00  0.00     0.314 C 
BRANCH  25  26
HETATM   26  N   UNL     1       4.180  28.763  49.915  1.00  0.00    -0.072 N 
HETATM   27  H   UNL     1       3.824  29.103  49.005  1.00  0.00     0.279 HD
HETATM   28  C   UNL     1       5.427  29.552  50.189  1.00  0.00     0.269 C 
HETATM   29  C   UNL     1       4.445  27.298  49.794  1.00  0.00     0.269 C 
ENDBRANCH  25  26
ENDBRANCH   3  25
BRANCH   8  30
HETATM   30  C   UNL     1       4.720  32.349  57.451  1.00  0.00     0.300 C 
HETATM   31  O   UNL     1       3.841  32.952  58.056  1.00  0.00    -0.259 OA
BRANCH  30  32
HETATM   32  O   UNL     1       6.049  32.436  57.747  1.00  0.00    -0.317 OA
BRANCH  32  33
HETATM   33  C   UNL     1       6.440  32.058  59.076  1.00  0.00     0.174 C 
HETATM   34  C   UNL     1       7.831  31.453  59.047  1.00  0.00     0.034 C 
ENDBRANCH  32  33
ENDBRANCH  30  32
ENDBRANCH   8  30
TORSDOF 10
ENDMDL
MODEL 8
REMARK VINA RESULT:      -6.9      2.683      5.376
REMARK  10 active torsions:
REMARK  status: ('A' for Active; 'I' for Inactive)
REMARK    1  A    between atoms: C_2  and  N_3 
REMARK    2  A    between atoms: N_7  and  C_8 
REMARK    3  A    between atoms: C_8  and  C_9 
REMARK    4  A    between atoms: C_9  and  N_10 
REMARK    5  A    between atoms: N_10  and  C_11 
REMARK    6  A    between atoms: C_13  and  C_14 
REMARK    7  A    between atoms: C_14  and  N_15 
REMARK    8  A    between atoms: C_23  and  C_24 
REMARK    9  A    between atoms: C_24  and  O_25 
REMARK   10  A    between atoms: O_25  and  C_26 
ROOT
HETATM    1  C   UNL     1       6.756  25.308  54.222  1.00  0.00     0.139 A 
HETATM    2  N   UNL     1       6.870  23.955  54.200  1.00  0.00    -0.214 NA
HETATM    3  C   UNL     1       7.257  23.301  55.306  1.00  0.00     0.155 A 
HETATM    4  N   UNL     1       7.568  23.852  56.484  1.00  0.00    -0.224 NA
HETATM    5  C   UNL     1       7.475  25.191  56.476  1.00  0.00     0.115 A 
HETATM    6  C   UNL     1       7.089  25.994  55.417  1.00  0.00     0.053 A 
HETATM    7  S   UNL     1       7.853  26.059  57.876  1.00  0.00    -0.063 SA
HETATM    8  C   UNL     1       7.580  27.570  57.116  1.00  0.00     0.089 A 
HETATM    9  C   UNL     1       7.176  27.404  55.787  1.00  0.00    -0.022 A 
HETATM   10  C   UNL     1       6.895  28.534  54.839  1.00  0.00     0.051 C 
ENDROOT
BRANCH   1  11
HETATM   11  N   UNL     1       6.348  25.968  53.072  1.00  0.00    -0.372 N 
HETATM   12  H   UNL     1       7.033  26.612  52.687  1.00  0.00     0.161 HD
BRANCH  11  13
HETATM   13  C   UNL     1       4.956  26.370  52.955  1.00  0.00     0.156 C 
BRANCH  13  14
HETATM   14  C   UNL     1       4.644  26.981  51.545  1.00  0.00     0.236 C 
HETATM   15  C   UNL     1       5.565  26.306  50.508  1.00  0.00     0.044 C 
BRANCH  14  16
HETATM   16  N   UNL     1       4.724  28.476  51.514  1.00  0.00     0.097 N 
HETATM   17  C   UNL     1       3.413  29.131  51.743  1.00  0.00     0.300 C 
HETATM   18  C   UNL     1       2.395  28.996  50.585  1.00  0.00     0.265 C 
HETATM   19  N   UNL     1       2.994  29.466  49.267  1.00  0.00    -0.068 N 
HETATM   20  H   UNL     1       3.134  30.483  49.346  1.00  0.00     0.280 HD
HETATM   21  C   UNL     1       4.377  28.863  49.019  1.00  0.00     0.265 C 
HETATM   22  C   UNL     1       5.281  29.035  50.258  1.00  0.00     0.300 C 
BRANCH  19  23
HETATM   23  C   UNL     1       2.093  29.223  48.072  1.00  0.00     0.230 C 
HETATM   24  C   UNL     1       1.276  27.956  48.238  1.00  0.00     0.034 C 
ENDBRANCH  19  23
ENDBRANCH  14  16
ENDBRANCH  13  14
ENDBRANCH  11  13
ENDBRANCH   1  11
BRANCH   3  25
HETATM   25  C   UNL     1       7.372  21.786  55.240  1.00  0.00     0.314 C 
BRANCH  25  26
HETATM   26  N   UNL     1       8.759  21.284  54.832  1.00  0.00    -0.072 N 
HETATM   27  H   UNL     1       9.319  22.148  54.736  1.00  0.00     0.279 HD
HETATM   28  C   UNL     1       9.425  20.479  55.909  1.00  0.00     0.269 C 
HETATM   29  C   UNL     1       8.754  20.582  53.513  1.00  0.00     0.269 C 
ENDBRANCH  25  26
ENDBRANCH   3  25
BRANCH   8  30
HETATM   30  C   UNL     1       7.773  28.815  57.859  1.00  0.00     0.300 C 
HETATM   31  O   UNL     1       6.880  29.604  58.143  1.00  0.00    -0.259 OA
BRANCH  30  32
HETATM   32  O   UNL     1       9.088  29.004  58.172  1.00  0.00    -0.317 OA
BRANCH  32  33
HETATM   33  C   UNL     1       9.734  30.141  57.580  1.00  0.00     0.174 C 
HETATM   34  C   UNL     1      10.582  29.693  56.404  1.00  0.00     0.034 C 
ENDBRANCH  32  33
ENDBRANCH  30  32
ENDBRANCH   8  30
TORSDOF 10
ENDMDL
MODEL 9
REMARK VINA RESULT:      -6.7      3.145      5.822
REMARK  10 active torsions:
REMARK  status: ('A' for Active; 'I' for Inactive)
REMARK    1  A    between atoms: C_2  and  N_3 
REMARK    2  A    between atoms: N_7  and  C_8 
REMARK    3  A    between atoms: C_8  and  C_9 
REMARK    4  A    between atoms: C_9  and  N_10 
REMARK    5  A    between atoms: N_10  and  C_11 
REMARK    6  A    between atoms: C_13  and  C_14 
REMARK    7  A    between atoms: C_14  and  N_15 
REMARK    8  A    between atoms: C_23  and  C_24 
REMARK    9  A    between atoms: C_24  and  O_25 
REMARK   10  A    between atoms: O_25  and  C_26 
ROOT
HETATM    1  C   UNL     1       6.251  25.473  53.645  1.00  0.00     0.139 A 
HETATM    2  N   UNL     1       6.969  24.322  53.581  1.00  0.00    -0.214 NA
HETATM    3  C   UNL     1       7.771  23.980  54.601  1.00  0.00     0.155 A 
HETATM    4  N   UNL     1       7.964  24.678  55.726  1.00  0.00    -0.224 NA
HETATM    5  C   UNL     1       7.266  25.824  55.756  1.00  0.00     0.115 A 
HETATM    6  C   UNL     1       6.403  26.301  54.784  1.00  0.00     0.053 A 
HETATM    7  S   UNL     1       7.404  26.847  57.095  1.00  0.00    -0.063 SA
HETATM    8  C   UNL     1       6.359  28.021  56.413  1.00  0.00     0.089 A 
HETATM    9  C   UNL     1       5.885  27.614  55.162  1.00  0.00    -0.022 A 
HETATM   10  C   UNL     1       4.981  28.436  54.289  1.00  0.00     0.051 C 
ENDROOT
BRANCH   1  11
HETATM   11  N   UNL     1       5.420  25.807  52.585  1.00  0.00    -0.372 N 
HETATM   12  H   UNL     1       4.616  25.197  52.467  1.00  0.00     0.161 HD
BRANCH  11  13
HETATM   13  C   UNL     1       6.020  26.317  51.362  1.00  0.00     0.156 C 
BRANCH  13  14
HETATM   14  C   UNL     1       4.979  27.092  50.484  1.00  0.00     0.236 C 
HETATM   15  C   UNL     1       4.346  26.100  49.487  1.00  0.00     0.044 C 
BRANCH  14  16
HETATM   16  N   UNL     1       5.548  28.308  49.819  1.00  0.00     0.097 N 
HETATM   17  C   UNL     1       5.622  29.481  50.722  1.00  0.00     0.300 C 
HETATM   18  C   UNL     1       4.261  30.119  51.090  1.00  0.00     0.265 C 
HETATM   19  N   UNL     1       3.458  30.464  49.844  1.00  0.00    -0.068 N 
HETATM   20  H   UNL     1       3.959  31.227  49.366  1.00  0.00     0.280 HD
HETATM   21  C   UNL     1       3.410  29.300  48.854  1.00  0.00     0.265 C 
HETATM   22  C   UNL     1       4.822  28.736  48.598  1.00  0.00     0.300 C 
BRANCH  19  23
HETATM   23  C   UNL     1       2.057  30.958  50.144  1.00  0.00     0.230 C 
HETATM   24  C   UNL     1       1.047  29.827  50.108  1.00  0.00     0.034 C 
ENDBRANCH  19  23
ENDBRANCH  14  16
ENDBRANCH  13  14
ENDBRANCH  11  13
ENDBRANCH   1  11
BRANCH   3  25
HETATM   25  C   UNL     1       8.558  22.684  54.491  1.00  0.00     0.314 C 
BRANCH  25  26
HETATM   26  N   UNL     1       7.684  21.429  54.424  1.00  0.00    -0.072 N 
HETATM   27  H   UNL     1       6.720  21.799  54.362  1.00  0.00     0.279 HD
HETATM   28  C   UNL     1       7.902  20.636  53.169  1.00  0.00     0.269 C 
HETATM   29  C   UNL     1       7.784  20.589  55.656  1.00  0.00     0.269 C 
ENDBRANCH  25  26
ENDBRANCH   3  25
BRANCH   8  30
HETATM   30  C   UNL     1       6.066  29.256  57.139  1.00  0.00     0.300 C 
HETATM   31  O   UNL     1       6.860  30.174  57.305  1.00  0.00    -0.259 OA
BRANCH  30  32
HETATM   32  O   UNL     1       4.796  29.245  57.639  1.00  0.00    -0.317 OA
BRANCH  32  33
HETATM   33  C   UNL     1       4.151  30.519  57.792  1.00  0.00     0.174 C 
HETATM   34  C   UNL     1       3.139  30.717  56.679  1.00  0.00     0.034 C 
ENDBRANCH  32  33
ENDBRANCH  30  32
ENDBRANCH   8  30
TORSDOF 10
ENDMDL
MODEL 10
REMARK VINA RESULT:      -6.6      2.619      3.765
REMARK  10 active torsions:
REMARK  status: ('A' for Active; 'I' for Inactive)
REMARK    1  A    between atoms: C_2  and  N_3 
REMARK    2  A    between atoms: N_7  and  C_8 
REMARK    3  A    between atoms: C_8  and  C_9 
REMARK    4  A    between atoms: C_9  and  N_10 
REMARK    5  A    between atoms: N_10  and  C_11 
REMARK    6  A    between atoms: C_13  and  C_14 
REMARK    7  A    between atoms: C_14  and  N_15 
REMARK    8  A    between atoms: C_23  and  C_24 
REMARK    9  A    between atoms: C_24  and  O_25 
REMARK   10  A    between atoms: O_25  and  C_26 
ROOT
HETATM    1  C   UNL     1       3.945  27.981  53.789  1.00  0.00     0.139 A 
HETATM    2  N   UNL     1       3.627  28.932  54.705  1.00  0.00    -0.214 NA
HETATM    3  C   UNL     1       4.304  28.996  55.862  1.00  0.00     0.155 A 
HETATM    4  N   UNL     1       5.299  28.187  56.243  1.00  0.00    -0.224 NA
HETATM    5  C   UNL     1       5.579  27.239  55.336  1.00  0.00     0.115 A 
HETATM    6  C   UNL     1       4.970  27.055  54.106  1.00  0.00     0.053 A 
HETATM    7  S   UNL     1       6.797  26.113  55.658  1.00  0.00    -0.063 SA
HETATM    8  C   UNL     1       6.529  25.274  54.189  1.00  0.00     0.089 A 
HETATM    9  C   UNL     1       5.515  25.876  53.438  1.00  0.00    -0.022 A 
HETATM   10  C   UNL     1       5.016  25.360  52.119  1.00  0.00     0.051 C 
ENDROOT
BRANCH   1  11
HETATM   11  N   UNL     1       3.240  27.935  52.596  1.00  0.00    -0.372 N 
HETATM   12  H   UNL     1       3.248  27.029  52.134  1.00  0.00     0.161 HD
BRANCH  11  13
HETATM   13  C   UNL     1       3.267  29.097  51.723  1.00  0.00     0.156 C 
BRANCH  13  14
HETATM   14  C   UNL     1       4.056  28.811  50.399  1.00  0.00     0.236 C 
HETATM   15  C   UNL     1       5.527  29.226  50.609  1.00  0.00     0.044 C 
BRANCH  14  16
HETATM   16  N   UNL     1       3.437  29.441  49.189  1.00  0.00     0.097 N 
HETATM   17  C   UNL     1       2.025  29.037  48.984  1.00  0.00     0.300 C 
HETATM   18  C   UNL     1       1.817  27.572  48.530  1.00  0.00     0.265 C 
HETATM   19  N   UNL     1       2.641  27.256  47.290  1.00  0.00    -0.068 N 
HETATM   20  H   UNL     1       2.242  27.805  46.516  1.00  0.00     0.280 HD
HETATM   21  C   UNL     1       4.092  27.715  47.434  1.00  0.00     0.265 C 
HETATM   22  C   UNL     1       4.160  29.177  47.922  1.00  0.00     0.300 C 
BRANCH  19  23
HETATM   23  C   UNL     1       2.589  25.795  46.884  1.00  0.00     0.230 C 
HETATM   24  C   UNL     1       3.056  24.888  48.007  1.00  0.00     0.034 C 
ENDBRANCH  19  23
ENDBRANCH  14  16
ENDBRANCH  13  14
ENDBRANCH  11  13
ENDBRANCH   1  11
BRANCH   3  25
HETATM   25  C   UNL     1       3.918  30.075  56.861  1.00  0.00     0.314 C 
BRANCH  25  26
HETATM   26  N   UNL     1       3.871  31.485  56.268  1.00  0.00    -0.072 N 
HETATM   27  H   UNL     1       3.120  31.432  55.558  1.00  0.00     0.279 HD
HETATM   28  C   UNL     1       3.425  32.518  57.261  1.00  0.00     0.269 C 
HETATM   29  C   UNL     1       5.141  31.864  55.578  1.00  0.00     0.269 C 
ENDBRANCH  25  26
ENDBRANCH   3  25
BRANCH   8  30
HETATM   30  C   UNL     1       7.323  24.090  53.861  1.00  0.00     0.300 C 
HETATM   31  O   UNL     1       7.046  23.285  52.979  1.00  0.00    -0.259 OA
BRANCH  30  32
HETATM   32  O   UNL     1       8.403  23.975  54.687  1.00  0.00    -0.317 OA
BRANCH  32  33
HETATM   33  C   UNL     1       8.446  22.818  55.535  1.00  0.00     0.174 C 
HETATM   34  C   UNL     1       9.369  21.776  54.932  1.00  0.00     0.034 C 
ENDBRANCH  32  33
ENDBRANCH  30  32
ENDBRANCH   8  30
TORSDOF 10
ENDMDL
