MODEL 1
REMARK VINA RESULT:     -10.0      0.000      0.000
REMARK  2 active torsions:
REMARK  status: ('A' for Active; 'I' for Inactive)
REMARK       I    between atoms: N_4  and  C_5 
REMARK       I    between atoms: C_5  and  N_6 
REMARK    1  A    between atoms: N_6  and  C_7 
REMARK    2  A    between atoms: C_20  and  C_21 
ROOT
HETATM    1  C   UNL     1       4.259  30.879  52.964  1.00  0.00     0.011 C 
HETATM    2  C   UNL     1       3.132  30.194  52.192  1.00  0.00     0.002 C 
HETATM    3  C   UNL     1       3.034  28.714  52.554  1.00  0.00     0.132 C 
HETATM    4  N   UNL     1       3.906  28.054  51.598  1.00  0.00    -0.325 N 
HETATM    5  C   UNL     1       4.809  27.038  51.853  1.00  0.00     0.323 C 
HETATM    6  N   UNL     1       4.576  26.368  53.034  1.00  0.00    -0.309 N 
HETATM    7  O   UNL     1       5.726  26.784  51.076  1.00  0.00    -0.247 OA
HETATM    8  C   UNL     1       3.967  28.806  50.349  1.00  0.00     0.125 C 
HETATM    9  C   UNL     1       3.398  30.200  50.680  1.00  0.00     0.036 C 
HETATM   10  H   UNL     1       3.622  26.398  53.355  1.00  0.00     0.170 HD
ENDROOT
BRANCH   6  11
HETATM   11  C   UNL     1       5.435  25.454  53.676  1.00  0.00     0.038 A 
HETATM   12  C   UNL     1       6.058  24.390  53.018  1.00  0.00     0.062 A 
HETATM   13  C   UNL     1       6.919  23.539  53.717  1.00  0.00     0.070 A 
HETATM   14  C   UNL     1       7.171  23.746  55.072  1.00  0.00     0.096 A 
HETATM   15  N   UNL     1       7.557  22.503  53.036  1.00  0.00    -0.323 N 
HETATM   16  O   UNL     1       8.025  22.978  55.814  1.00  0.00    -0.335 OA
HETATM   17  C   UNL     1       6.569  24.816  55.729  1.00  0.00     0.041 A 
HETATM   18  C   UNL     1       8.417  21.748  55.209  1.00  0.00     0.217 C 
HETATM   19  C   UNL     1       8.382  21.622  53.679  1.00  0.00     0.251 C 
HETATM   20  C   UNL     1       7.572  20.631  55.817  1.00  0.00     0.050 C 
HETATM   21  O   UNL     1       8.986  20.747  53.062  1.00  0.00    -0.270 OA
HETATM   22  C   UNL     1       5.705  25.667  55.034  1.00  0.00     0.032 A 
HETATM   23  H   UNL     1       7.452  22.394  52.036  1.00  0.00     0.169 HD
ENDBRANCH   6  11
BRANCH   8  24
HETATM   24  C   UNL     1       3.248  28.070  49.234  1.00  0.00     0.003 A 
HETATM   25  C   UNL     1       3.925  27.399  48.207  1.00  0.00     0.124 A 
HETATM   26  F   UNL     1       5.265  27.383  48.171  1.00  0.00    -0.205 F 
HETATM   27  C   UNL     1       3.240  26.740  47.186  1.00  0.00     0.043 A 
HETATM   28  C   UNL     1       1.849  26.761  47.159  1.00  0.00     0.003 A 
HETATM   29  C   UNL     1       1.151  27.447  48.152  1.00  0.00     0.001 A 
HETATM   30  C   UNL     1       1.844  28.097  49.178  1.00  0.00     0.012 A 
ENDBRANCH   8  24
TORSDOF 2
ENDMDL
MODEL 2
REMARK VINA RESULT:      -9.8      2.940      8.285
REMARK  2 active torsions:
REMARK  status: ('A' for Active; 'I' for Inactive)
REMARK       I    between atoms: N_4  and  C_5 
REMARK       I    between atoms: C_5  and  N_6 
REMARK    1  A    between atoms: N_6  and  C_7 
REMARK    2  A    between atoms: C_20  and  C_21 
ROOT
HETATM    1  C   UNL     1       6.962  26.735  57.398  1.00  0.00     0.011 C 
HETATM    2  C   UNL     1       7.999  25.800  56.776  1.00  0.00     0.002 C 
HETATM    3  C   UNL     1       8.047  25.959  55.258  1.00  0.00     0.132 C 
HETATM    4  N   UNL     1       7.080  24.994  54.766  1.00  0.00    -0.325 N 
HETATM    5  C   UNL     1       6.147  25.183  53.762  1.00  0.00     0.323 C 
HETATM    6  N   UNL     1       6.426  26.247  52.934  1.00  0.00    -0.309 N 
HETATM    7  O   UNL     1       5.167  24.450  53.651  1.00  0.00    -0.247 OA
HETATM    8  C   UNL     1       6.971  23.861  55.678  1.00  0.00     0.125 C 
HETATM    9  C   UNL     1       7.630  24.326  56.992  1.00  0.00     0.036 C 
HETATM   10  H   UNL     1       7.401  26.497  52.882  1.00  0.00     0.170 HD
ENDROOT
BRANCH   6  11
HETATM   11  C   UNL     1       5.569  26.828  51.978  1.00  0.00     0.038 A 
HETATM   12  C   UNL     1       5.334  26.273  50.717  1.00  0.00     0.062 A 
HETATM   13  C   UNL     1       4.448  26.894  49.831  1.00  0.00     0.070 A 
HETATM   14  C   UNL     1       3.787  28.065  50.197  1.00  0.00     0.096 A 
HETATM   15  N   UNL     1       4.201  26.308  48.590  1.00  0.00    -0.323 N 
HETATM   16  O   UNL     1       2.883  28.710  49.399  1.00  0.00    -0.335 OA
HETATM   17  C   UNL     1       4.002  28.612  51.459  1.00  0.00     0.041 A 
HETATM   18  C   UNL     1       2.876  28.299  48.034  1.00  0.00     0.217 C 
HETATM   19  C   UNL     1       3.371  26.891  47.673  1.00  0.00     0.251 C 
HETATM   20  C   UNL     1       3.670  29.324  47.227  1.00  0.00     0.050 C 
HETATM   21  O   UNL     1       3.111  26.340  46.606  1.00  0.00    -0.270 OA
HETATM   22  C   UNL     1       4.890  27.996  52.346  1.00  0.00     0.032 A 
HETATM   23  H   UNL     1       4.605  25.413  48.346  1.00  0.00     0.169 HD
ENDBRANCH   6  11
BRANCH   8  24
HETATM   24  C   UNL     1       7.574  22.609  55.067  1.00  0.00     0.003 A 
HETATM   25  C   UNL     1       7.989  21.514  55.835  1.00  0.00     0.124 A 
HETATM   26  F   UNL     1       7.866  21.530  57.170  1.00  0.00    -0.205 F 
HETATM   27  C   UNL     1       8.552  20.380  55.250  1.00  0.00     0.043 A 
HETATM   28  C   UNL     1       8.736  20.331  53.871  1.00  0.00     0.003 A 
HETATM   29  C   UNL     1       8.361  21.420  53.087  1.00  0.00     0.001 A 
HETATM   30  C   UNL     1       7.788  22.549  53.680  1.00  0.00     0.012 A 
ENDBRANCH   8  24
TORSDOF 2
ENDMDL
MODEL 3
REMARK VINA RESULT:      -9.8      3.880      8.543
REMARK  2 active torsions:
REMARK  status: ('A' for Active; 'I' for Inactive)
REMARK       I    between atoms: N_4  and  C_5 
REMARK       I    between atoms: C_5  and  N_6 
REMARK    1  A    between atoms: N_6  and  C_7 
REMARK    2  A    between atoms: C_20  and  C_21 
ROOT
HETATM    1  C   UNL     1       7.258  24.058  56.166  1.00  0.00     0.011 C 
HETATM    2  C   UNL     1       6.982  25.201  57.142  1.00  0.00     0.002 C 
HETATM    3  C   UNL     1       5.986  26.200  56.556  1.00  0.00     0.132 C 
HETATM    4  N   UNL     1       6.818  27.170  55.867  1.00  0.00    -0.325 N 
HETATM    5  C   UNL     1       6.594  27.726  54.620  1.00  0.00     0.323 C 
HETATM    6  N   UNL     1       5.292  27.616  54.185  1.00  0.00    -0.309 N 
HETATM    7  O   UNL     1       7.500  28.260  53.983  1.00  0.00    -0.247 OA
HETATM    8  C   UNL     1       8.126  27.276  56.503  1.00  0.00     0.125 C 
HETATM    9  C   UNL     1       8.244  26.034  57.409  1.00  0.00     0.036 C 
HETATM   10  H   UNL     1       4.608  27.530  54.919  1.00  0.00     0.170 HD
ENDROOT
BRANCH   6  11
HETATM   11  C   UNL     1       4.804  27.873  52.888  1.00  0.00     0.038 A 
HETATM   12  C   UNL     1       5.351  27.306  51.733  1.00  0.00     0.062 A 
HETATM   13  C   UNL     1       4.795  27.586  50.482  1.00  0.00     0.070 A 
HETATM   14  C   UNL     1       3.689  28.427  50.372  1.00  0.00     0.096 A 
HETATM   15  N   UNL     1       5.334  26.986  49.344  1.00  0.00    -0.323 N 
HETATM   16  O   UNL     1       3.070  28.722  49.189  1.00  0.00    -0.335 OA
HETATM   17  C   UNL     1       3.127  28.979  51.520  1.00  0.00     0.041 A 
HETATM   18  C   UNL     1       3.804  28.374  48.017  1.00  0.00     0.217 C 
HETATM   19  C   UNL     1       4.850  27.253  48.094  1.00  0.00     0.251 C 
HETATM   20  C   UNL     1       4.474  29.640  47.486  1.00  0.00     0.050 C 
HETATM   21  O   UNL     1       5.291  26.675  47.102  1.00  0.00    -0.270 OA
HETATM   22  C   UNL     1       3.682  28.703  52.773  1.00  0.00     0.032 A 
HETATM   23  H   UNL     1       6.080  26.307  49.418  1.00  0.00     0.169 HD
ENDBRANCH   6  11
BRANCH   8  24
HETATM   24  C   UNL     1       8.279  28.606  57.218  1.00  0.00     0.003 A 
HETATM   25  C   UNL     1       9.500  29.287  57.302  1.00  0.00     0.124 A 
HETATM   26  F   UNL     1      10.606  28.775  56.742  1.00  0.00    -0.205 F 
HETATM   27  C   UNL     1       9.617  30.502  57.976  1.00  0.00     0.043 A 
HETATM   28  C   UNL     1       8.506  31.054  58.606  1.00  0.00     0.003 A 
HETATM   29  C   UNL     1       7.285  30.382  58.564  1.00  0.00     0.001 A 
HETATM   30  C   UNL     1       7.174  29.169  57.878  1.00  0.00     0.012 A 
ENDBRANCH   8  24
TORSDOF 2
ENDMDL
MODEL 4
REMARK VINA RESULT:      -9.7      4.993      8.441
REMARK  2 active torsions:
REMARK  status: ('A' for Active; 'I' for Inactive)
REMARK       I    between atoms: N_4  and  C_5 
REMARK       I    between atoms: C_5  and  N_6 
REMARK    1  A    between atoms: N_6  and  C_7 
REMARK    2  A    between atoms: C_20  and  C_21 
ROOT
HETATM    1  C   UNL     1       5.005  26.475  51.852  1.00  0.00     0.011 C 
HETATM    2  C   UNL     1       5.033  25.230  52.738  1.00  0.00     0.002 C 
HETATM    3  C   UNL     1       5.016  25.604  54.218  1.00  0.00     0.132 C 
HETATM    4  N   UNL     1       6.418  25.723  54.574  1.00  0.00    -0.325 N 
HETATM    5  C   UNL     1       7.003  26.707  55.351  1.00  0.00     0.323 C 
HETATM    6  N   UNL     1       6.111  27.400  56.138  1.00  0.00    -0.309 N 
HETATM    7  O   UNL     1       8.213  26.919  55.315  1.00  0.00    -0.247 OA
HETATM    8  C   UNL     1       7.238  24.847  53.744  1.00  0.00     0.125 C 
HETATM    9  C   UNL     1       6.338  24.440  52.560  1.00  0.00     0.036 C 
HETATM   10  H   UNL     1       5.270  26.895  56.367  1.00  0.00     0.170 HD
ENDROOT
BRANCH   6  11
HETATM   11  C   UNL     1       6.354  28.589  56.855  1.00  0.00     0.038 A 
HETATM   12  C   UNL     1       7.264  28.677  57.913  1.00  0.00     0.062 A 
HETATM   13  C   UNL     1       7.472  29.899  58.559  1.00  0.00     0.070 A 
HETATM   14  C   UNL     1       6.782  31.040  58.154  1.00  0.00     0.096 A 
HETATM   15  N   UNL     1       8.407  29.975  59.591  1.00  0.00    -0.323 N 
HETATM   16  O   UNL     1       6.956  32.275  58.714  1.00  0.00    -0.335 OA
HETATM   17  C   UNL     1       5.889  30.963  57.088  1.00  0.00     0.041 A 
HETATM   18  C   UNL     1       7.657  32.285  59.956  1.00  0.00     0.217 C 
HETATM   19  C   UNL     1       8.624  31.136  60.279  1.00  0.00     0.251 C 
HETATM   20  C   UNL     1       6.628  32.395  61.079  1.00  0.00     0.050 C 
HETATM   21  O   UNL     1       9.492  31.212  61.147  1.00  0.00    -0.270 OA
HETATM   22  C   UNL     1       5.676  29.742  56.441  1.00  0.00     0.032 A 
HETATM   23  H   UNL     1       8.977  29.177  59.837  1.00  0.00     0.169 HD
ENDBRANCH   6  11
BRANCH   8  24
HETATM   24  C   UNL     1       7.790  23.689  54.555  1.00  0.00     0.003 A 
HETATM   25  C   UNL     1       8.457  22.603  53.973  1.00  0.00     0.124 A 
HETATM   26  F   UNL     1       8.636  22.546  52.645  1.00  0.00    -0.205 F 
HETATM   27  C   UNL     1       8.945  21.545  54.740  1.00  0.00     0.043 A 
HETATM   28  C   UNL     1       8.749  21.541  56.118  1.00  0.00     0.003 A 
HETATM   29  C   UNL     1       8.062  22.594  56.719  1.00  0.00     0.001 A 
HETATM   30  C   UNL     1       7.585  23.656  55.945  1.00  0.00     0.012 A 
ENDBRANCH   8  24
TORSDOF 2
ENDMDL
MODEL 5
REMARK VINA RESULT:      -9.5      1.749      3.581
REMARK  2 active torsions:
REMARK  status: ('A' for Active; 'I' for Inactive)
REMARK       I    between atoms: N_4  and  C_5 
REMARK       I    between atoms: C_5  and  N_6 
REMARK    1  A    between atoms: N_6  and  C_7 
REMARK    2  A    between atoms: C_20  and  C_21 
ROOT
HETATM    1  C   UNL     1       3.358  25.511  48.243  1.00  0.00     0.011 C 
HETATM    2  C   UNL     1       4.031  26.883  48.224  1.00  0.00     0.002 C 
HETATM    3  C   UNL     1       5.327  26.875  49.032  1.00  0.00     0.132 C 
HETATM    4  N   UNL     1       4.913  27.245  50.374  1.00  0.00    -0.325 N 
HETATM    5  C   UNL     1       5.331  26.678  51.564  1.00  0.00     0.323 C 
HETATM    6  N   UNL     1       6.503  25.963  51.460  1.00  0.00    -0.309 N 
HETATM    7  O   UNL     1       4.689  26.817  52.602  1.00  0.00    -0.247 OA
HETATM    8  C   UNL     1       3.732  28.101  50.333  1.00  0.00     0.125 C 
HETATM    9  C   UNL     1       3.162  27.947  48.909  1.00  0.00     0.036 C 
HETATM   10  H   UNL     1       7.105  26.246  50.703  1.00  0.00     0.170 HD
ENDROOT
BRANCH   6  11
HETATM   11  C   UNL     1       7.058  25.093  52.421  1.00  0.00     0.038 A 
HETATM   12  C   UNL     1       7.297  23.737  52.185  1.00  0.00     0.062 A 
HETATM   13  C   UNL     1       7.875  22.943  53.179  1.00  0.00     0.070 A 
HETATM   14  C   UNL     1       8.225  23.494  54.411  1.00  0.00     0.096 A 
HETATM   15  N   UNL     1       8.137  21.599  52.915  1.00  0.00    -0.323 N 
HETATM   16  O   UNL     1       8.824  22.790  55.418  1.00  0.00    -0.335 OA
HETATM   17  C   UNL     1       8.008  24.849  54.645  1.00  0.00     0.041 A 
HETATM   18  C   UNL     1       8.794  21.373  55.269  1.00  0.00     0.217 C 
HETATM   19  C   UNL     1       8.669  20.770  53.862  1.00  0.00     0.251 C 
HETATM   20  C   UNL     1       7.666  20.829  56.143  1.00  0.00     0.050 C 
HETATM   21  O   UNL     1       8.951  19.602  53.604  1.00  0.00    -0.270 OA
HETATM   22  C   UNL     1       7.426  25.646  53.654  1.00  0.00     0.032 A 
HETATM   23  H   UNL     1       7.969  21.206  51.997  1.00  0.00     0.169 HD
ENDBRANCH   6  11
BRANCH   8  24
HETATM   24  C   UNL     1       4.076  29.524  50.735  1.00  0.00     0.003 A 
HETATM   25  C   UNL     1       3.644  30.098  51.937  1.00  0.00     0.124 A 
HETATM   26  F   UNL     1       2.894  29.396  52.798  1.00  0.00    -0.205 F 
HETATM   27  C   UNL     1       3.963  31.413  52.278  1.00  0.00     0.043 A 
HETATM   28  C   UNL     1       4.708  32.194  51.399  1.00  0.00     0.003 A 
HETATM   29  C   UNL     1       5.123  31.657  50.182  1.00  0.00     0.001 A 
HETATM   30  C   UNL     1       4.808  30.335  49.852  1.00  0.00     0.012 A 
ENDBRANCH   8  24
TORSDOF 2
ENDMDL
MODEL 6
REMARK VINA RESULT:      -9.5      2.953      8.431
REMARK  2 active torsions:
REMARK  status: ('A' for Active; 'I' for Inactive)
REMARK       I    between atoms: N_4  and  C_5 
REMARK       I    between atoms: C_5  and  N_6 
REMARK    1  A    between atoms: N_6  and  C_7 
REMARK    2  A    between atoms: C_20  and  C_21 
ROOT
HETATM    1  C   UNL     1       6.178  28.650  55.495  1.00  0.00     0.011 C 
HETATM    2  C   UNL     1       7.278  27.646  55.150  1.00  0.00     0.002 C 
HETATM    3  C   UNL     1       7.343  27.393  53.645  1.00  0.00     0.132 C 
HETATM    4  N   UNL     1       6.443  26.274  53.432  1.00  0.00    -0.325 N 
HETATM    5  C   UNL     1       5.517  26.127  52.414  1.00  0.00     0.323 C 
HETATM    6  N   UNL     1       5.748  26.943  51.329  1.00  0.00    -0.309 N 
HETATM    7  O   UNL     1       4.584  25.333  52.505  1.00  0.00    -0.247 OA
HETATM    8  C   UNL     1       6.384  25.424  54.617  1.00  0.00     0.125 C 
HETATM    9  C   UNL     1       6.993  26.265  55.757  1.00  0.00     0.036 C 
HETATM   10  H   UNL     1       6.707  27.229  51.212  1.00  0.00     0.170 HD
ENDROOT
BRANCH   6  11
HETATM   11  C   UNL     1       4.874  27.191  50.251  1.00  0.00     0.038 A 
HETATM   12  C   UNL     1       3.905  28.198  50.262  1.00  0.00     0.062 A 
HETATM   13  C   UNL     1       3.093  28.402  49.143  1.00  0.00     0.070 A 
HETATM   14  C   UNL     1       3.244  27.611  48.005  1.00  0.00     0.096 A 
HETATM   15  N   UNL     1       2.154  29.433  49.159  1.00  0.00    -0.323 N 
HETATM   16  O   UNL     1       2.511  27.771  46.862  1.00  0.00    -0.335 OA
HETATM   17  C   UNL     1       4.220  26.619  47.981  1.00  0.00     0.041 A 
HETATM   18  C   UNL     1       1.354  28.595  46.994  1.00  0.00     0.217 C 
HETATM   19  C   UNL     1       1.311  29.654  48.105  1.00  0.00     0.251 C 
HETATM   20  C   UNL     1       0.137  27.683  47.133  1.00  0.00     0.050 C 
HETATM   21  O   UNL     1       0.527  30.601  48.102  1.00  0.00    -0.270 OA
HETATM   22  C   UNL     1       5.033  26.410  49.100  1.00  0.00     0.032 A 
HETATM   23  H   UNL     1       2.093  30.070  49.942  1.00  0.00     0.169 HD
ENDBRANCH   6  11
BRANCH   8  24
HETATM   24  C   UNL     1       7.070  24.093  54.367  1.00  0.00     0.003 A 
HETATM   25  C   UNL     1       7.274  23.143  55.375  1.00  0.00     0.124 A 
HETATM   26  F   UNL     1       6.861  23.379  56.629  1.00  0.00    -0.205 F 
HETATM   27  C   UNL     1       7.918  21.932  55.123  1.00  0.00     0.043 A 
HETATM   28  C   UNL     1       8.399  21.657  53.846  1.00  0.00     0.003 A 
HETATM   29  C   UNL     1       8.238  22.599  52.831  1.00  0.00     0.001 A 
HETATM   30  C   UNL     1       7.581  23.806  53.090  1.00  0.00     0.012 A 
ENDBRANCH   8  24
TORSDOF 2
ENDMDL
MODEL 7
REMARK VINA RESULT:      -9.1      3.682      6.131
REMARK  2 active torsions:
REMARK  status: ('A' for Active; 'I' for Inactive)
REMARK       I    between atoms: N_4  and  C_5 
REMARK       I    between atoms: C_5  and  N_6 
REMARK    1  A    between atoms: N_6  and  C_7 
REMARK    2  A    between atoms: C_20  and  C_21 
ROOT
HETATM    1  C   UNL     1       3.397  28.406  52.890  1.00  0.00     0.011 C 
HETATM    2  C   UNL     1       4.266  29.485  53.535  1.00  0.00     0.002 C 
HETATM    3  C   UNL     1       5.635  28.932  53.925  1.00  0.00     0.132 C 
HETATM    4  N   UNL     1       5.454  28.456  55.285  1.00  0.00    -0.325 N 
HETATM    5  C   UNL     1       5.923  27.273  55.826  1.00  0.00     0.323 C 
HETATM    6  N   UNL     1       6.949  26.699  55.107  1.00  0.00    -0.309 N 
HETATM    7  O   UNL     1       5.444  26.802  56.854  1.00  0.00    -0.247 OA
HETATM    8  C   UNL     1       4.423  29.228  55.970  1.00  0.00     0.125 C 
HETATM    9  C   UNL     1       3.663  29.978  54.858  1.00  0.00     0.036 C 
HETATM   10  H   UNL     1       7.489  27.345  54.554  1.00  0.00     0.170 HD
ENDROOT
BRANCH   6  11
HETATM   11  C   UNL     1       7.478  25.403  55.266  1.00  0.00     0.038 A 
HETATM   12  C   UNL     1       7.367  24.402  54.297  1.00  0.00     0.062 A 
HETATM   13  C   UNL     1       7.941  23.147  54.515  1.00  0.00     0.070 A 
HETATM   14  C   UNL     1       8.634  22.881  55.695  1.00  0.00     0.096 A 
HETATM   15  N   UNL     1       7.849  22.171  53.523  1.00  0.00    -0.323 N 
HETATM   16  O   UNL     1       9.250  21.691  55.965  1.00  0.00    -0.335 OA
HETATM   17  C   UNL     1       8.765  23.880  56.656  1.00  0.00     0.041 A 
HETATM   18  C   UNL     1       8.886  20.611  55.109  1.00  0.00     0.217 C 
HETATM   19  C   UNL     1       8.362  20.916  53.698  1.00  0.00     0.251 C 
HETATM   20  C   UNL     1       7.857  19.752  55.843  1.00  0.00     0.050 C 
HETATM   21  O   UNL     1       8.329  20.081  52.797  1.00  0.00    -0.270 OA
HETATM   22  C   UNL     1       8.189  25.136  56.443  1.00  0.00     0.032 A 
HETATM   23  H   UNL     1       7.425  22.378  52.627  1.00  0.00     0.169 HD
ENDBRANCH   6  11
BRANCH   8  24
HETATM   24  C   UNL     1       5.029  30.115  57.042  1.00  0.00     0.003 A 
HETATM   25  C   UNL     1       4.254  30.892  57.913  1.00  0.00     0.124 A 
HETATM   26  F   UNL     1       2.915  30.881  57.828  1.00  0.00    -0.205 F 
HETATM   27  C   UNL     1       4.835  31.709  58.881  1.00  0.00     0.043 A 
HETATM   28  C   UNL     1       6.221  31.784  58.982  1.00  0.00     0.003 A 
HETATM   29  C   UNL     1       7.017  31.046  58.108  1.00  0.00     0.001 A 
HETATM   30  C   UNL     1       6.426  30.221  57.146  1.00  0.00     0.012 A 
ENDBRANCH   8  24
TORSDOF 2
ENDMDL
MODEL 8
REMARK VINA RESULT:      -8.9      2.476      4.337
REMARK  2 active torsions:
REMARK  status: ('A' for Active; 'I' for Inactive)
REMARK       I    between atoms: N_4  and  C_5 
REMARK       I    between atoms: C_5  and  N_6 
REMARK    1  A    between atoms: N_6  and  C_7 
REMARK    2  A    between atoms: C_20  and  C_21 
ROOT
HETATM    1  C   UNL     1       2.548  25.773  47.622  1.00  0.00     0.011 C 
HETATM    2  C   UNL     1       3.436  26.954  47.228  1.00  0.00     0.002 C 
HETATM    3  C   UNL     1       4.708  26.994  48.072  1.00  0.00     0.132 C 
HETATM    4  N   UNL     1       4.353  27.816  49.215  1.00  0.00    -0.325 N 
HETATM    5  C   UNL     1       4.666  27.583  50.542  1.00  0.00     0.323 C 
HETATM    6  N   UNL     1       5.707  26.699  50.723  1.00  0.00    -0.309 N 
HETATM    7  O   UNL     1       4.049  28.129  51.453  1.00  0.00    -0.247 OA
HETATM    8  C   UNL     1       3.327  28.789  48.854  1.00  0.00     0.125 C 
HETATM    9  C   UNL     1       2.748  28.296  47.513  1.00  0.00     0.036 C 
HETATM   10  H   UNL     1       6.351  26.642  49.950  1.00  0.00     0.170 HD
ENDROOT
BRANCH   6  11
HETATM   11  C   UNL     1       6.107  26.091  51.930  1.00  0.00     0.038 A 
HETATM   12  C   UNL     1       5.402  26.225  53.129  1.00  0.00     0.062 A 
HETATM   13  C   UNL     1       5.846  25.569  54.281  1.00  0.00     0.070 A 
HETATM   14  C   UNL     1       6.989  24.771  54.244  1.00  0.00     0.096 A 
HETATM   15  N   UNL     1       5.112  25.688  55.461  1.00  0.00    -0.323 N 
HETATM   16  O   UNL     1       7.465  24.073  55.319  1.00  0.00    -0.335 OA
HETATM   17  C   UNL     1       7.684  24.617  53.048  1.00  0.00     0.041 A 
HETATM   18  C   UNL     1       6.911  24.445  56.579  1.00  0.00     0.217 C 
HETATM   19  C   UNL     1       5.520  25.095  56.623  1.00  0.00     0.251 C 
HETATM   20  C   UNL     1       7.908  25.365  57.281  1.00  0.00     0.050 C 
HETATM   21  O   UNL     1       4.838  25.155  57.644  1.00  0.00    -0.270 OA
HETATM   22  C   UNL     1       7.244  25.275  51.895  1.00  0.00     0.032 A 
HETATM   23  H   UNL     1       4.235  26.191  55.480  1.00  0.00     0.169 HD
ENDBRANCH   6  11
BRANCH   8  24
HETATM   24  C   UNL     1       3.895  30.196  48.828  1.00  0.00     0.003 A 
HETATM   25  C   UNL     1       3.541  31.176  49.763  1.00  0.00     0.124 A 
HETATM   26  F   UNL     1       2.665  30.900  50.741  1.00  0.00    -0.205 F 
HETATM   27  C   UNL     1       4.068  32.466  49.710  1.00  0.00     0.043 A 
HETATM   28  C   UNL     1       4.952  32.811  48.692  1.00  0.00     0.003 A 
HETATM   29  C   UNL     1       5.297  31.864  47.729  1.00  0.00     0.001 A 
HETATM   30  C   UNL     1       4.772  30.570  47.796  1.00  0.00     0.012 A 
ENDBRANCH   8  24
TORSDOF 2
ENDMDL
MODEL 9
REMARK VINA RESULT:      -8.9      2.409      3.201
REMARK  2 active torsions:
REMARK  status: ('A' for Active; 'I' for Inactive)
REMARK       I    between atoms: N_4  and  C_5 
REMARK       I    between atoms: C_5  and  N_6 
REMARK    1  A    between atoms: N_6  and  C_7 
REMARK    2  A    between atoms: C_20  and  C_21 
ROOT
HETATM    1  C   UNL     1       6.145  31.510  49.750  1.00  0.00     0.011 C 
HETATM    2  C   UNL     1       4.696  31.178  49.393  1.00  0.00     0.002 C 
HETATM    3  C   UNL     1       4.064  30.262  50.439  1.00  0.00     0.132 C 
HETATM    4  N   UNL     1       4.348  28.922  49.958  1.00  0.00    -0.325 N 
HETATM    5  C   UNL     1       4.771  27.837  50.706  1.00  0.00     0.323 C 
HETATM    6  N   UNL     1       4.540  27.967  52.057  1.00  0.00    -0.309 N 
HETATM    7  O   UNL     1       5.304  26.863  50.180  1.00  0.00    -0.247 OA
HETATM    8  C   UNL     1       4.449  28.905  48.503  1.00  0.00     0.125 C 
HETATM    9  C   UNL     1       4.606  30.380  48.085  1.00  0.00     0.036 C 
HETATM   10  H   UNL     1       3.781  28.584  52.298  1.00  0.00     0.170 HD
ENDROOT
BRANCH   6  11
HETATM   11  C   UNL     1       5.050  27.154  53.089  1.00  0.00     0.038 A 
HETATM   12  C   UNL     1       5.749  27.656  54.190  1.00  0.00     0.062 A 
HETATM   13  C   UNL     1       6.201  26.789  55.189  1.00  0.00     0.070 A 
HETATM   14  C   UNL     1       5.955  25.420  55.102  1.00  0.00     0.096 A 
HETATM   15  N   UNL     1       6.869  27.311  56.297  1.00  0.00    -0.323 N 
HETATM   16  O   UNL     1       6.336  24.515  56.054  1.00  0.00    -0.335 OA
HETATM   17  C   UNL     1       5.242  24.915  54.018  1.00  0.00     0.041 A 
HETATM   18  C   UNL     1       7.282  24.997  57.006  1.00  0.00     0.217 C 
HETATM   19  C   UNL     1       7.362  26.505  57.285  1.00  0.00     0.251 C 
HETATM   20  C   UNL     1       8.665  24.497  56.593  1.00  0.00     0.050 C 
HETATM   21  O   UNL     1       7.897  26.977  58.286  1.00  0.00    -0.270 OA
HETATM   22  C   UNL     1       4.791  25.780  53.015  1.00  0.00     0.032 A 
HETATM   23  H   UNL     1       6.977  28.310  56.416  1.00  0.00     0.169 HD
ENDBRANCH   6  11
BRANCH   8  24
HETATM   24  C   UNL     1       3.264  28.187  47.883  1.00  0.00     0.003 A 
HETATM   25  C   UNL     1       3.343  26.880  47.385  1.00  0.00     0.124 A 
HETATM   26  F   UNL     1       4.497  26.199  47.439  1.00  0.00    -0.205 F 
HETATM   27  C   UNL     1       2.243  26.247  46.809  1.00  0.00     0.043 A 
HETATM   28  C   UNL     1       1.033  26.926  46.696  1.00  0.00     0.003 A 
HETATM   29  C   UNL     1       0.935  28.239  47.155  1.00  0.00     0.001 A 
HETATM   30  C   UNL     1       2.041  28.863  47.741  1.00  0.00     0.012 A 
ENDBRANCH   8  24
TORSDOF 2
ENDMDL
MODEL 10
REMARK VINA RESULT:      -8.7      5.243      7.303
REMARK  2 active torsions:
REMARK  status: ('A' for Active; 'I' for Inactive)
REMARK       I    between atoms: N_4  and  C_5 
REMARK       I    between atoms: C_5  and  N_6 
REMARK    1  A    between atoms: N_6  and  C_7 
REMARK    2  A    between atoms: C_20  and  C_21 
ROOT
HETATM    1  C   UNL     1       7.122  23.682  55.072  1.00  0.00     0.011 C 
HETATM    2  C   UNL     1       6.959  24.416  53.741  1.00  0.00     0.002 C 
HETATM    3  C   UNL     1       7.648  25.779  53.774  1.00  0.00     0.132 C 
HETATM    4  N   UNL     1       6.619  26.688  54.246  1.00  0.00    -0.325 N 
HETATM    5  C   UNL     1       6.762  27.700  55.178  1.00  0.00     0.323 C 
HETATM    6  N   UNL     1       8.066  28.094  55.379  1.00  0.00    -0.309 N 
HETATM    7  O   UNL     1       5.791  28.181  55.758  1.00  0.00    -0.247 OA
HETATM    8  C   UNL     1       5.294  26.214  53.861  1.00  0.00     0.125 C 
HETATM    9  C   UNL     1       5.487  24.740  53.452  1.00  0.00     0.036 C 
HETATM   10  H   UNL     1       8.683  27.922  54.602  1.00  0.00     0.170 HD
ENDROOT
BRANCH   6  11
HETATM   11  C   UNL     1       8.555  28.924  56.407  1.00  0.00     0.038 A 
HETATM   12  C   UNL     1       7.987  28.986  57.683  1.00  0.00     0.062 A 
HETATM   13  C   UNL     1       8.545  29.815  58.660  1.00  0.00     0.070 A 
HETATM   14  C   UNL     1       9.674  30.581  58.377  1.00  0.00     0.096 A 
HETATM   15  N   UNL     1       7.984  29.839  59.937  1.00  0.00    -0.323 N 
HETATM   16  O   UNL     1      10.295  31.389  59.290  1.00  0.00    -0.335 OA
HETATM   17  C   UNL     1      10.257  30.509  57.115  1.00  0.00     0.041 A 
HETATM   18  C   UNL     1       9.546  31.656  60.473  1.00  0.00     0.217 C 
HETATM   19  C   UNL     1       8.469  30.657  60.919  1.00  0.00     0.251 C 
HETATM   20  C   UNL     1       8.909  33.037  60.328  1.00  0.00     0.050 C 
HETATM   21  O   UNL     1       8.007  30.630  62.058  1.00  0.00    -0.270 OA
HETATM   22  C   UNL     1       9.700  29.683  56.134  1.00  0.00     0.032 A 
HETATM   23  H   UNL     1       7.219  29.224  60.181  1.00  0.00     0.169 HD
ENDBRANCH   6  11
BRANCH   8  24
HETATM   24  C   UNL     1       4.688  27.102  52.790  1.00  0.00     0.003 A 
HETATM   25  C   UNL     1       5.120  27.088  51.458  1.00  0.00     0.124 A 
HETATM   26  F   UNL     1       6.111  26.271  51.071  1.00  0.00    -0.205 F 
HETATM   27  C   UNL     1       4.555  27.924  50.495  1.00  0.00     0.043 A 
HETATM   28  C   UNL     1       3.551  28.817  50.856  1.00  0.00     0.003 A 
HETATM   29  C   UNL     1       3.123  28.873  52.182  1.00  0.00     0.001 A 
HETATM   30  C   UNL     1       3.688  28.025  53.140  1.00  0.00     0.012 A 
ENDBRANCH   8  24
TORSDOF 2
ENDMDL
