MODEL 1
REMARK VINA RESULT:      -8.0      0.000      0.000
REMARK  6 active torsions:
REMARK  status: ('A' for Active; 'I' for Inactive)
REMARK    1  A    between atoms: C_2  and  O_3 
REMARK    2  A    between atoms: O_3  and  C_4 
REMARK    3  A    between atoms: C_4  and  C_5 
REMARK    4  A    between atoms: C_6  and  O_7 
REMARK    5  A    between atoms: C_12  and  O_13 
REMARK    6  A    between atoms: C_17  and  C_18 
ROOT
HETATM    1  C   UNL     1       6.654  24.611  54.402  1.00  0.00     0.133 C 
HETATM    2  C   UNL     1       7.143  24.784  52.924  1.00  0.00     0.073 C 
HETATM    3  C   UNL     1       7.646  23.456  52.333  1.00  0.00     0.047 C 
HETATM    4  C   UNL     1       5.993  25.310  52.006  1.00  0.00     0.097 C 
HETATM    5  C   UNL     1       5.192  26.345  52.709  1.00  0.00     0.042 A 
HETATM    6  C   UNL     1       5.159  26.603  54.063  1.00  0.00     0.030 A 
HETATM    7  C   UNL     1       4.223  27.643  54.171  1.00  0.00     0.190 A 
HETATM    8  N   UNL     1       3.698  28.011  53.009  1.00  0.00    -0.149 NA
HETATM    9  N   UNL     1       4.325  27.221  52.120  1.00  0.00    -0.279 N 
HETATM   10  H   UNL     1       4.101  27.329  51.137  1.00  0.00     0.189 HD
HETATM   11  C   UNL     1       5.968  25.843  55.059  1.00  0.00     0.075 C 
ENDROOT
BRANCH  11  12
HETATM   12  C   UNL     1       6.857  26.853  55.770  1.00  0.00    -0.045 A 
HETATM   13  C   UNL     1       7.693  27.759  55.097  1.00  0.00     0.050 A 
HETATM   14  C   UNL     1       8.489  28.649  55.813  1.00  0.00     0.117 A 
HETATM   15  F   UNL     1       9.284  29.500  55.153  1.00  0.00    -0.206 F 
HETATM   16  C   UNL     1       8.477  28.668  57.201  1.00  0.00     0.042 A 
HETATM   17  C   UNL     1       7.656  27.779  57.889  1.00  0.00     0.004 A 
HETATM   18  C   UNL     1       6.858  26.877  57.179  1.00  0.00     0.008 A 
ENDBRANCH  11  12
BRANCH   1  19
HETATM   19  C   UNL     1       7.670  24.036  55.364  1.00  0.00     0.267 C 
HETATM   20  O   UNL     1       8.738  24.585  55.611  1.00  0.00    -0.265 OA
BRANCH  19  21
HETATM   21  O   UNL     1       7.278  22.836  55.870  1.00  0.00    -0.316 OA
BRANCH  21  22
HETATM   22  C   UNL     1       8.226  21.755  55.782  1.00  0.00     0.123 C 
HETATM   23  C   UNL     1       7.728  20.714  54.788  1.00  0.00     0.040 C 
HETATM   24  C   UNL     1       8.341  21.153  57.178  1.00  0.00     0.040 C 
ENDBRANCH  21  22
ENDBRANCH  19  21
ENDBRANCH   1  19
BRANCH   2  25
HETATM   25  O   UNL     1       8.223  25.721  52.818  1.00  0.00    -0.389 OA
HETATM   26  H   UNL     1       8.330  25.950  51.873  1.00  0.00     0.210 HD
ENDBRANCH   2  25
BRANCH   7  27
HETATM   27  O   UNL     1       3.805  28.305  55.252  1.00  0.00    -0.343 OA
HETATM   28  H   UNL     1       2.861  28.503  55.161  1.00  0.00     0.219 HD
ENDBRANCH   7  27
TORSDOF 6
ENDMDL
MODEL 2
REMARK VINA RESULT:      -7.7      3.199      5.902
REMARK  6 active torsions:
REMARK  status: ('A' for Active; 'I' for Inactive)
REMARK    1  A    between atoms: C_2  and  O_3 
REMARK    2  A    between atoms: O_3  and  C_4 
REMARK    3  A    between atoms: C_4  and  C_5 
REMARK    4  A    between atoms: C_6  and  O_7 
REMARK    5  A    between atoms: C_12  and  O_13 
REMARK    6  A    between atoms: C_17  and  C_18 
ROOT
HETATM    1  C   UNL     1       6.709  29.830  56.430  1.00  0.00     0.133 C 
HETATM    2  C   UNL     1       5.465  30.380  57.207  1.00  0.00     0.073 C 
HETATM    3  C   UNL     1       5.852  31.519  58.166  1.00  0.00     0.047 C 
HETATM    4  C   UNL     1       4.383  30.932  56.224  1.00  0.00     0.097 C 
HETATM    5  C   UNL     1       4.257  30.052  55.034  1.00  0.00     0.042 A 
HETATM    6  C   UNL     1       5.149  29.093  54.602  1.00  0.00     0.030 A 
HETATM    7  C   UNL     1       4.551  28.600  53.432  1.00  0.00     0.190 A 
HETATM    8  N   UNL     1       3.399  29.187  53.133  1.00  0.00    -0.149 NA
HETATM    9  N   UNL     1       3.222  30.057  54.143  1.00  0.00    -0.279 N 
HETATM   10  H   UNL     1       2.380  30.624  54.148  1.00  0.00     0.189 HD
HETATM   11  C   UNL     1       6.427  28.790  55.308  1.00  0.00     0.075 C 
ENDROOT
BRANCH  11  12
HETATM   12  C   UNL     1       6.377  27.321  55.701  1.00  0.00    -0.045 A 
HETATM   13  C   UNL     1       5.373  26.769  56.514  1.00  0.00     0.050 A 
HETATM   14  C   UNL     1       5.396  25.416  56.843  1.00  0.00     0.117 A 
HETATM   15  F   UNL     1       4.434  24.912  57.625  1.00  0.00    -0.206 F 
HETATM   16  C   UNL     1       6.403  24.581  56.378  1.00  0.00     0.042 A 
HETATM   17  C   UNL     1       7.407  25.105  55.571  1.00  0.00     0.004 A 
HETATM   18  C   UNL     1       7.397  26.464  55.240  1.00  0.00     0.008 A 
ENDBRANCH  11  12
BRANCH   1  19
HETATM   19  C   UNL     1       7.851  29.336  57.290  1.00  0.00     0.267 C 
HETATM   20  O   UNL     1       7.683  28.640  58.285  1.00  0.00    -0.265 OA
BRANCH  19  21
HETATM   21  O   UNL     1       9.056  29.794  56.857  1.00  0.00    -0.316 OA
BRANCH  21  22
HETATM   22  C   UNL     1      10.068  30.006  57.861  1.00  0.00     0.123 C 
HETATM   23  C   UNL     1       9.982  31.434  58.384  1.00  0.00     0.040 C 
HETATM   24  C   UNL     1      11.414  29.759  57.190  1.00  0.00     0.040 C 
ENDBRANCH  21  22
ENDBRANCH  19  21
ENDBRANCH   1  19
BRANCH   2  25
HETATM   25  O   UNL     1       4.830  29.369  57.999  1.00  0.00    -0.389 OA
HETATM   26  H   UNL     1       4.114  29.793  58.512  1.00  0.00     0.210 HD
ENDBRANCH   2  25
BRANCH   7  27
HETATM   27  O   UNL     1       4.965  27.639  52.603  1.00  0.00    -0.343 OA
HETATM   28  H   UNL     1       4.406  27.636  51.812  1.00  0.00     0.219 HD
ENDBRANCH   7  27
TORSDOF 6
ENDMDL
MODEL 3
REMARK VINA RESULT:      -7.5      1.691      2.386
REMARK  6 active torsions:
REMARK  status: ('A' for Active; 'I' for Inactive)
REMARK    1  A    between atoms: C_2  and  O_3 
REMARK    2  A    between atoms: O_3  and  C_4 
REMARK    3  A    between atoms: C_4  and  C_5 
REMARK    4  A    between atoms: C_6  and  O_7 
REMARK    5  A    between atoms: C_12  and  O_13 
REMARK    6  A    between atoms: C_17  and  C_18 
ROOT
HETATM    1  C   UNL     1       5.197  26.274  55.034  1.00  0.00     0.133 C 
HETATM    2  C   UNL     1       5.261  26.317  53.469  1.00  0.00     0.073 C 
HETATM    3  C   UNL     1       4.992  24.935  52.851  1.00  0.00     0.047 C 
HETATM    4  C   UNL     1       4.207  27.313  52.888  1.00  0.00     0.097 C 
HETATM    5  C   UNL     1       4.131  28.542  53.719  1.00  0.00     0.042 A 
HETATM    6  C   UNL     1       4.601  28.715  55.005  1.00  0.00     0.030 A 
HETATM    7  C   UNL     1       4.236  30.037  55.306  1.00  0.00     0.190 A 
HETATM    8  N   UNL     1       3.589  30.649  54.322  1.00  0.00    -0.149 NA
HETATM    9  N   UNL     1       3.558  29.724  53.347  1.00  0.00    -0.279 N 
HETATM   10  H   UNL     1       3.121  29.969  52.465  1.00  0.00     0.189 HD
HETATM   11  C   UNL     1       5.287  27.638  55.775  1.00  0.00     0.075 C 
ENDROOT
BRANCH  11  12
HETATM   12  C   UNL     1       6.671  28.162  56.128  1.00  0.00    -0.045 A 
HETATM   13  C   UNL     1       7.621  28.552  55.169  1.00  0.00     0.050 A 
HETATM   14  C   UNL     1       8.875  29.012  55.565  1.00  0.00     0.117 A 
HETATM   15  F   UNL     1       9.768  29.372  54.635  1.00  0.00    -0.206 F 
HETATM   16  C   UNL     1       9.217  29.101  56.907  1.00  0.00     0.042 A 
HETATM   17  C   UNL     1       8.292  28.720  57.874  1.00  0.00     0.004 A 
HETATM   18  C   UNL     1       7.033  28.251  57.487  1.00  0.00     0.008 A 
ENDBRANCH  11  12
BRANCH   1  19
HETATM   19  C   UNL     1       6.129  25.285  55.700  1.00  0.00     0.267 C 
HETATM   20  O   UNL     1       5.907  24.800  56.803  1.00  0.00    -0.265 OA
BRANCH  19  21
HETATM   21  O   UNL     1       7.242  25.047  54.956  1.00  0.00    -0.316 OA
BRANCH  21  22
HETATM   22  C   UNL     1       7.749  23.698  54.961  1.00  0.00     0.123 C 
HETATM   23  C   UNL     1       8.950  23.603  55.894  1.00  0.00     0.040 C 
HETATM   24  C   UNL     1       8.155  23.372  53.529  1.00  0.00     0.040 C 
ENDBRANCH  21  22
ENDBRANCH  19  21
ENDBRANCH   1  19
BRANCH   2  25
HETATM   25  O   UNL     1       6.544  26.743  52.992  1.00  0.00    -0.389 OA
HETATM   26  H   UNL     1       6.920  27.360  53.650  1.00  0.00     0.210 HD
ENDBRANCH   2  25
BRANCH   7  27
HETATM   27  O   UNL     1       4.453  30.749  56.413  1.00  0.00    -0.343 OA
HETATM   28  H   UNL     1       5.402  30.761  56.606  1.00  0.00     0.219 HD
ENDBRANCH   7  27
TORSDOF 6
ENDMDL
MODEL 4
REMARK VINA RESULT:      -7.5      2.807      5.356
REMARK  6 active torsions:
REMARK  status: ('A' for Active; 'I' for Inactive)
REMARK    1  A    between atoms: C_2  and  O_3 
REMARK    2  A    between atoms: O_3  and  C_4 
REMARK    3  A    between atoms: C_4  and  C_5 
REMARK    4  A    between atoms: C_6  and  O_7 
REMARK    5  A    between atoms: C_12  and  O_13 
REMARK    6  A    between atoms: C_17  and  C_18 
ROOT
HETATM    1  C   UNL     1       6.182  28.925  55.303  1.00  0.00     0.133 C 
HETATM    2  C   UNL     1       4.806  28.992  56.049  1.00  0.00     0.073 C 
HETATM    3  C   UNL     1       4.953  29.592  57.458  1.00  0.00     0.047 C 
HETATM    4  C   UNL     1       3.779  29.866  55.262  1.00  0.00     0.097 C 
HETATM    5  C   UNL     1       3.884  29.615  53.802  1.00  0.00     0.042 A 
HETATM    6  C   UNL     1       4.924  29.008  53.129  1.00  0.00     0.030 A 
HETATM    7  C   UNL     1       4.517  29.066  51.787  1.00  0.00     0.190 A 
HETATM    8  N   UNL     1       3.342  29.657  51.611  1.00  0.00    -0.149 NA
HETATM    9  N   UNL     1       2.957  29.964  52.862  1.00  0.00    -0.279 N 
HETATM   10  H   UNL     1       2.059  30.417  52.992  1.00  0.00     0.189 HD
HETATM   11  C   UNL     1       6.146  28.492  53.810  1.00  0.00     0.075 C 
ENDROOT
BRANCH  11  12
HETATM   12  C   UNL     1       6.228  27.004  53.502  1.00  0.00    -0.045 A 
HETATM   13  C   UNL     1       7.409  26.359  53.102  1.00  0.00     0.050 A 
HETATM   14  C   UNL     1       7.408  24.994  52.825  1.00  0.00     0.117 A 
HETATM   15  F   UNL     1       8.544  24.399  52.439  1.00  0.00    -0.206 F 
HETATM   16  C   UNL     1       6.249  24.238  52.938  1.00  0.00     0.042 A 
HETATM   17  C   UNL     1       5.067  24.857  53.333  1.00  0.00     0.004 A 
HETATM   18  C   UNL     1       5.056  26.228  53.607  1.00  0.00     0.008 A 
ENDBRANCH  11  12
BRANCH   1  19
HETATM   19  C   UNL     1       7.277  28.161  56.016  1.00  0.00     0.267 C 
HETATM   20  O   UNL     1       7.067  27.131  56.646  1.00  0.00    -0.265 OA
BRANCH  19  21
HETATM   21  O   UNL     1       8.485  28.776  55.911  1.00  0.00    -0.316 OA
BRANCH  21  22
HETATM   22  C   UNL     1       9.261  28.891  57.120  1.00  0.00     0.123 C 
HETATM   23  C   UNL     1       8.582  29.865  58.075  1.00  0.00     0.040 C 
HETATM   24  C   UNL     1      10.637  29.406  56.715  1.00  0.00     0.040 C 
ENDBRANCH  21  22
ENDBRANCH  19  21
ENDBRANCH   1  19
BRANCH   2  25
HETATM   25  O   UNL     1       4.215  27.696  56.210  1.00  0.00    -0.389 OA
HETATM   26  H   UNL     1       4.037  27.334  55.319  1.00  0.00     0.210 HD
ENDBRANCH   2  25
BRANCH   7  27
HETATM   27  O   UNL     1       5.127  28.611  50.691  1.00  0.00    -0.343 OA
HETATM   28  H   UNL     1       5.650  27.828  50.917  1.00  0.00     0.219 HD
ENDBRANCH   7  27
TORSDOF 6
ENDMDL
MODEL 5
REMARK VINA RESULT:      -7.4      3.192      6.222
REMARK  6 active torsions:
REMARK  status: ('A' for Active; 'I' for Inactive)
REMARK    1  A    between atoms: C_2  and  O_3 
REMARK    2  A    between atoms: O_3  and  C_4 
REMARK    3  A    between atoms: C_4  and  C_5 
REMARK    4  A    between atoms: C_6  and  O_7 
REMARK    5  A    between atoms: C_12  and  O_13 
REMARK    6  A    between atoms: C_17  and  C_18 
ROOT
HETATM    1  C   UNL     1       5.994  27.412  56.297  1.00  0.00     0.133 C 
HETATM    2  C   UNL     1       7.344  28.160  56.567  1.00  0.00     0.073 C 
HETATM    3  C   UNL     1       7.110  29.546  57.191  1.00  0.00     0.047 C 
HETATM    4  C   UNL     1       8.256  27.346  57.539  1.00  0.00     0.097 C 
HETATM    5  C   UNL     1       8.195  25.895  57.225  1.00  0.00     0.042 A 
HETATM    6  C   UNL     1       7.248  25.240  56.467  1.00  0.00     0.030 A 
HETATM    7  C   UNL     1       7.655  23.899  56.530  1.00  0.00     0.190 A 
HETATM    8  N   UNL     1       8.745  23.705  57.262  1.00  0.00    -0.149 NA
HETATM    9  N   UNL     1       9.077  24.946  57.659  1.00  0.00    -0.279 N 
HETATM   10  H   UNL     1       9.908  25.063  58.229  1.00  0.00     0.189 HD
HETATM   11  C   UNL     1       6.097  25.935  55.820  1.00  0.00     0.075 C 
ENDROOT
BRANCH  11  12
HETATM   12  C   UNL     1       6.211  25.680  54.325  1.00  0.00    -0.045 A 
HETATM   13  C   UNL     1       5.143  25.231  53.531  1.00  0.00     0.050 A 
HETATM   14  C   UNL     1       5.323  25.007  52.168  1.00  0.00     0.117 A 
HETATM   15  F   UNL     1       4.293  24.573  51.431  1.00  0.00    -0.206 F 
HETATM   16  C   UNL     1       6.552  25.222  51.560  1.00  0.00     0.042 A 
HETATM   17  C   UNL     1       7.624  25.667  52.327  1.00  0.00     0.004 A 
HETATM   18  C   UNL     1       7.456  25.889  53.697  1.00  0.00     0.008 A 
ENDBRANCH  11  12
BRANCH   1  19
HETATM   19  C   UNL     1       5.002  28.148  55.422  1.00  0.00     0.267 C 
HETATM   20  O   UNL     1       3.798  28.166  55.652  1.00  0.00    -0.265 OA
BRANCH  19  21
HETATM   21  O   UNL     1       5.597  28.730  54.347  1.00  0.00    -0.316 OA
BRANCH  21  22
HETATM   22  C   UNL     1       4.772  28.941  53.185  1.00  0.00     0.123 C 
HETATM   23  C   UNL     1       5.610  28.780  51.923  1.00  0.00     0.040 C 
HETATM   24  C   UNL     1       4.220  30.358  53.286  1.00  0.00     0.040 C 
ENDBRANCH  21  22
ENDBRANCH  19  21
ENDBRANCH   1  19
BRANCH   2  25
HETATM   25  O   UNL     1       8.097  28.368  55.365  1.00  0.00    -0.389 OA
HETATM   26  H   UNL     1       9.046  28.353  55.598  1.00  0.00     0.210 HD
ENDBRANCH   2  25
BRANCH   7  27
HETATM   27  O   UNL     1       7.117  22.817  55.962  1.00  0.00    -0.343 OA
HETATM   28  H   UNL     1       7.238  22.055  56.546  1.00  0.00     0.219 HD
ENDBRANCH   7  27
TORSDOF 6
ENDMDL
MODEL 6
REMARK VINA RESULT:      -7.4      2.437      3.713
REMARK  6 active torsions:
REMARK  status: ('A' for Active; 'I' for Inactive)
REMARK    1  A    between atoms: C_2  and  O_3 
REMARK    2  A    between atoms: O_3  and  C_4 
REMARK    3  A    between atoms: C_4  and  C_5 
REMARK    4  A    between atoms: C_6  and  O_7 
REMARK    5  A    between atoms: C_12  and  O_13 
REMARK    6  A    between atoms: C_17  and  C_18 
ROOT
HETATM    1  C   UNL     1       4.681  27.444  53.734  1.00  0.00     0.133 C 
HETATM    2  C   UNL     1       5.311  28.547  52.818  1.00  0.00     0.073 C 
HETATM    3  C   UNL     1       5.095  28.238  51.327  1.00  0.00     0.047 C 
HETATM    4  C   UNL     1       4.687  29.949  53.110  1.00  0.00     0.097 C 
HETATM    5  C   UNL     1       4.488  30.141  54.569  1.00  0.00     0.042 A 
HETATM    6  C   UNL     1       4.480  29.171  55.550  1.00  0.00     0.030 A 
HETATM    7  C   UNL     1       4.219  29.898  56.721  1.00  0.00     0.190 A 
HETATM    8  N   UNL     1       4.063  31.200  56.518  1.00  0.00    -0.149 NA
HETATM    9  N   UNL     1       4.258  31.334  55.194  1.00  0.00    -0.279 N 
HETATM   10  H   UNL     1       4.207  32.264  54.791  1.00  0.00     0.189 HD
HETATM   11  C   UNL     1       4.686  27.722  55.265  1.00  0.00     0.075 C 
ENDROOT
BRANCH  11  12
HETATM   12  C   UNL     1       5.907  27.285  56.060  1.00  0.00    -0.045 A 
HETATM   13  C   UNL     1       7.109  28.010  56.097  1.00  0.00     0.050 A 
HETATM   14  C   UNL     1       8.192  27.544  56.837  1.00  0.00     0.117 A 
HETATM   15  F   UNL     1       9.331  28.247  56.853  1.00  0.00    -0.206 F 
HETATM   16  C   UNL     1       8.114  26.360  57.558  1.00  0.00     0.042 A 
HETATM   17  C   UNL     1       6.933  25.625  57.537  1.00  0.00     0.004 A 
HETATM   18  C   UNL     1       5.842  26.081  56.790  1.00  0.00     0.008 A 
ENDBRANCH  11  12
BRANCH   1  19
HETATM   19  C   UNL     1       5.162  26.032  53.485  1.00  0.00     0.267 C 
HETATM   20  O   UNL     1       4.403  25.073  53.411  1.00  0.00    -0.265 OA
BRANCH  19  21
HETATM   21  O   UNL     1       6.518  25.957  53.403  1.00  0.00    -0.316 OA
BRANCH  21  22
HETATM   22  C   UNL     1       7.082  24.654  53.161  1.00  0.00     0.123 C 
HETATM   23  C   UNL     1       7.957  24.245  54.339  1.00  0.00     0.040 C 
HETATM   24  C   UNL     1       7.912  24.762  51.887  1.00  0.00     0.040 C 
ENDBRANCH  21  22
ENDBRANCH  19  21
ENDBRANCH   1  19
BRANCH   2  25
HETATM   25  O   UNL     1       6.725  28.671  53.015  1.00  0.00    -0.389 OA
HETATM   26  H   UNL     1       7.045  27.843  53.426  1.00  0.00     0.210 HD
ENDBRANCH   2  25
BRANCH   7  27
HETATM   27  O   UNL     1       4.118  29.475  57.983  1.00  0.00    -0.343 OA
HETATM   28  H   UNL     1       4.530  28.602  58.062  1.00  0.00     0.219 HD
ENDBRANCH   7  27
TORSDOF 6
ENDMDL
MODEL 7
REMARK VINA RESULT:      -7.4      1.956      2.921
REMARK  6 active torsions:
REMARK  status: ('A' for Active; 'I' for Inactive)
REMARK    1  A    between atoms: C_2  and  O_3 
REMARK    2  A    between atoms: O_3  and  C_4 
REMARK    3  A    between atoms: C_4  and  C_5 
REMARK    4  A    between atoms: C_6  and  O_7 
REMARK    5  A    between atoms: C_12  and  O_13 
REMARK    6  A    between atoms: C_17  and  C_18 
ROOT
HETATM    1  C   UNL     1       5.386  27.102  53.729  1.00  0.00     0.133 C 
HETATM    2  C   UNL     1       5.315  28.195  52.609  1.00  0.00     0.073 C 
HETATM    3  C   UNL     1       5.149  27.569  51.214  1.00  0.00     0.047 C 
HETATM    4  C   UNL     1       4.114  29.166  52.843  1.00  0.00     0.097 C 
HETATM    5  C   UNL     1       3.974  29.490  54.285  1.00  0.00     0.042 A 
HETATM    6  C   UNL     1       4.526  28.815  55.354  1.00  0.00     0.030 A 
HETATM    7  C   UNL     1       4.046  29.524  56.466  1.00  0.00     0.190 A 
HETATM    8  N   UNL     1       3.256  30.543  56.150  1.00  0.00    -0.149 NA
HETATM    9  N   UNL     1       3.246  30.522  54.806  1.00  0.00    -0.279 N 
HETATM   10  H   UNL     1       2.713  31.234  54.317  1.00  0.00     0.189 HD
HETATM   11  C   UNL     1       5.387  27.608  55.199  1.00  0.00     0.075 C 
ENDROOT
BRANCH  11  12
HETATM   12  C   UNL     1       6.730  27.940  55.833  1.00  0.00    -0.045 A 
HETATM   13  C   UNL     1       7.680  28.786  55.238  1.00  0.00     0.050 A 
HETATM   14  C   UNL     1       8.896  29.037  55.870  1.00  0.00     0.117 A 
HETATM   15  F   UNL     1       9.790  29.842  55.282  1.00  0.00    -0.206 F 
HETATM   16  C   UNL     1       9.198  28.465  57.098  1.00  0.00     0.042 A 
HETATM   17  C   UNL     1       8.273  27.624  57.706  1.00  0.00     0.004 A 
HETATM   18  C   UNL     1       7.052  27.360  57.076  1.00  0.00     0.008 A 
ENDBRANCH  11  12
BRANCH   1  19
HETATM   19  C   UNL     1       6.472  26.062  53.560  1.00  0.00     0.267 C 
HETATM   20  O   UNL     1       7.470  26.247  52.874  1.00  0.00    -0.265 OA
BRANCH  19  21
HETATM   21  O   UNL     1       6.182  24.905  54.213  1.00  0.00    -0.316 OA
BRANCH  21  22
HETATM   22  C   UNL     1       7.300  24.125  54.680  1.00  0.00     0.123 C 
HETATM   23  C   UNL     1       7.397  22.833  53.879  1.00  0.00     0.040 C 
HETATM   24  C   UNL     1       7.047  23.827  56.153  1.00  0.00     0.040 C 
ENDBRANCH  21  22
ENDBRANCH  19  21
ENDBRANCH   1  19
BRANCH   2  25
HETATM   25  O   UNL     1       6.500  29.000  52.564  1.00  0.00    -0.389 OA
HETATM   26  H   UNL     1       7.087  28.634  51.873  1.00  0.00     0.210 HD
ENDBRANCH   2  25
BRANCH   7  27
HETATM   27  O   UNL     1       4.274  29.327  57.766  1.00  0.00    -0.343 OA
HETATM   28  H   UNL     1       3.459  29.023  58.192  1.00  0.00     0.219 HD
ENDBRANCH   7  27
TORSDOF 6
ENDMDL
MODEL 8
REMARK VINA RESULT:      -7.1      9.111     11.519
REMARK  6 active torsions:
REMARK  status: ('A' for Active; 'I' for Inactive)
REMARK    1  A    between atoms: C_2  and  O_3 
REMARK    2  A    between atoms: O_3  and  C_4 
REMARK    3  A    between atoms: C_4  and  C_5 
REMARK    4  A    between atoms: C_6  and  O_7 
REMARK    5  A    between atoms: C_12  and  O_13 
REMARK    6  A    between atoms: C_17  and  C_18 
ROOT
HETATM    1  C   UNL     1       3.603  35.056  62.058  1.00  0.00     0.133 C 
HETATM    2  C   UNL     1       2.872  34.101  63.063  1.00  0.00     0.073 C 
HETATM    3  C   UNL     1       3.399  34.277  64.497  1.00  0.00     0.047 C 
HETATM    4  C   UNL     1       1.334  34.373  63.083  1.00  0.00     0.097 C 
HETATM    5  C   UNL     1       0.827  34.625  61.709  1.00  0.00     0.042 A 
HETATM    6  C   UNL     1       1.565  34.950  60.590  1.00  0.00     0.030 A 
HETATM    7  C   UNL     1       0.588  35.107  59.594  1.00  0.00     0.190 A 
HETATM    8  N   UNL     1      -0.651  34.914  60.028  1.00  0.00    -0.149 NA
HETATM    9  N   UNL     1      -0.482  34.594  61.322  1.00  0.00    -0.279 N 
HETATM   10  H   UNL     1      -1.304  34.379  61.877  1.00  0.00     0.189 HD
HETATM   11  C   UNL     1       3.049  35.096  60.605  1.00  0.00     0.075 C 
ENDROOT
BRANCH  11  12
HETATM   12  C   UNL     1       3.601  34.086  59.609  1.00  0.00    -0.045 A 
HETATM   13  C   UNL     1       3.322  32.711  59.663  1.00  0.00     0.050 A 
HETATM   14  C   UNL     1       3.872  31.842  58.724  1.00  0.00     0.117 A 
HETATM   15  F   UNL     1       3.598  30.533  58.797  1.00  0.00    -0.206 F 
HETATM   16  C   UNL     1       4.702  32.308  57.713  1.00  0.00     0.042 A 
HETATM   17  C   UNL     1       4.992  33.666  57.640  1.00  0.00     0.004 A 
HETATM   18  C   UNL     1       4.450  34.546  58.582  1.00  0.00     0.008 A 
ENDBRANCH  11  12
BRANCH   1  19
HETATM   19  C   UNL     1       5.110  34.928  62.011  1.00  0.00     0.267 C 
HETATM   20  O   UNL     1       5.854  35.888  61.851  1.00  0.00    -0.265 OA
BRANCH  19  21
HETATM   21  O   UNL     1       5.520  33.636  62.119  1.00  0.00    -0.316 OA
BRANCH  21  22
HETATM   22  C   UNL     1       6.911  33.373  61.853  1.00  0.00     0.123 C 
HETATM   23  C   UNL     1       7.037  32.381  60.703  1.00  0.00     0.040 C 
HETATM   24  C   UNL     1       7.504  32.792  63.131  1.00  0.00     0.040 C 
ENDBRANCH  21  22
ENDBRANCH  19  21
ENDBRANCH   1  19
BRANCH   2  25
HETATM   25  O   UNL     1       3.048  32.721  62.722  1.00  0.00    -0.389 OA
HETATM   26  H   UNL     1       2.219  32.404  62.311  1.00  0.00     0.210 HD
ENDBRANCH   2  25
BRANCH   7  27
HETATM   27  O   UNL     1       0.730  35.405  58.301  1.00  0.00    -0.343 OA
HETATM   28  H   UNL     1       0.487  34.636  57.766  1.00  0.00     0.219 HD
ENDBRANCH   7  27
TORSDOF 6
ENDMDL
MODEL 9
REMARK VINA RESULT:      -7.1      2.832      4.850
REMARK  6 active torsions:
REMARK  status: ('A' for Active; 'I' for Inactive)
REMARK    1  A    between atoms: C_2  and  O_3 
REMARK    2  A    between atoms: O_3  and  C_4 
REMARK    3  A    between atoms: C_4  and  C_5 
REMARK    4  A    between atoms: C_6  and  O_7 
REMARK    5  A    between atoms: C_12  and  O_13 
REMARK    6  A    between atoms: C_17  and  C_18 
ROOT
HETATM    1  C   UNL     1       6.130  28.895  55.249  1.00  0.00     0.133 C 
HETATM    2  C   UNL     1       4.763  28.952  56.012  1.00  0.00     0.073 C 
HETATM    3  C   UNL     1       4.942  29.441  57.460  1.00  0.00     0.047 C 
HETATM    4  C   UNL     1       3.760  29.918  55.303  1.00  0.00     0.097 C 
HETATM    5  C   UNL     1       3.845  29.772  53.827  1.00  0.00     0.042 A 
HETATM    6  C   UNL     1       4.858  29.182  53.100  1.00  0.00     0.030 A 
HETATM    7  C   UNL     1       4.442  29.353  51.771  1.00  0.00     0.190 A 
HETATM    8  N   UNL     1       3.287  29.996  51.651  1.00  0.00    -0.149 NA
HETATM    9  N   UNL     1       2.923  30.221  52.925  1.00  0.00    -0.279 N 
HETATM   10  H   UNL     1       2.043  30.694  53.098  1.00  0.00     0.189 HD
HETATM   11  C   UNL     1       6.067  28.576  53.728  1.00  0.00     0.075 C 
ENDROOT
BRANCH  11  12
HETATM   12  C   UNL     1       6.094  27.113  53.310  1.00  0.00    -0.045 A 
HETATM   13  C   UNL     1       4.958  26.289  53.296  1.00  0.00     0.050 A 
HETATM   14  C   UNL     1       5.058  24.954  52.912  1.00  0.00     0.117 A 
HETATM   15  F   UNL     1       3.963  24.183  52.913  1.00  0.00    -0.206 F 
HETATM   16  C   UNL     1       6.276  24.405  52.532  1.00  0.00     0.042 A 
HETATM   17  C   UNL     1       7.415  25.203  52.537  1.00  0.00     0.004 A 
HETATM   18  C   UNL     1       7.326  26.543  52.928  1.00  0.00     0.008 A 
ENDBRANCH  11  12
BRANCH   1  19
HETATM   19  C   UNL     1       7.203  28.043  55.891  1.00  0.00     0.267 C 
HETATM   20  O   UNL     1       8.400  28.284  55.780  1.00  0.00    -0.265 OA
BRANCH  19  21
HETATM   21  O   UNL     1       6.684  26.973  56.550  1.00  0.00    -0.316 OA
BRANCH  21  22
HETATM   22  C   UNL     1       7.404  25.730  56.435  1.00  0.00     0.123 C 
HETATM   23  C   UNL     1       6.421  24.582  56.238  1.00  0.00     0.040 C 
HETATM   24  C   UNL     1       8.186  25.551  57.731  1.00  0.00     0.040 C 
ENDBRANCH  21  22
ENDBRANCH  19  21
ENDBRANCH   1  19
BRANCH   2  25
HETATM   25  O   UNL     1       4.129  27.670  56.083  1.00  0.00    -0.389 OA
HETATM   26  H   UNL     1       4.094  27.403  57.022  1.00  0.00     0.210 HD
ENDBRANCH   2  25
BRANCH   7  27
HETATM   27  O   UNL     1       5.027  28.960  50.637  1.00  0.00    -0.343 OA
HETATM   28  H   UNL     1       5.525  28.146  50.799  1.00  0.00     0.219 HD
ENDBRANCH   7  27
TORSDOF 6
ENDMDL
MODEL 10
REMARK VINA RESULT:      -6.8     10.250     13.551
REMARK  6 active torsions:
REMARK  status: ('A' for Active; 'I' for Inactive)
REMARK    1  A    between atoms: C_2  and  O_3 
REMARK    2  A    between atoms: O_3  and  C_4 
REMARK    3  A    between atoms: C_4  and  C_5 
REMARK    4  A    between atoms: C_6  and  O_7 
REMARK    5  A    between atoms: C_12  and  O_13 
REMARK    6  A    between atoms: C_17  and  C_18 
ROOT
HETATM    1  C   UNL     1       4.934  36.300  61.805  1.00  0.00     0.133 C 
HETATM    2  C   UNL     1       3.387  36.532  61.877  1.00  0.00     0.073 C 
HETATM    3  C   UNL     1       3.006  37.955  61.433  1.00  0.00     0.047 C 
HETATM    4  C   UNL     1       2.621  35.526  60.960  1.00  0.00     0.097 C 
HETATM    5  C   UNL     1       3.230  34.173  61.041  1.00  0.00     0.042 A 
HETATM    6  C   UNL     1       4.478  33.844  61.527  1.00  0.00     0.030 A 
HETATM    7  C   UNL     1       4.542  32.455  61.335  1.00  0.00     0.190 A 
HETATM    8  N   UNL     1       3.454  31.943  60.774  1.00  0.00    -0.149 NA
HETATM    9  N   UNL     1       2.649  33.009  60.626  1.00  0.00    -0.279 N 
HETATM   10  H   UNL     1       1.728  32.865  60.225  1.00  0.00     0.189 HD
HETATM   11  C   UNL     1       5.435  34.851  62.068  1.00  0.00     0.075 C 
ENDROOT
BRANCH  11  12
HETATM   12  C   UNL     1       5.727  34.453  63.507  1.00  0.00    -0.045 A 
HETATM   13  C   UNL     1       4.735  34.319  64.492  1.00  0.00     0.050 A 
HETATM   14  C   UNL     1       5.076  33.963  65.794  1.00  0.00     0.117 A 
HETATM   15  F   UNL     1       4.115  33.847  66.719  1.00  0.00    -0.206 F 
HETATM   16  C   UNL     1       6.396  33.728  66.152  1.00  0.00     0.042 A 
HETATM   17  C   UNL     1       7.397  33.855  65.194  1.00  0.00     0.004 A 
HETATM   18  C   UNL     1       7.065  34.219  63.885  1.00  0.00     0.008 A 
ENDBRANCH  11  12
BRANCH   1  19
HETATM   19  C   UNL     1       5.780  37.270  62.601  1.00  0.00     0.267 C 
HETATM   20  O   UNL     1       5.603  37.482  63.795  1.00  0.00    -0.265 OA
BRANCH  19  21
HETATM   21  O   UNL     1       6.706  37.898  61.828  1.00  0.00    -0.316 OA
BRANCH  21  22
HETATM   22  C   UNL     1       6.430  39.266  61.469  1.00  0.00     0.123 C 
HETATM   23  C   UNL     1       6.320  39.387  59.954  1.00  0.00     0.040 C 
HETATM   24  C   UNL     1       7.591  40.103  61.992  1.00  0.00     0.040 C 
ENDBRANCH  21  22
ENDBRANCH  19  21
ENDBRANCH   1  19
BRANCH   2  25
HETATM   25  O   UNL     1       2.875  36.360  63.204  1.00  0.00    -0.389 OA
HETATM   26  H   UNL     1       3.317  35.582  63.598  1.00  0.00     0.210 HD
ENDBRANCH   2  25
BRANCH   7  27
HETATM   27  O   UNL     1       5.518  31.596  61.639  1.00  0.00    -0.343 OA
HETATM   28  H   UNL     1       5.609  30.949  60.925  1.00  0.00     0.219 HD
ENDBRANCH   7  27
TORSDOF 6
ENDMDL
