MODEL 1
REMARK VINA RESULT:     -10.5      0.000      0.000
REMARK  10 active torsions:
REMARK  status: ('A' for Active; 'I' for Inactive)
REMARK    1  A    between atoms: C_2  and  C_3 
REMARK    2  A    between atoms: C_3  and  C_4 
REMARK    3  A    between atoms: C_4  and  O_5 
REMARK    4  A    between atoms: O_5  and  C_6 
REMARK    5  A    between atoms: C_9  and  C_10 
REMARK       I    between atoms: C_10  and  N_11 
REMARK    6  A    between atoms: N_11  and  C_12 
REMARK    7  A    between atoms: C_12  and  N_13 
REMARK    8  A    between atoms: N_13  and  C_14 
REMARK    9  A    between atoms: C_16  and  C_17 
REMARK   10  A    between atoms: C_27  and  O_28 
ROOT
HETATM    1  N   UNL     1       8.019  29.467  59.225  1.00  0.00    -0.333 N 
HETATM    2  H   UNL     1       8.068  28.717  59.910  1.00  0.00     0.168 HD
ENDROOT
BRANCH   1   3
HETATM    3  C   UNL     1       8.293  30.682  59.790  1.00  0.00     0.179 C 
HETATM    4  S   UNL     1       9.500  31.594  59.070  1.00  0.00    -0.040 SA
BRANCH   3   5
HETATM    5  N   UNL     1       7.502  31.090  60.830  1.00  0.00    -0.299 N 
HETATM    6  C   UNL     1       7.937  31.319  62.126  1.00  0.00     0.257 C 
HETATM    7  O   UNL     1       8.616  30.535  62.780  1.00  0.00    -0.267 OA
HETATM    8  H   UNL     1       6.685  31.602  60.525  1.00  0.00     0.171 HD
BRANCH   6   9
HETATM    9  C   UNL     1       7.334  32.489  62.798  1.00  0.00     0.032 A 
HETATM   10  C   UNL     1       6.320  33.193  62.145  1.00  0.00     0.020 A 
HETATM   11  C   UNL     1       5.708  34.281  62.773  1.00  0.00     0.038 A 
HETATM   12  C   UNL     1       6.093  34.653  64.063  1.00  0.00     0.068 A 
HETATM   13  C   UNL     1       7.094  33.927  64.720  1.00  0.00     0.038 A 
HETATM   14  C   UNL     1       7.724  32.849  64.090  1.00  0.00     0.020 A 
BRANCH  12  15
HETATM   15  O   UNL     1       5.555  35.678  64.794  1.00  0.00    -0.351 OA
BRANCH  15  16
HETATM   16  C   UNL     1       4.137  35.667  64.965  1.00  0.00     0.175 C 
BRANCH  16  17
HETATM   17  C   UNL     1       3.838  35.719  66.460  1.00  0.00     0.026 C 
BRANCH  17  18
HETATM   18  C   UNL     1       4.132  34.380  67.134  1.00  0.00    -0.002 C 
HETATM   19  C   UNL     1       5.310  34.478  68.088  1.00  0.00     0.005 C 
ENDBRANCH  17  18
ENDBRANCH  16  17
ENDBRANCH  15  16
ENDBRANCH  12  15
ENDBRANCH   6   9
ENDBRANCH   3   5
ENDBRANCH   1   3
BRANCH   1  20
HETATM   20  C   UNL     1       7.450  29.105  57.985  1.00  0.00     0.035 A 
HETATM   21  C   UNL     1       7.714  27.917  57.292  1.00  0.00     0.048 A 
HETATM   22  C   UNL     1       7.163  27.684  56.015  1.00  0.00     0.052 A 
HETATM   23  C   UNL     1       6.364  28.681  55.436  1.00  0.00     0.080 A 
HETATM   24  C   UNL     1       6.085  29.859  56.117  1.00  0.00     0.040 A 
HETATM   25  C   UNL     1       6.625  30.067  57.385  1.00  0.00     0.032 A 
BRANCH  22  26
HETATM   26  C   UNL     1       7.416  26.443  55.289  1.00  0.00     0.183 A 
HETATM   27  O   UNL     1       7.500  25.286  56.021  1.00  0.00    -0.289 OA
HETATM   28  C   UNL     1       7.627  24.310  55.073  1.00  0.00     0.107 A 
HETATM   29  C   UNL     1       7.634  24.922  53.831  1.00  0.00     0.093 A 
HETATM   30  C   UNL     1       7.719  22.938  55.278  1.00  0.00     0.046 A 
HETATM   31  N   UNL     1       7.484  26.278  53.978  1.00  0.00    -0.221 NA
HETATM   32  C   UNL     1       7.762  24.132  52.684  1.00  0.00     0.035 A 
HETATM   33  C   UNL     1       7.856  22.741  52.846  1.00  0.00     0.009 A 
HETATM   34  C   UNL     1       7.828  22.146  54.121  1.00  0.00    -0.059 A 
HETATM   35  C   UNL     1       7.893  20.648  54.231  1.00  0.00     0.048 C 
ENDBRANCH  22  26
BRANCH  23  36
HETATM   36  O   UNL     1       5.818  28.570  54.182  1.00  0.00    -0.360 OA
HETATM   37  H   UNL     1       6.159  29.305  53.626  1.00  0.00     0.217 HD
ENDBRANCH  23  36
ENDBRANCH   1  20
TORSDOF 10
ENDMDL
MODEL 2
REMARK VINA RESULT:     -10.4      1.581      2.112
REMARK  10 active torsions:
REMARK  status: ('A' for Active; 'I' for Inactive)
REMARK    1  A    between atoms: C_2  and  C_3 
REMARK    2  A    between atoms: C_3  and  C_4 
REMARK    3  A    between atoms: C_4  and  O_5 
REMARK    4  A    between atoms: O_5  and  C_6 
REMARK    5  A    between atoms: C_9  and  C_10 
REMARK       I    between atoms: C_10  and  N_11 
REMARK    6  A    between atoms: N_11  and  C_12 
REMARK    7  A    between atoms: C_12  and  N_13 
REMARK    8  A    between atoms: N_13  and  C_14 
REMARK    9  A    between atoms: C_16  and  C_17 
REMARK   10  A    between atoms: C_27  and  O_28 
ROOT
HETATM    1  N   UNL     1       8.356  29.368  58.543  1.00  0.00    -0.333 N 
HETATM    2  H   UNL     1       7.973  29.244  59.477  1.00  0.00     0.168 HD
ENDROOT
BRANCH   1   3
HETATM    3  C   UNL     1       9.269  30.385  58.504  1.00  0.00     0.179 C 
HETATM    4  S   UNL     1      10.495  30.258  57.370  1.00  0.00    -0.040 SA
BRANCH   3   5
HETATM    5  N   UNL     1       9.053  31.461  59.324  1.00  0.00    -0.299 N 
HETATM    6  C   UNL     1       7.814  32.008  59.619  1.00  0.00     0.257 C 
HETATM    7  O   UNL     1       6.972  32.313  58.782  1.00  0.00    -0.267 OA
HETATM    8  H   UNL     1       9.782  31.580  60.014  1.00  0.00     0.171 HD
BRANCH   6   9
HETATM    9  C   UNL     1       7.632  32.441  61.021  1.00  0.00     0.032 A 
HETATM   10  C   UNL     1       6.559  33.277  61.334  1.00  0.00     0.020 A 
HETATM   11  C   UNL     1       6.343  33.672  62.657  1.00  0.00     0.038 A 
HETATM   12  C   UNL     1       7.187  33.213  63.672  1.00  0.00     0.068 A 
HETATM   13  C   UNL     1       8.247  32.357  63.352  1.00  0.00     0.038 A 
HETATM   14  C   UNL     1       8.480  31.973  62.028  1.00  0.00     0.020 A 
BRANCH  12  15
HETATM   15  O   UNL     1       7.067  33.504  65.003  1.00  0.00    -0.351 OA
BRANCH  15  16
HETATM   16  C   UNL     1       5.897  34.221  65.399  1.00  0.00     0.175 C 
BRANCH  16  17
HETATM   17  C   UNL     1       5.851  34.252  66.925  1.00  0.00     0.026 C 
BRANCH  17  18
HETATM   18  C   UNL     1       4.423  34.432  67.435  1.00  0.00    -0.002 C 
HETATM   19  C   UNL     1       3.530  35.076  66.387  1.00  0.00     0.005 C 
ENDBRANCH  17  18
ENDBRANCH  16  17
ENDBRANCH  15  16
ENDBRANCH  12  15
ENDBRANCH   6   9
ENDBRANCH   3   5
ENDBRANCH   1   3
BRANCH   1  20
HETATM   20  C   UNL     1       7.682  28.658  57.525  1.00  0.00     0.035 A 
HETATM   21  C   UNL     1       7.855  27.299  57.237  1.00  0.00     0.048 A 
HETATM   22  C   UNL     1       7.200  26.700  56.141  1.00  0.00     0.052 A 
HETATM   23  C   UNL     1       6.390  27.502  55.323  1.00  0.00     0.080 A 
HETATM   24  C   UNL     1       6.201  28.849  55.603  1.00  0.00     0.040 A 
HETATM   25  C   UNL     1       6.843  29.422  56.700  1.00  0.00     0.032 A 
BRANCH  22  26
HETATM   26  C   UNL     1       7.357  25.281  55.841  1.00  0.00     0.183 A 
HETATM   27  O   UNL     1       7.417  24.915  54.520  1.00  0.00    -0.289 OA
HETATM   28  C   UNL     1       7.673  23.573  54.565  1.00  0.00     0.107 A 
HETATM   29  C   UNL     1       7.733  23.197  55.897  1.00  0.00     0.093 A 
HETATM   30  C   UNL     1       7.861  22.711  53.491  1.00  0.00     0.046 A 
HETATM   31  N   UNL     1       7.547  24.292  56.701  1.00  0.00    -0.221 NA
HETATM   32  C   UNL     1       7.979  21.857  56.214  1.00  0.00     0.035 A 
HETATM   33  C   UNL     1       8.176  20.953  55.159  1.00  0.00     0.009 A 
HETATM   34  C   UNL     1       8.127  21.368  53.815  1.00  0.00    -0.059 A 
HETATM   35  C   UNL     1       8.385  20.362  52.728  1.00  0.00     0.048 C 
ENDBRANCH  22  26
BRANCH  23  36
HETATM   36  O   UNL     1       5.746  27.026  54.209  1.00  0.00    -0.360 OA
HETATM   37  H   UNL     1       6.248  27.306  53.413  1.00  0.00     0.217 HD
ENDBRANCH  23  36
ENDBRANCH   1  20
TORSDOF 10
ENDMDL
MODEL 3
REMARK VINA RESULT:      -9.9      2.785     11.458
REMARK  10 active torsions:
REMARK  status: ('A' for Active; 'I' for Inactive)
REMARK    1  A    between atoms: C_2  and  C_3 
REMARK    2  A    between atoms: C_3  and  C_4 
REMARK    3  A    between atoms: C_4  and  O_5 
REMARK    4  A    between atoms: O_5  and  C_6 
REMARK    5  A    between atoms: C_9  and  C_10 
REMARK       I    between atoms: C_10  and  N_11 
REMARK    6  A    between atoms: N_11  and  C_12 
REMARK    7  A    between atoms: C_12  and  N_13 
REMARK    8  A    between atoms: N_13  and  C_14 
REMARK    9  A    between atoms: C_16  and  C_17 
REMARK   10  A    between atoms: C_27  and  O_28 
ROOT
HETATM    1  N   UNL     1       4.932  29.553  55.061  1.00  0.00    -0.333 N 
HETATM    2  H   UNL     1       4.314  30.344  55.221  1.00  0.00     0.168 HD
ENDROOT
BRANCH   1   3
HETATM    3  C   UNL     1       4.328  28.586  54.306  1.00  0.00     0.179 C 
HETATM    4  S   UNL     1       3.456  29.104  52.973  1.00  0.00    -0.040 SA
BRANCH   3   5
HETATM    5  N   UNL     1       4.561  27.280  54.645  1.00  0.00    -0.299 N 
HETATM    6  C   UNL     1       5.136  26.328  53.818  1.00  0.00     0.257 C 
HETATM    7  O   UNL     1       4.780  26.101  52.667  1.00  0.00    -0.267 OA
HETATM    8  H   UNL     1       4.670  27.147  55.641  1.00  0.00     0.171 HD
BRANCH   6   9
HETATM    9  C   UNL     1       6.079  25.402  54.480  1.00  0.00     0.032 A 
HETATM   10  C   UNL     1       6.967  24.667  53.692  1.00  0.00     0.020 A 
HETATM   11  C   UNL     1       7.893  23.811  54.296  1.00  0.00     0.038 A 
HETATM   12  C   UNL     1       7.946  23.705  55.688  1.00  0.00     0.068 A 
HETATM   13  C   UNL     1       7.067  24.464  56.470  1.00  0.00     0.038 A 
HETATM   14  C   UNL     1       6.126  25.307  55.873  1.00  0.00     0.020 A 
BRANCH  12  15
HETATM   15  O   UNL     1       8.820  22.928  56.397  1.00  0.00    -0.351 OA
BRANCH  15  16
HETATM   16  C   UNL     1       8.427  21.575  56.632  1.00  0.00     0.175 C 
BRANCH  16  17
HETATM   17  C   UNL     1       9.139  20.689  55.613  1.00  0.00     0.026 C 
BRANCH  17  18
HETATM   18  C   UNL     1       8.175  20.195  54.537  1.00  0.00    -0.002 C 
HETATM   19  C   UNL     1       8.691  20.497  53.139  1.00  0.00     0.005 C 
ENDBRANCH  17  18
ENDBRANCH  16  17
ENDBRANCH  15  16
ENDBRANCH  12  15
ENDBRANCH   6   9
ENDBRANCH   3   5
ENDBRANCH   1   3
BRANCH   1  20
HETATM   20  C   UNL     1       6.107  29.548  55.845  1.00  0.00     0.035 A 
HETATM   21  C   UNL     1       6.247  30.168  57.093  1.00  0.00     0.048 A 
HETATM   22  C   UNL     1       7.489  30.182  57.761  1.00  0.00     0.052 A 
HETATM   23  C   UNL     1       8.595  29.585  57.135  1.00  0.00     0.080 A 
HETATM   24  C   UNL     1       8.467  28.958  55.902  1.00  0.00     0.040 A 
HETATM   25  C   UNL     1       7.228  28.939  55.264  1.00  0.00     0.032 A 
BRANCH  22  26
HETATM   26  C   UNL     1       7.645  30.808  59.070  1.00  0.00     0.183 A 
HETATM   27  O   UNL     1       6.808  31.850  59.378  1.00  0.00    -0.289 OA
HETATM   28  C   UNL     1       7.116  32.142  60.677  1.00  0.00     0.107 A 
HETATM   29  C   UNL     1       8.128  31.284  61.076  1.00  0.00     0.093 A 
HETATM   30  C   UNL     1       6.531  33.106  61.490  1.00  0.00     0.046 A 
HETATM   31  N   UNL     1       8.447  30.429  60.053  1.00  0.00    -0.221 NA
HETATM   32  C   UNL     1       8.632  31.386  62.377  1.00  0.00     0.035 A 
HETATM   33  C   UNL     1       8.068  32.347  63.231  1.00  0.00     0.009 A 
HETATM   34  C   UNL     1       7.028  33.193  62.802  1.00  0.00    -0.059 A 
HETATM   35  C   UNL     1       6.437  34.176  63.774  1.00  0.00     0.048 C 
ENDBRANCH  22  26
BRANCH  23  36
HETATM   36  O   UNL     1       9.854  29.584  57.681  1.00  0.00    -0.360 OA
HETATM   37  H   UNL     1      10.297  30.428  57.446  1.00  0.00     0.217 HD
ENDBRANCH  23  36
ENDBRANCH   1  20
TORSDOF 10
ENDMDL
MODEL 4
REMARK VINA RESULT:      -9.9      2.598     11.867
REMARK  10 active torsions:
REMARK  status: ('A' for Active; 'I' for Inactive)
REMARK    1  A    between atoms: C_2  and  C_3 
REMARK    2  A    between atoms: C_3  and  C_4 
REMARK    3  A    between atoms: C_4  and  O_5 
REMARK    4  A    between atoms: O_5  and  C_6 
REMARK    5  A    between atoms: C_9  and  C_10 
REMARK       I    between atoms: C_10  and  N_11 
REMARK    6  A    between atoms: N_11  and  C_12 
REMARK    7  A    between atoms: C_12  and  N_13 
REMARK    8  A    between atoms: N_13  and  C_14 
REMARK    9  A    between atoms: C_16  and  C_17 
REMARK   10  A    between atoms: C_27  and  O_28 
ROOT
HETATM    1  N   UNL     1       6.346  29.300  55.308  1.00  0.00    -0.333 N 
HETATM    2  H   UNL     1       6.590  29.784  54.448  1.00  0.00     0.168 HD
ENDROOT
BRANCH   1   3
HETATM    3  C   UNL     1       5.143  28.658  55.202  1.00  0.00     0.179 C 
HETATM    4  S   UNL     1       3.768  29.589  55.426  1.00  0.00    -0.040 SA
BRANCH   3   5
HETATM    5  N   UNL     1       5.160  27.340  54.833  1.00  0.00    -0.299 N 
HETATM    6  C   UNL     1       5.336  26.872  53.541  1.00  0.00     0.257 C 
HETATM    7  O   UNL     1       4.710  27.271  52.565  1.00  0.00    -0.267 OA
HETATM    8  H   UNL     1       5.441  26.725  55.585  1.00  0.00     0.171 HD
BRANCH   6   9
HETATM    9  C   UNL     1       6.177  25.662  53.416  1.00  0.00     0.032 A 
HETATM   10  C   UNL     1       6.994  25.523  52.292  1.00  0.00     0.020 A 
HETATM   11  C   UNL     1       7.826  24.406  52.168  1.00  0.00     0.038 A 
HETATM   12  C   UNL     1       7.857  23.439  53.176  1.00  0.00     0.068 A 
HETATM   13  C   UNL     1       7.052  23.600  54.309  1.00  0.00     0.038 A 
HETATM   14  C   UNL     1       6.204  24.704  54.432  1.00  0.00     0.020 A 
BRANCH  12  15
HETATM   15  O   UNL     1       8.644  22.320  53.185  1.00  0.00    -0.351 OA
BRANCH  15  16
HETATM   16  C   UNL     1       9.088  21.860  54.463  1.00  0.00     0.175 C 
BRANCH  16  17
HETATM   17  C   UNL     1       8.516  20.464  54.690  1.00  0.00     0.026 C 
BRANCH  17  18
HETATM   18  C   UNL     1       7.861  20.348  56.065  1.00  0.00    -0.002 C 
HETATM   19  C   UNL     1       8.394  21.394  57.030  1.00  0.00     0.005 C 
ENDBRANCH  17  18
ENDBRANCH  16  17
ENDBRANCH  15  16
ENDBRANCH  12  15
ENDBRANCH   6   9
ENDBRANCH   3   5
ENDBRANCH   1   3
BRANCH   1  20
HETATM   20  C   UNL     1       7.155  29.621  56.421  1.00  0.00     0.035 A 
HETATM   21  C   UNL     1       6.743  30.373  57.528  1.00  0.00     0.048 A 
HETATM   22  C   UNL     1       7.652  30.716  58.551  1.00  0.00     0.052 A 
HETATM   23  C   UNL     1       8.990  30.312  58.423  1.00  0.00     0.080 A 
HETATM   24  C   UNL     1       9.409  29.558  57.335  1.00  0.00     0.040 A 
HETATM   25  C   UNL     1       8.494  29.213  56.342  1.00  0.00     0.032 A 
BRANCH  22  26
HETATM   26  C   UNL     1       7.232  31.484  59.719  1.00  0.00     0.183 A 
HETATM   27  O   UNL     1       7.821  31.183  60.920  1.00  0.00    -0.289 OA
HETATM   28  C   UNL     1       7.315  32.121  61.775  1.00  0.00     0.107 A 
HETATM   29  C   UNL     1       6.441  32.921  61.058  1.00  0.00     0.093 A 
HETATM   30  C   UNL     1       7.614  32.288  63.122  1.00  0.00     0.046 A 
HETATM   31  N   UNL     1       6.406  32.518  59.747  1.00  0.00    -0.221 NA
HETATM   32  C   UNL     1       5.780  33.965  61.714  1.00  0.00     0.035 A 
HETATM   33  C   UNL     1       6.053  34.168  63.076  1.00  0.00     0.009 A 
HETATM   34  C   UNL     1       6.961  33.350  63.774  1.00  0.00    -0.059 A 
HETATM   35  C   UNL     1       7.244  33.640  65.222  1.00  0.00     0.048 C 
ENDBRANCH  22  26
BRANCH  23  36
HETATM   36  O   UNL     1       9.960  30.633  59.340  1.00  0.00    -0.360 OA
HETATM   37  H   UNL     1       9.883  30.020  60.103  1.00  0.00     0.217 HD
ENDBRANCH  23  36
ENDBRANCH   1  20
TORSDOF 10
ENDMDL
MODEL 5
REMARK VINA RESULT:      -9.7      3.160      4.634
REMARK  10 active torsions:
REMARK  status: ('A' for Active; 'I' for Inactive)
REMARK    1  A    between atoms: C_2  and  C_3 
REMARK    2  A    between atoms: C_3  and  C_4 
REMARK    3  A    between atoms: C_4  and  O_5 
REMARK    4  A    between atoms: O_5  and  C_6 
REMARK    5  A    between atoms: C_9  and  C_10 
REMARK       I    between atoms: C_10  and  N_11 
REMARK    6  A    between atoms: N_11  and  C_12 
REMARK    7  A    between atoms: C_12  and  N_13 
REMARK    8  A    between atoms: N_13  and  C_14 
REMARK    9  A    between atoms: C_16  and  C_17 
REMARK   10  A    between atoms: C_27  and  O_28 
ROOT
HETATM    1  N   UNL     1       6.100  29.724  54.981  1.00  0.00    -0.333 N 
HETATM    2  H   UNL     1       6.776  30.244  54.428  1.00  0.00     0.168 HD
ENDROOT
BRANCH   1   3
HETATM    3  C   UNL     1       4.883  30.347  55.004  1.00  0.00     0.179 C 
HETATM    4  S   UNL     1       3.754  29.841  53.875  1.00  0.00    -0.040 SA
BRANCH   3   5
HETATM    5  N   UNL     1       4.657  31.259  56.001  1.00  0.00    -0.299 N 
HETATM    6  C   UNL     1       3.927  31.021  57.154  1.00  0.00     0.257 C 
HETATM    7  O   UNL     1       2.806  30.525  57.177  1.00  0.00    -0.267 OA
HETATM    8  H   UNL     1       5.374  31.970  56.051  1.00  0.00     0.171 HD
BRANCH   6   9
HETATM    9  C   UNL     1       4.477  31.625  58.386  1.00  0.00     0.032 A 
HETATM   10  C   UNL     1       3.631  31.811  59.481  1.00  0.00     0.020 A 
HETATM   11  C   UNL     1       4.134  32.347  60.670  1.00  0.00     0.038 A 
HETATM   12  C   UNL     1       5.488  32.677  60.772  1.00  0.00     0.068 A 
HETATM   13  C   UNL     1       6.333  32.466  59.677  1.00  0.00     0.038 A 
HETATM   14  C   UNL     1       5.833  31.948  58.478  1.00  0.00     0.020 A 
BRANCH  12  15
HETATM   15  O   UNL     1       6.106  33.182  61.884  1.00  0.00    -0.351 OA
BRANCH  15  16
HETATM   16  C   UNL     1       6.575  32.232  62.842  1.00  0.00     0.175 C 
BRANCH  16  17
HETATM   17  C   UNL     1       8.101  32.232  62.804  1.00  0.00     0.026 C 
BRANCH  17  18
HETATM   18  C   UNL     1       8.651  30.832  62.543  1.00  0.00    -0.002 C 
HETATM   19  C   UNL     1       9.169  30.689  61.121  1.00  0.00     0.005 C 
ENDBRANCH  17  18
ENDBRANCH  16  17
ENDBRANCH  15  16
ENDBRANCH  12  15
ENDBRANCH   6   9
ENDBRANCH   3   5
ENDBRANCH   1   3
BRANCH   1  20
HETATM   20  C   UNL     1       6.646  28.679  55.758  1.00  0.00     0.035 A 
HETATM   21  C   UNL     1       6.730  27.338  55.362  1.00  0.00     0.048 A 
HETATM   22  C   UNL     1       7.213  26.350  56.245  1.00  0.00     0.052 A 
HETATM   23  C   UNL     1       7.583  26.732  57.544  1.00  0.00     0.080 A 
HETATM   24  C   UNL     1       7.514  28.060  57.945  1.00  0.00     0.040 A 
HETATM   25  C   UNL     1       7.049  29.027  57.055  1.00  0.00     0.032 A 
BRANCH  22  26
HETATM   26  C   UNL     1       7.323  24.952  55.840  1.00  0.00     0.183 A 
HETATM   27  O   UNL     1       7.560  24.693  54.515  1.00  0.00    -0.289 OA
HETATM   28  C   UNL     1       7.718  23.336  54.471  1.00  0.00     0.107 A 
HETATM   29  C   UNL     1       7.550  22.848  55.757  1.00  0.00     0.093 A 
HETATM   30  C   UNL     1       8.013  22.553  53.361  1.00  0.00     0.046 A 
HETATM   31  N   UNL     1       7.315  23.885  56.623  1.00  0.00    -0.221 NA
HETATM   32  C   UNL     1       7.658  21.472  55.981  1.00  0.00     0.035 A 
HETATM   33  C   UNL     1       7.955  20.645  54.886  1.00  0.00     0.009 A 
HETATM   34  C   UNL     1       8.139  21.172  53.594  1.00  0.00    -0.059 A 
HETATM   35  C   UNL     1       8.495  20.242  52.468  1.00  0.00     0.048 C 
ENDBRANCH  22  26
BRANCH  23  36
HETATM   36  O   UNL     1       8.022  25.842  58.491  1.00  0.00    -0.360 OA
HETATM   37  H   UNL     1       8.251  24.998  58.044  1.00  0.00     0.217 HD
ENDBRANCH  23  36
ENDBRANCH   1  20
TORSDOF 10
ENDMDL
MODEL 6
REMARK VINA RESULT:      -9.7      2.304      3.363
REMARK  10 active torsions:
REMARK  status: ('A' for Active; 'I' for Inactive)
REMARK    1  A    between atoms: C_2  and  C_3 
REMARK    2  A    between atoms: C_3  and  C_4 
REMARK    3  A    between atoms: C_4  and  O_5 
REMARK    4  A    between atoms: O_5  and  C_6 
REMARK    5  A    between atoms: C_9  and  C_10 
REMARK       I    between atoms: C_10  and  N_11 
REMARK    6  A    between atoms: N_11  and  C_12 
REMARK    7  A    between atoms: C_12  and  N_13 
REMARK    8  A    between atoms: N_13  and  C_14 
REMARK    9  A    between atoms: C_16  and  C_17 
REMARK   10  A    between atoms: C_27  and  O_28 
ROOT
HETATM    1  N   UNL     1       7.326  31.653  60.285  1.00  0.00    -0.333 N 
HETATM    2  H   UNL     1       7.606  31.430  61.237  1.00  0.00     0.168 HD
ENDROOT
BRANCH   1   3
HETATM    3  C   UNL     1       6.163  32.373  60.258  1.00  0.00     0.179 C 
HETATM    4  S   UNL     1       5.219  32.232  58.881  1.00  0.00    -0.040 SA
BRANCH   3   5
HETATM    5  N   UNL     1       5.823  33.069  61.388  1.00  0.00    -0.299 N 
HETATM    6  C   UNL     1       5.150  32.544  62.480  1.00  0.00     0.257 C 
HETATM    7  O   UNL     1       4.113  31.895  62.412  1.00  0.00    -0.267 OA
HETATM    8  H   UNL     1       6.431  33.858  61.560  1.00  0.00     0.171 HD
BRANCH   6   9
HETATM    9  C   UNL     1       5.625  33.013  63.799  1.00  0.00     0.032 A 
HETATM   10  C   UNL     1       6.999  33.151  64.011  1.00  0.00     0.020 A 
HETATM   11  C   UNL     1       7.472  33.628  65.237  1.00  0.00     0.038 A 
HETATM   12  C   UNL     1       6.574  33.986  66.244  1.00  0.00     0.068 A 
HETATM   13  C   UNL     1       5.198  33.866  66.014  1.00  0.00     0.038 A 
HETATM   14  C   UNL     1       4.717  33.374  64.797  1.00  0.00     0.020 A 
BRANCH  12  15
HETATM   15  O   UNL     1       6.908  34.488  67.472  1.00  0.00    -0.351 OA
BRANCH  15  16
HETATM   16  C   UNL     1       5.837  34.685  68.396  1.00  0.00     0.175 C 
BRANCH  16  17
HETATM   17  C   UNL     1       6.428  34.747  69.802  1.00  0.00     0.026 C 
BRANCH  17  18
HETATM   18  C   UNL     1       7.948  34.891  69.761  1.00  0.00    -0.002 C 
HETATM   19  C   UNL     1       8.588  34.465  71.072  1.00  0.00     0.005 C 
ENDBRANCH  17  18
ENDBRANCH  16  17
ENDBRANCH  15  16
ENDBRANCH  12  15
ENDBRANCH   6   9
ENDBRANCH   3   5
ENDBRANCH   1   3
BRANCH   1  20
HETATM   20  C   UNL     1       8.041  30.969  59.278  1.00  0.00     0.035 A 
HETATM   21  C   UNL     1       7.681  29.730  58.732  1.00  0.00     0.048 A 
HETATM   22  C   UNL     1       8.508  29.084  57.791  1.00  0.00     0.052 A 
HETATM   23  C   UNL     1       9.719  29.695  57.430  1.00  0.00     0.080 A 
HETATM   24  C   UNL     1      10.083  30.928  57.956  1.00  0.00     0.040 A 
HETATM   25  C   UNL     1       9.246  31.560  58.873  1.00  0.00     0.032 A 
BRANCH  22  26
HETATM   26  C   UNL     1       8.137  27.802  57.201  1.00  0.00     0.183 A 
HETATM   27  O   UNL     1       7.933  27.762  55.846  1.00  0.00    -0.289 OA
HETATM   28  C   UNL     1       7.715  26.439  55.587  1.00  0.00     0.107 A 
HETATM   29  C   UNL     1       7.777  25.756  56.791  1.00  0.00     0.093 A 
HETATM   30  C   UNL     1       7.486  25.843  54.352  1.00  0.00     0.046 A 
HETATM   31  N   UNL     1       8.062  26.628  57.809  1.00  0.00    -0.221 NA
HETATM   32  C   UNL     1       7.578  24.371  56.798  1.00  0.00     0.035 A 
HETATM   33  C   UNL     1       7.344  23.730  55.571  1.00  0.00     0.009 A 
HETATM   34  C   UNL     1       7.305  24.449  54.361  1.00  0.00    -0.059 A 
HETATM   35  C   UNL     1       7.090  23.703  53.074  1.00  0.00     0.048 C 
ENDBRANCH  22  26
BRANCH  23  36
HETATM   36  O   UNL     1      10.614  29.128  56.558  1.00  0.00    -0.360 OA
HETATM   37  H   UNL     1      11.187  28.506  57.057  1.00  0.00     0.217 HD
ENDBRANCH  23  36
ENDBRANCH   1  20
TORSDOF 10
ENDMDL
MODEL 7
REMARK VINA RESULT:      -9.7      1.364      1.782
REMARK  10 active torsions:
REMARK  status: ('A' for Active; 'I' for Inactive)
REMARK    1  A    between atoms: C_2  and  C_3 
REMARK    2  A    between atoms: C_3  and  C_4 
REMARK    3  A    between atoms: C_4  and  O_5 
REMARK    4  A    between atoms: O_5  and  C_6 
REMARK    5  A    between atoms: C_9  and  C_10 
REMARK       I    between atoms: C_10  and  N_11 
REMARK    6  A    between atoms: N_11  and  C_12 
REMARK    7  A    between atoms: C_12  and  N_13 
REMARK    8  A    between atoms: N_13  and  C_14 
REMARK    9  A    between atoms: C_16  and  C_17 
REMARK   10  A    between atoms: C_27  and  O_28 
ROOT
HETATM    1  N   UNL     1       6.695  30.144  57.147  1.00  0.00    -0.333 N 
HETATM    2  H   UNL     1       6.470  31.114  56.940  1.00  0.00     0.168 HD
ENDROOT
BRANCH   1   3
HETATM    3  C   UNL     1       7.711  30.045  58.057  1.00  0.00     0.179 C 
HETATM    4  S   UNL     1       9.249  29.781  57.447  1.00  0.00    -0.040 SA
BRANCH   3   5
HETATM    5  N   UNL     1       7.404  30.260  59.374  1.00  0.00    -0.299 N 
HETATM    6  C   UNL     1       8.290  30.713  60.339  1.00  0.00     0.257 C 
HETATM    7  O   UNL     1       9.400  30.236  60.542  1.00  0.00    -0.267 OA
HETATM    8  H   UNL     1       6.424  30.463  59.520  1.00  0.00     0.171 HD
BRANCH   6   9
HETATM    9  C   UNL     1       7.730  31.681  61.306  1.00  0.00     0.032 A 
HETATM   10  C   UNL     1       6.545  32.346  60.984  1.00  0.00     0.020 A 
HETATM   11  C   UNL     1       5.975  33.239  61.897  1.00  0.00     0.038 A 
HETATM   12  C   UNL     1       6.577  33.451  63.139  1.00  0.00     0.068 A 
HETATM   13  C   UNL     1       7.752  32.762  63.462  1.00  0.00     0.038 A 
HETATM   14  C   UNL     1       8.338  31.882  62.547  1.00  0.00     0.020 A 
BRANCH  12  15
HETATM   15  O   UNL     1       6.106  34.275  64.125  1.00  0.00    -0.351 OA
BRANCH  15  16
HETATM   16  C   UNL     1       5.230  33.686  65.087  1.00  0.00     0.175 C 
BRANCH  16  17
HETATM   17  C   UNL     1       5.662  34.155  66.474  1.00  0.00     0.026 C 
BRANCH  17  18
HETATM   18  C   UNL     1       4.458  34.548  67.328  1.00  0.00    -0.002 C 
HETATM   19  C   UNL     1       3.618  35.620  66.654  1.00  0.00     0.005 C 
ENDBRANCH  17  18
ENDBRANCH  16  17
ENDBRANCH  15  16
ENDBRANCH  12  15
ENDBRANCH   6   9
ENDBRANCH   3   5
ENDBRANCH   1   3
BRANCH   1  20
HETATM   20  C   UNL     1       6.102  29.199  56.281  1.00  0.00     0.035 A 
HETATM   21  C   UNL     1       6.664  27.967  55.923  1.00  0.00     0.048 A 
HETATM   22  C   UNL     1       6.034  27.128  54.981  1.00  0.00     0.052 A 
HETATM   23  C   UNL     1       4.841  27.565  54.384  1.00  0.00     0.080 A 
HETATM   24  C   UNL     1       4.268  28.780  54.738  1.00  0.00     0.040 A 
HETATM   25  C   UNL     1       4.895  29.589  55.683  1.00  0.00     0.032 A 
BRANCH  22  26
HETATM   26  C   UNL     1       6.599  25.834  54.612  1.00  0.00     0.183 A 
HETATM   27  O   UNL     1       6.820  24.928  55.618  1.00  0.00    -0.289 OA
HETATM   28  C   UNL     1       7.237  23.806  54.960  1.00  0.00     0.107 A 
HETATM   29  C   UNL     1       7.267  24.095  53.605  1.00  0.00     0.093 A 
HETATM   30  C   UNL     1       7.565  22.573  55.512  1.00  0.00     0.046 A 
HETATM   31  N   UNL     1       6.845  25.382  53.392  1.00  0.00    -0.221 NA
HETATM   32  C   UNL     1       7.672  23.102  52.707  1.00  0.00     0.035 A 
HETATM   33  C   UNL     1       8.011  21.841  53.224  1.00  0.00     0.009 A 
HETATM   34  C   UNL     1       7.953  21.572  54.604  1.00  0.00    -0.059 A 
HETATM   35  C   UNL     1       8.290  20.191  55.095  1.00  0.00     0.048 C 
ENDBRANCH  22  26
BRANCH  23  36
HETATM   36  O   UNL     1       4.175  26.844  53.426  1.00  0.00    -0.360 OA
HETATM   37  H   UNL     1       3.237  26.752  53.699  1.00  0.00     0.217 HD
ENDBRANCH  23  36
ENDBRANCH   1  20
TORSDOF 10
ENDMDL
MODEL 8
REMARK VINA RESULT:      -9.4      2.110     11.989
REMARK  10 active torsions:
REMARK  status: ('A' for Active; 'I' for Inactive)
REMARK    1  A    between atoms: C_2  and  C_3 
REMARK    2  A    between atoms: C_3  and  C_4 
REMARK    3  A    between atoms: C_4  and  O_5 
REMARK    4  A    between atoms: O_5  and  C_6 
REMARK    5  A    between atoms: C_9  and  C_10 
REMARK       I    between atoms: C_10  and  N_11 
REMARK    6  A    between atoms: N_11  and  C_12 
REMARK    7  A    between atoms: C_12  and  N_13 
REMARK    8  A    between atoms: N_13  and  C_14 
REMARK    9  A    between atoms: C_16  and  C_17 
REMARK   10  A    between atoms: C_27  and  O_28 
ROOT
HETATM    1  N   UNL     1       6.464  30.740  57.458  1.00  0.00    -0.333 N 
HETATM    2  H   UNL     1       6.565  31.358  56.657  1.00  0.00     0.168 HD
ENDROOT
BRANCH   1   3
HETATM    3  C   UNL     1       5.359  29.942  57.341  1.00  0.00     0.179 C 
HETATM    4  S   UNL     1       3.899  30.596  57.841  1.00  0.00    -0.040 SA
BRANCH   3   5
HETATM    5  N   UNL     1       5.521  28.721  56.745  1.00  0.00    -0.299 N 
HETATM    6  C   UNL     1       6.623  28.332  55.999  1.00  0.00     0.257 C 
HETATM    7  O   UNL     1       7.109  28.988  55.085  1.00  0.00    -0.267 OA
HETATM    8  H   UNL     1       4.997  27.987  57.204  1.00  0.00     0.171 HD
BRANCH   6   9
HETATM    9  C   UNL     1       7.064  26.937  56.204  1.00  0.00     0.032 A 
HETATM   10  C   UNL     1       7.927  26.652  57.265  1.00  0.00     0.020 A 
HETATM   11  C   UNL     1       8.331  25.335  57.503  1.00  0.00     0.038 A 
HETATM   12  C   UNL     1       7.856  24.299  56.695  1.00  0.00     0.068 A 
HETATM   13  C   UNL     1       6.973  24.591  55.648  1.00  0.00     0.038 A 
HETATM   14  C   UNL     1       6.579  25.908  55.393  1.00  0.00     0.020 A 
BRANCH  12  15
HETATM   15  O   UNL     1       8.153  22.971  56.840  1.00  0.00    -0.351 OA
BRANCH  15  16
HETATM   16  C   UNL     1       7.764  22.108  55.770  1.00  0.00     0.175 C 
BRANCH  16  17
HETATM   17  C   UNL     1       8.342  20.722  56.045  1.00  0.00     0.026 C 
BRANCH  17  18
HETATM   18  C   UNL     1       8.740  20.019  54.748  1.00  0.00    -0.002 C 
HETATM   19  C   UNL     1       8.018  20.606  53.547  1.00  0.00     0.005 C 
ENDBRANCH  17  18
ENDBRANCH  16  17
ENDBRANCH  15  16
ENDBRANCH  12  15
ENDBRANCH   6   9
ENDBRANCH   3   5
ENDBRANCH   1   3
BRANCH   1  20
HETATM   20  C   UNL     1       7.307  31.039  58.551  1.00  0.00     0.035 A 
HETATM   21  C   UNL     1       6.910  31.702  59.719  1.00  0.00     0.048 A 
HETATM   22  C   UNL     1       7.847  32.033  60.719  1.00  0.00     0.052 A 
HETATM   23  C   UNL     1       9.196  31.710  60.509  1.00  0.00     0.080 A 
HETATM   24  C   UNL     1       9.601  31.043  59.360  1.00  0.00     0.040 A 
HETATM   25  C   UNL     1       8.659  30.709  58.388  1.00  0.00     0.032 A 
BRANCH  22  26
HETATM   26  C   UNL     1       7.444  32.708  61.949  1.00  0.00     0.183 A 
HETATM   27  O   UNL     1       6.432  33.629  61.865  1.00  0.00    -0.289 OA
HETATM   28  C   UNL     1       6.214  33.994  63.163  1.00  0.00     0.107 A 
HETATM   29  C   UNL     1       7.112  33.298  63.956  1.00  0.00     0.093 A 
HETATM   30  C   UNL     1       5.263  34.887  63.644  1.00  0.00     0.046 A 
HETATM   31  N   UNL     1       7.879  32.470  63.177  1.00  0.00    -0.221 NA
HETATM   32  C   UNL     1       7.098  33.502  65.340  1.00  0.00     0.035 A 
HETATM   33  C   UNL     1       6.152  34.395  65.867  1.00  0.00     0.009 A 
HETATM   34  C   UNL     1       5.240  35.075  65.037  1.00  0.00    -0.059 A 
HETATM   35  C   UNL     1       4.224  35.990  65.663  1.00  0.00     0.048 C 
ENDBRANCH  22  26
BRANCH  23  36
HETATM   36  O   UNL     1      10.190  32.028  61.400  1.00  0.00    -0.360 OA
HETATM   37  H   UNL     1      10.705  31.216  61.598  1.00  0.00     0.217 HD
ENDBRANCH  23  36
ENDBRANCH   1  20
TORSDOF 10
ENDMDL
MODEL 9
REMARK VINA RESULT:      -9.2      3.764      5.836
REMARK  10 active torsions:
REMARK  status: ('A' for Active; 'I' for Inactive)
REMARK    1  A    between atoms: C_2  and  C_3 
REMARK    2  A    between atoms: C_3  and  C_4 
REMARK    3  A    between atoms: C_4  and  O_5 
REMARK    4  A    between atoms: O_5  and  C_6 
REMARK    5  A    between atoms: C_9  and  C_10 
REMARK       I    between atoms: C_10  and  N_11 
REMARK    6  A    between atoms: N_11  and  C_12 
REMARK    7  A    between atoms: C_12  and  N_13 
REMARK    8  A    between atoms: N_13  and  C_14 
REMARK    9  A    between atoms: C_16  and  C_17 
REMARK   10  A    between atoms: C_27  and  O_28 
ROOT
HETATM    1  N   UNL     1       3.431  29.742  53.794  1.00  0.00    -0.333 N 
HETATM    2  H   UNL     1       2.417  29.677  53.847  1.00  0.00     0.168 HD
ENDROOT
BRANCH   1   3
HETATM    3  C   UNL     1       3.880  30.963  54.215  1.00  0.00     0.179 C 
HETATM    4  S   UNL     1       3.673  32.249  53.161  1.00  0.00    -0.040 SA
BRANCH   3   5
HETATM    5  N   UNL     1       4.373  31.051  55.489  1.00  0.00    -0.299 N 
HETATM    6  C   UNL     1       4.486  29.995  56.380  1.00  0.00     0.257 C 
HETATM    7  O   UNL     1       3.583  29.210  56.645  1.00  0.00    -0.267 OA
HETATM    8  H   UNL     1       5.018  31.821  55.608  1.00  0.00     0.171 HD
BRANCH   6   9
HETATM    9  C   UNL     1       5.714  29.991  57.203  1.00  0.00     0.032 A 
HETATM   10  C   UNL     1       6.461  28.814  57.294  1.00  0.00     0.020 A 
HETATM   11  C   UNL     1       7.645  28.794  58.036  1.00  0.00     0.038 A 
HETATM   12  C   UNL     1       8.095  29.955  58.671  1.00  0.00     0.068 A 
HETATM   13  C   UNL     1       7.351  31.135  58.555  1.00  0.00     0.038 A 
HETATM   14  C   UNL     1       6.156  31.158  57.829  1.00  0.00     0.020 A 
BRANCH  12  15
HETATM   15  O   UNL     1       9.246  30.071  59.401  1.00  0.00    -0.351 OA
BRANCH  15  16
HETATM   16  C   UNL     1       9.292  31.131  60.358  1.00  0.00     0.175 C 
BRANCH  16  17
HETATM   17  C   UNL     1       9.235  30.515  61.753  1.00  0.00     0.026 C 
BRANCH  17  18
HETATM   18  C   UNL     1       8.253  31.263  62.652  1.00  0.00    -0.002 C 
HETATM   19  C   UNL     1       7.752  32.539  61.996  1.00  0.00     0.005 C 
ENDBRANCH  17  18
ENDBRANCH  16  17
ENDBRANCH  15  16
ENDBRANCH  12  15
ENDBRANCH   6   9
ENDBRANCH   3   5
ENDBRANCH   1   3
BRANCH   1  20
HETATM   20  C   UNL     1       4.057  28.694  53.084  1.00  0.00     0.035 A 
HETATM   21  C   UNL     1       4.643  27.562  53.666  1.00  0.00     0.048 A 
HETATM   22  C   UNL     1       5.322  26.611  52.877  1.00  0.00     0.052 A 
HETATM   23  C   UNL     1       5.426  26.834  51.496  1.00  0.00     0.080 A 
HETATM   24  C   UNL     1       4.841  27.947  50.905  1.00  0.00     0.040 A 
HETATM   25  C   UNL     1       4.159  28.869  51.697  1.00  0.00     0.032 A 
BRANCH  22  26
HETATM   26  C   UNL     1       5.921  25.418  53.467  1.00  0.00     0.183 A 
HETATM   27  O   UNL     1       6.328  24.424  52.615  1.00  0.00    -0.289 OA
HETATM   28  C   UNL     1       6.933  23.517  53.437  1.00  0.00     0.107 A 
HETATM   29  C   UNL     1       6.844  23.994  54.735  1.00  0.00     0.093 A 
HETATM   30  C   UNL     1       7.553  22.326  53.075  1.00  0.00     0.046 A 
HETATM   31  N   UNL     1       6.213  25.211  54.742  1.00  0.00    -0.221 NA
HETATM   32  C   UNL     1       7.388  23.236  55.777  1.00  0.00     0.035 A 
HETATM   33  C   UNL     1       8.024  22.027  55.454  1.00  0.00     0.009 A 
HETATM   34  C   UNL     1       8.115  21.577  54.123  1.00  0.00    -0.059 A 
HETATM   35  C   UNL     1       8.843  20.293  53.834  1.00  0.00     0.048 C 
ENDBRANCH  22  26
BRANCH  23  36
HETATM   36  O   UNL     1       6.104  25.993  50.650  1.00  0.00    -0.360 OA
HETATM   37  H   UNL     1       6.486  25.259  51.178  1.00  0.00     0.217 HD
ENDBRANCH  23  36
ENDBRANCH   1  20
TORSDOF 10
ENDMDL
MODEL 10
REMARK VINA RESULT:      -9.1      1.636      2.144
REMARK  10 active torsions:
REMARK  status: ('A' for Active; 'I' for Inactive)
REMARK    1  A    between atoms: C_2  and  C_3 
REMARK    2  A    between atoms: C_3  and  C_4 
REMARK    3  A    between atoms: C_4  and  O_5 
REMARK    4  A    between atoms: O_5  and  C_6 
REMARK    5  A    between atoms: C_9  and  C_10 
REMARK       I    between atoms: C_10  and  N_11 
REMARK    6  A    between atoms: N_11  and  C_12 
REMARK    7  A    between atoms: C_12  and  N_13 
REMARK    8  A    between atoms: N_13  and  C_14 
REMARK    9  A    between atoms: C_16  and  C_17 
REMARK   10  A    between atoms: C_27  and  O_28 
ROOT
HETATM    1  N   UNL     1       6.145  30.870  58.974  1.00  0.00    -0.333 N 
HETATM    2  H   UNL     1       5.299  31.015  59.520  1.00  0.00     0.168 HD
ENDROOT
BRANCH   1   3
HETATM    3  C   UNL     1       7.215  31.522  59.521  1.00  0.00     0.179 C 
HETATM    4  S   UNL     1       8.717  31.205  58.850  1.00  0.00    -0.040 SA
BRANCH   3   5
HETATM    5  N   UNL     1       6.962  32.444  60.501  1.00  0.00    -0.299 N 
HETATM    6  C   UNL     1       5.861  32.437  61.343  1.00  0.00     0.257 C 
HETATM    7  O   UNL     1       4.699  32.326  60.967  1.00  0.00    -0.267 OA
HETATM    8  H   UNL     1       7.801  32.887  60.850  1.00  0.00     0.171 HD
BRANCH   6   9
HETATM    9  C   UNL     1       6.134  32.815  62.746  1.00  0.00     0.032 A 
HETATM   10  C   UNL     1       7.461  32.945  63.162  1.00  0.00     0.020 A 
HETATM   11  C   UNL     1       7.747  33.336  64.473  1.00  0.00     0.038 A 
HETATM   12  C   UNL     1       6.708  33.619  65.362  1.00  0.00     0.068 A 
HETATM   13  C   UNL     1       5.381  33.508  64.929  1.00  0.00     0.038 A 
HETATM   14  C   UNL     1       5.087  33.099  63.625  1.00  0.00     0.020 A 
BRANCH  12  15
HETATM   15  O   UNL     1       6.855  34.035  66.657  1.00  0.00    -0.351 OA
BRANCH  15  16
HETATM   16  C   UNL     1       5.669  34.455  67.334  1.00  0.00     0.175 C 
BRANCH  16  17
HETATM   17  C   UNL     1       5.975  34.531  68.827  1.00  0.00     0.026 C 
BRANCH  17  18
HETATM   18  C   UNL     1       7.362  35.118  69.081  1.00  0.00    -0.002 C 
HETATM   19  C   UNL     1       7.526  35.565  70.524  1.00  0.00     0.005 C 
ENDBRANCH  17  18
ENDBRANCH  16  17
ENDBRANCH  15  16
ENDBRANCH  12  15
ENDBRANCH   6   9
ENDBRANCH   3   5
ENDBRANCH   1   3
BRANCH   1  20
HETATM   20  C   UNL     1       5.943  30.273  57.710  1.00  0.00     0.035 A 
HETATM   21  C   UNL     1       6.358  28.985  57.350  1.00  0.00     0.048 A 
HETATM   22  C   UNL     1       6.186  28.510  56.033  1.00  0.00     0.052 A 
HETATM   23  C   UNL     1       5.615  29.366  55.079  1.00  0.00     0.080 A 
HETATM   24  C   UNL     1       5.189  30.642  55.426  1.00  0.00     0.040 A 
HETATM   25  C   UNL     1       5.351  31.090  56.736  1.00  0.00     0.032 A 
BRANCH  22  26
HETATM   26  C   UNL     1       6.598  27.164  55.648  1.00  0.00     0.183 A 
HETATM   27  O   UNL     1       7.060  26.334  56.638  1.00  0.00    -0.289 OA
HETATM   28  C   UNL     1       7.255  25.142  55.999  1.00  0.00     0.107 A 
HETATM   29  C   UNL     1       6.925  25.317  54.665  1.00  0.00     0.093 A 
HETATM   30  C   UNL     1       7.689  23.944  56.555  1.00  0.00     0.046 A 
HETATM   31  N   UNL     1       6.493  26.601  54.455  1.00  0.00    -0.221 NA
HETATM   32  C   UNL     1       7.047  24.234  53.787  1.00  0.00     0.035 A 
HETATM   33  C   UNL     1       7.481  23.006  54.309  1.00  0.00     0.009 A 
HETATM   34  C   UNL     1       7.792  22.854  55.673  1.00  0.00    -0.059 A 
HETATM   35  C   UNL     1       8.214  21.504  56.182  1.00  0.00     0.048 C 
ENDBRANCH  22  26
BRANCH  23  36
HETATM   36  O   UNL     1       5.446  29.015  53.764  1.00  0.00    -0.360 OA
HETATM   37  H   UNL     1       6.097  28.314  53.540  1.00  0.00     0.217 HD
ENDBRANCH  23  36
ENDBRANCH   1  20
TORSDOF 10
ENDMDL
