MODEL 1
REMARK VINA RESULT:      -9.4      0.000      0.000
REMARK  4 active torsions:
REMARK  status: ('A' for Active; 'I' for Inactive)
REMARK    1  A    between atoms: O_2  and  C_3 
REMARK    2  A    between atoms: C_8  and  C_9 
REMARK    3  A    between atoms: N_11  and  C_12 
REMARK    4  A    between atoms: C_12  and  C_13 
ROOT
HETATM    1  C   UNL     1       7.989  30.366  57.961  1.00  0.00     0.069 A 
HETATM    2  C   UNL     1       6.663  30.199  57.570  1.00  0.00     0.056 A 
HETATM    3  C   UNL     1       6.274  29.030  56.912  1.00  0.00     0.063 A 
HETATM    4  C   UNL     1       7.186  28.011  56.630  1.00  0.00     0.074 A 
HETATM    5  N   UNL     1       6.823  26.832  55.953  1.00  0.00    -0.234 NA
HETATM    6  C   UNL     1       5.586  26.692  55.596  1.00  0.00     0.113 A 
HETATM    7  N   UNL     1       4.628  27.637  55.858  1.00  0.00    -0.310 N 
HETATM    8  C   UNL     1       4.884  28.831  56.479  1.00  0.00     0.259 A 
HETATM    9  O   UNL     1       4.016  29.678  56.641  1.00  0.00    -0.267 OA
HETATM   10  C   UNL     1       8.511  28.185  57.028  1.00  0.00     0.035 A 
HETATM   11  C   UNL     1       8.914  29.354  57.690  1.00  0.00     0.039 A 
HETATM   12  H   UNL     1       3.672  27.520  55.544  1.00  0.00     0.170 HD
ENDROOT
BRANCH   6  13
HETATM   13  C   UNL     1       5.150  25.442  54.843  1.00  0.00     0.082 C 
HETATM   14  C   UNL     1       6.263  24.410  54.797  1.00  0.00     0.139 C 
HETATM   15  N   UNL     1       6.973  24.756  53.588  1.00  0.00    -0.347 N 
HETATM   16  C   UNL     1       6.154  25.402  52.675  1.00  0.00     0.220 C 
HETATM   17  O   UNL     1       6.430  25.688  51.523  1.00  0.00    -0.273 OA
HETATM   18  C   UNL     1       4.852  25.731  53.370  1.00  0.00     0.117 C 
BRANCH  15  19
HETATM   19  C   UNL     1       8.268  24.195  53.252  1.00  0.00     0.164 C 
BRANCH  19  20
HETATM   20  C   UNL     1       8.427  22.762  53.687  1.00  0.00    -0.040 A 
HETATM   21  C   UNL     1       9.093  22.460  54.885  1.00  0.00     0.009 A 
HETATM   22  C   UNL     1       9.220  21.137  55.310  1.00  0.00     0.001 A 
HETATM   23  C   UNL     1       8.696  20.104  54.537  1.00  0.00     0.000 A 
HETATM   24  C   UNL     1       8.050  20.390  53.337  1.00  0.00     0.001 A 
HETATM   25  C   UNL     1       7.915  21.713  52.911  1.00  0.00     0.009 A 
ENDBRANCH  19  20
ENDBRANCH  15  19
ENDBRANCH   6  13
BRANCH   1  26
HETATM   26  O   UNL     1       8.252  31.550  58.591  1.00  0.00    -0.356 OA
HETATM   27  C   UNL     1       9.499  31.664  59.264  1.00  0.00     0.210 C 
ENDBRANCH   1  26
TORSDOF 4
ENDMDL
MODEL 2
REMARK VINA RESULT:      -9.2      1.124      1.811
REMARK  4 active torsions:
REMARK  status: ('A' for Active; 'I' for Inactive)
REMARK    1  A    between atoms: O_2  and  C_3 
REMARK    2  A    between atoms: C_8  and  C_9 
REMARK    3  A    between atoms: N_11  and  C_12 
REMARK    4  A    between atoms: C_12  and  C_13 
ROOT
HETATM    1  C   UNL     1       6.577  31.024  57.805  1.00  0.00     0.069 A 
HETATM    2  C   UNL     1       7.114  29.749  57.971  1.00  0.00     0.056 A 
HETATM    3  C   UNL     1       6.661  28.695  57.174  1.00  0.00     0.063 A 
HETATM    4  C   UNL     1       5.674  28.882  56.205  1.00  0.00     0.074 A 
HETATM    5  N   UNL     1       5.189  27.833  55.402  1.00  0.00    -0.234 NA
HETATM    6  C   UNL     1       5.698  26.654  55.569  1.00  0.00     0.113 A 
HETATM    7  N   UNL     1       6.686  26.396  56.483  1.00  0.00    -0.310 N 
HETATM    8  C   UNL     1       7.201  27.338  57.334  1.00  0.00     0.259 A 
HETATM    9  O   UNL     1       8.040  27.058  58.181  1.00  0.00    -0.267 OA
HETATM   10  C   UNL     1       5.145  30.162  56.043  1.00  0.00     0.035 A 
HETATM   11  C   UNL     1       5.591  31.229  56.836  1.00  0.00     0.039 A 
HETATM   12  H   UNL     1       7.049  25.461  56.617  1.00  0.00     0.170 HD
ENDROOT
BRANCH   6  13
HETATM   13  C   UNL     1       5.190  25.484  54.737  1.00  0.00     0.082 C 
HETATM   14  C   UNL     1       6.241  24.394  54.618  1.00  0.00     0.139 C 
HETATM   15  N   UNL     1       6.967  24.777  53.431  1.00  0.00    -0.347 N 
HETATM   16  C   UNL     1       6.185  25.528  52.566  1.00  0.00     0.220 C 
HETATM   17  O   UNL     1       6.475  25.872  51.433  1.00  0.00    -0.273 OA
HETATM   18  C   UNL     1       4.905  25.885  53.288  1.00  0.00     0.117 C 
BRANCH  15  19
HETATM   19  C   UNL     1       8.227  24.166  53.051  1.00  0.00     0.164 C 
BRANCH  19  20
HETATM   20  C   UNL     1       8.391  22.765  53.579  1.00  0.00    -0.040 A 
HETATM   21  C   UNL     1       9.036  22.546  54.805  1.00  0.00     0.009 A 
HETATM   22  C   UNL     1       9.168  21.254  55.316  1.00  0.00     0.001 A 
HETATM   23  C   UNL     1       8.669  20.168  54.600  1.00  0.00     0.000 A 
HETATM   24  C   UNL     1       8.043  20.371  53.372  1.00  0.00     0.001 A 
HETATM   25  C   UNL     1       7.905  21.663  52.861  1.00  0.00     0.009 A 
ENDBRANCH  19  20
ENDBRANCH  15  19
ENDBRANCH   6  13
BRANCH   1  26
HETATM   26  O   UNL     1       7.094  31.972  58.642  1.00  0.00    -0.356 OA
HETATM   27  C   UNL     1       8.269  31.629  59.365  1.00  0.00     0.210 C 
ENDBRANCH   1  26
TORSDOF 4
ENDMDL
MODEL 3
REMARK VINA RESULT:      -9.1      2.929      6.044
REMARK  4 active torsions:
REMARK  status: ('A' for Active; 'I' for Inactive)
REMARK    1  A    between atoms: O_2  and  C_3 
REMARK    2  A    between atoms: C_8  and  C_9 
REMARK    3  A    between atoms: N_11  and  C_12 
REMARK    4  A    between atoms: C_12  and  C_13 
ROOT
HETATM    1  C   UNL     1       4.907  27.698  48.923  1.00  0.00     0.069 A 
HETATM    2  C   UNL     1       4.823  26.684  49.875  1.00  0.00     0.056 A 
HETATM    3  C   UNL     1       5.110  26.963  51.213  1.00  0.00     0.063 A 
HETATM    4  C   UNL     1       5.484  28.241  51.631  1.00  0.00     0.074 A 
HETATM    5  N   UNL     1       5.795  28.542  52.970  1.00  0.00    -0.234 NA
HETATM    6  C   UNL     1       5.712  27.589  53.842  1.00  0.00     0.113 A 
HETATM    7  N   UNL     1       5.329  26.315  53.514  1.00  0.00    -0.310 N 
HETATM    8  C   UNL     1       5.040  25.911  52.237  1.00  0.00     0.259 A 
HETATM    9  O   UNL     1       4.762  24.750  51.971  1.00  0.00    -0.267 OA
HETATM   10  C   UNL     1       5.562  29.250  50.672  1.00  0.00     0.035 A 
HETATM   11  C   UNL     1       5.276  28.984  49.324  1.00  0.00     0.039 A 
HETATM   12  H   UNL     1       5.300  25.578  54.208  1.00  0.00     0.170 HD
ENDROOT
BRANCH   6  13
HETATM   13  C   UNL     1       6.060  27.863  55.300  1.00  0.00     0.082 C 
HETATM   14  C   UNL     1       7.365  27.192  55.691  1.00  0.00     0.139 C 
HETATM   15  N   UNL     1       6.933  25.895  56.154  1.00  0.00    -0.347 N 
HETATM   16  C   UNL     1       5.629  25.921  56.623  1.00  0.00     0.220 C 
HETATM   17  O   UNL     1       5.043  25.022  57.200  1.00  0.00    -0.273 OA
HETATM   18  C   UNL     1       5.032  27.263  56.261  1.00  0.00     0.117 C 
BRANCH  15  19
HETATM   19  C   UNL     1       7.857  24.805  56.406  1.00  0.00     0.164 C 
BRANCH  19  20
HETATM   20  C   UNL     1       7.886  23.782  55.301  1.00  0.00    -0.040 A 
HETATM   21  C   UNL     1       7.791  22.416  55.604  1.00  0.00     0.009 A 
HETATM   22  C   UNL     1       7.789  21.463  54.586  1.00  0.00     0.001 A 
HETATM   23  C   UNL     1       7.893  21.864  53.255  1.00  0.00     0.000 A 
HETATM   24  C   UNL     1       8.005  23.217  52.943  1.00  0.00     0.001 A 
HETATM   25  C   UNL     1       8.003  24.174  53.959  1.00  0.00     0.009 A 
ENDBRANCH  19  20
ENDBRANCH  15  19
ENDBRANCH   6  13
BRANCH   1  26
HETATM   26  O   UNL     1       4.608  27.307  47.648  1.00  0.00    -0.356 OA
HETATM   27  C   UNL     1       3.233  27.225  47.299  1.00  0.00     0.210 C 
ENDBRANCH   1  26
TORSDOF 4
ENDMDL
MODEL 4
REMARK VINA RESULT:      -9.0      5.365      8.666
REMARK  4 active torsions:
REMARK  status: ('A' for Active; 'I' for Inactive)
REMARK    1  A    between atoms: O_2  and  C_3 
REMARK    2  A    between atoms: C_8  and  C_9 
REMARK    3  A    between atoms: N_11  and  C_12 
REMARK    4  A    between atoms: C_12  and  C_13 
ROOT
HETATM    1  C   UNL     1       0.196  27.902  46.570  1.00  0.00     0.069 A 
HETATM    2  C   UNL     1       1.006  26.815  46.890  1.00  0.00     0.056 A 
HETATM    3  C   UNL     1       2.063  26.977  47.790  1.00  0.00     0.063 A 
HETATM    4  C   UNL     1       2.336  28.211  48.384  1.00  0.00     0.074 A 
HETATM    5  N   UNL     1       3.405  28.403  49.278  1.00  0.00    -0.234 NA
HETATM    6  C   UNL     1       4.148  27.383  49.565  1.00  0.00     0.113 A 
HETATM    7  N   UNL     1       3.930  26.135  49.041  1.00  0.00    -0.310 N 
HETATM    8  C   UNL     1       2.940  25.851  48.137  1.00  0.00     0.259 A 
HETATM    9  O   UNL     1       2.813  24.739  47.642  1.00  0.00    -0.267 OA
HETATM   10  C   UNL     1       1.518  29.293  48.060  1.00  0.00     0.035 A 
HETATM   11  C   UNL     1       0.452  29.143  47.159  1.00  0.00     0.039 A 
HETATM   12  H   UNL     1       4.542  25.358  49.257  1.00  0.00     0.170 HD
ENDROOT
BRANCH   6  13
HETATM   13  C   UNL     1       5.330  27.548  50.512  1.00  0.00     0.082 C 
HETATM   14  C   UNL     1       5.744  26.217  51.115  1.00  0.00     0.139 C 
HETATM   15  N   UNL     1       4.939  26.142  52.311  1.00  0.00    -0.347 N 
HETATM   16  C   UNL     1       4.590  27.400  52.779  1.00  0.00     0.220 C 
HETATM   17  O   UNL     1       4.039  27.658  53.835  1.00  0.00    -0.273 OA
HETATM   18  C   UNL     1       4.981  28.412  51.726  1.00  0.00     0.117 C 
BRANCH  15  19
HETATM   19  C   UNL     1       4.811  24.928  53.095  1.00  0.00     0.164 C 
BRANCH  19  20
HETATM   20  C   UNL     1       6.098  24.506  53.753  1.00  0.00    -0.040 A 
HETATM   21  C   UNL     1       6.456  25.034  55.002  1.00  0.00     0.009 A 
HETATM   22  C   UNL     1       7.632  24.628  55.632  1.00  0.00     0.001 A 
HETATM   23  C   UNL     1       8.468  23.699  55.015  1.00  0.00     0.000 A 
HETATM   24  C   UNL     1       8.132  23.181  53.766  1.00  0.00     0.001 A 
HETATM   25  C   UNL     1       6.953  23.582  53.136  1.00  0.00     0.009 A 
ENDBRANCH  19  20
ENDBRANCH  15  19
ENDBRANCH   6  13
BRANCH   1  26
HETATM   26  O   UNL     1      -0.801  27.625  45.678  1.00  0.00    -0.356 OA
HETATM   27  C   UNL     1      -1.012  28.560  44.628  1.00  0.00     0.210 C 
ENDBRANCH   1  26
TORSDOF 4
ENDMDL
MODEL 5
REMARK VINA RESULT:      -8.9      2.977      5.166
REMARK  4 active torsions:
REMARK  status: ('A' for Active; 'I' for Inactive)
REMARK    1  A    between atoms: O_2  and  C_3 
REMARK    2  A    between atoms: C_8  and  C_9 
REMARK    3  A    between atoms: N_11  and  C_12 
REMARK    4  A    between atoms: C_12  and  C_13 
ROOT
HETATM    1  C   UNL     1       7.203  32.711  62.469  1.00  0.00     0.069 A 
HETATM    2  C   UNL     1       6.457  32.721  61.293  1.00  0.00     0.056 A 
HETATM    3  C   UNL     1       6.867  31.950  60.203  1.00  0.00     0.063 A 
HETATM    4  C   UNL     1       8.018  31.161  60.256  1.00  0.00     0.074 A 
HETATM    5  N   UNL     1       8.461  30.390  59.166  1.00  0.00    -0.234 NA
HETATM    6  C   UNL     1       7.756  30.410  58.080  1.00  0.00     0.113 A 
HETATM    7  N   UNL     1       6.603  31.141  57.959  1.00  0.00    -0.310 N 
HETATM    8  C   UNL     1       6.106  31.949  58.946  1.00  0.00     0.259 A 
HETATM    9  O   UNL     1       5.106  32.636  58.782  1.00  0.00    -0.267 OA
HETATM   10  C   UNL     1       8.757  31.155  61.439  1.00  0.00     0.035 A 
HETATM   11  C   UNL     1       8.355  31.924  62.541  1.00  0.00     0.039 A 
HETATM   12  H   UNL     1       6.083  31.165  57.090  1.00  0.00     0.170 HD
ENDROOT
BRANCH   6  13
HETATM   13  C   UNL     1       8.209  29.608  56.867  1.00  0.00     0.082 C 
HETATM   14  C   UNL     1       7.025  29.005  56.132  1.00  0.00     0.139 C 
HETATM   15  N   UNL     1       6.863  27.725  56.778  1.00  0.00    -0.347 N 
HETATM   16  C   UNL     1       8.052  27.269  57.327  1.00  0.00     0.220 C 
HETATM   17  O   UNL     1       8.259  26.169  57.809  1.00  0.00    -0.273 OA
HETATM   18  C   UNL     1       9.058  28.397  57.259  1.00  0.00     0.117 C 
BRANCH  15  19
HETATM   19  C   UNL     1       5.697  26.886  56.576  1.00  0.00     0.164 C 
BRANCH  19  20
HETATM   20  C   UNL     1       5.745  26.098  55.294  1.00  0.00    -0.040 A 
HETATM   21  C   UNL     1       5.171  26.619  54.125  1.00  0.00     0.009 A 
HETATM   22  C   UNL     1       5.236  25.908  52.926  1.00  0.00     0.001 A 
HETATM   23  C   UNL     1       5.863  24.665  52.887  1.00  0.00     0.000 A 
HETATM   24  C   UNL     1       6.421  24.129  54.045  1.00  0.00     0.001 A 
HETATM   25  C   UNL     1       6.363  24.839  55.245  1.00  0.00     0.009 A 
ENDBRANCH  19  20
ENDBRANCH  15  19
ENDBRANCH   6  13
BRANCH   1  26
HETATM   26  O   UNL     1       6.708  33.506  63.464  1.00  0.00    -0.356 OA
HETATM   27  C   UNL     1       7.374  33.466  64.719  1.00  0.00     0.210 C 
ENDBRANCH   1  26
TORSDOF 4
ENDMDL
MODEL 6
REMARK VINA RESULT:      -8.8      2.685      4.120
REMARK  4 active torsions:
REMARK  status: ('A' for Active; 'I' for Inactive)
REMARK    1  A    between atoms: O_2  and  C_3 
REMARK    2  A    between atoms: C_8  and  C_9 
REMARK    3  A    between atoms: N_11  and  C_12 
REMARK    4  A    between atoms: C_12  and  C_13 
ROOT
HETATM    1  C   UNL     1       3.867  32.917  58.226  1.00  0.00     0.069 A 
HETATM    2  C   UNL     1       3.839  32.208  57.028  1.00  0.00     0.056 A 
HETATM    3  C   UNL     1       4.858  31.300  56.732  1.00  0.00     0.063 A 
HETATM    4  C   UNL     1       5.920  31.081  57.612  1.00  0.00     0.074 A 
HETATM    5  N   UNL     1       6.968  30.186  57.329  1.00  0.00    -0.234 NA
HETATM    6  C   UNL     1       6.927  29.534  56.211  1.00  0.00     0.113 A 
HETATM    7  N   UNL     1       5.906  29.678  55.307  1.00  0.00    -0.310 N 
HETATM    8  C   UNL     1       4.859  30.546  55.471  1.00  0.00     0.259 A 
HETATM    9  O   UNL     1       3.998  30.694  54.615  1.00  0.00    -0.267 OA
HETATM   10  C   UNL     1       5.940  31.793  58.811  1.00  0.00     0.035 A 
HETATM   11  C   UNL     1       4.921  32.707  59.120  1.00  0.00     0.039 A 
HETATM   12  H   UNL     1       5.909  29.180  54.426  1.00  0.00     0.170 HD
ENDROOT
BRANCH   6  13
HETATM   13  C   UNL     1       8.050  28.570  55.852  1.00  0.00     0.082 C 
HETATM   14  C   UNL     1       7.525  27.375  55.077  1.00  0.00     0.139 C 
HETATM   15  N   UNL     1       7.201  26.432  56.121  1.00  0.00    -0.347 N 
HETATM   16  C   UNL     1       7.958  26.644  57.263  1.00  0.00     0.220 C 
HETATM   17  O   UNL     1       8.008  25.929  58.248  1.00  0.00    -0.273 OA
HETATM   18  C   UNL     1       8.699  27.952  57.093  1.00  0.00     0.117 C 
BRANCH  15  19
HETATM   19  C   UNL     1       6.434  25.225  55.877  1.00  0.00     0.164 C 
BRANCH  19  20
HETATM   20  C   UNL     1       7.184  24.196  55.073  1.00  0.00    -0.040 A 
HETATM   21  C   UNL     1       6.887  24.011  53.715  1.00  0.00     0.009 A 
HETATM   22  C   UNL     1       7.596  23.080  52.955  1.00  0.00     0.001 A 
HETATM   23  C   UNL     1       8.599  22.316  53.548  1.00  0.00     0.000 A 
HETATM   24  C   UNL     1       8.890  22.478  54.901  1.00  0.00     0.001 A 
HETATM   25  C   UNL     1       8.186  23.412  55.662  1.00  0.00     0.009 A 
ENDBRANCH  19  20
ENDBRANCH  15  19
ENDBRANCH   6  13
BRANCH   1  26
HETATM   26  O   UNL     1       2.821  33.777  58.404  1.00  0.00    -0.356 OA
HETATM   27  C   UNL     1       2.732  34.443  59.657  1.00  0.00     0.210 C 
ENDBRANCH   1  26
TORSDOF 4
ENDMDL
MODEL 7
REMARK VINA RESULT:      -8.8      3.269      6.409
REMARK  4 active torsions:
REMARK  status: ('A' for Active; 'I' for Inactive)
REMARK    1  A    between atoms: O_2  and  C_3 
REMARK    2  A    between atoms: C_8  and  C_9 
REMARK    3  A    between atoms: N_11  and  C_12 
REMARK    4  A    between atoms: C_12  and  C_13 
ROOT
HETATM    1  C   UNL     1       3.682  27.273  48.743  1.00  0.00     0.069 A 
HETATM    2  C   UNL     1       3.920  28.428  49.485  1.00  0.00     0.056 A 
HETATM    3  C   UNL     1       4.706  28.364  50.638  1.00  0.00     0.063 A 
HETATM    4  C   UNL     1       5.266  27.162  51.076  1.00  0.00     0.074 A 
HETATM    5  N   UNL     1       6.046  27.069  52.243  1.00  0.00    -0.234 NA
HETATM    6  C   UNL     1       6.258  28.151  52.921  1.00  0.00     0.113 A 
HETATM    7  N   UNL     1       5.762  29.371  52.543  1.00  0.00    -0.310 N 
HETATM    8  C   UNL     1       4.965  29.563  51.445  1.00  0.00     0.259 A 
HETATM    9  O   UNL     1       4.489  30.657  51.172  1.00  0.00    -0.267 OA
HETATM   10  C   UNL     1       5.025  26.011  50.325  1.00  0.00     0.035 A 
HETATM   11  C   UNL     1       4.238  26.063  49.165  1.00  0.00     0.039 A 
HETATM   12  H   UNL     1       5.916  30.200  53.104  1.00  0.00     0.170 HD
ENDROOT
BRANCH   6  13
HETATM   13  C   UNL     1       7.079  28.095  54.203  1.00  0.00     0.082 C 
HETATM   14  C   UNL     1       7.471  26.668  54.544  1.00  0.00     0.139 C 
HETATM   15  N   UNL     1       6.370  26.219  55.362  1.00  0.00    -0.347 N 
HETATM   16  C   UNL     1       5.736  27.274  56.000  1.00  0.00     0.220 C 
HETATM   17  O   UNL     1       4.871  27.196  56.855  1.00  0.00    -0.273 OA
HETATM   18  C   UNL     1       6.279  28.561  55.421  1.00  0.00     0.117 C 
BRANCH  15  19
HETATM   19  C   UNL     1       6.180  24.827  55.726  1.00  0.00     0.164 C 
BRANCH  19  20
HETATM   20  C   UNL     1       7.093  23.888  54.982  1.00  0.00    -0.040 A 
HETATM   21  C   UNL     1       6.886  23.640  53.617  1.00  0.00     0.009 A 
HETATM   22  C   UNL     1       7.743  22.794  52.913  1.00  0.00     0.001 A 
HETATM   23  C   UNL     1       8.806  22.177  53.568  1.00  0.00     0.000 A 
HETATM   24  C   UNL     1       9.011  22.401  54.928  1.00  0.00     0.001 A 
HETATM   25  C   UNL     1       8.159  23.251  55.634  1.00  0.00     0.009 A 
ENDBRANCH  19  20
ENDBRANCH  15  19
ENDBRANCH   6  13
BRANCH   1  26
HETATM   26  O   UNL     1       2.897  27.457  47.640  1.00  0.00    -0.356 OA
HETATM   27  C   UNL     1       2.433  26.292  46.971  1.00  0.00     0.210 C 
ENDBRANCH   1  26
TORSDOF 4
ENDMDL
MODEL 8
REMARK VINA RESULT:      -8.6      2.433      7.090
REMARK  4 active torsions:
REMARK  status: ('A' for Active; 'I' for Inactive)
REMARK    1  A    between atoms: O_2  and  C_3 
REMARK    2  A    between atoms: C_8  and  C_9 
REMARK    3  A    between atoms: N_11  and  C_12 
REMARK    4  A    between atoms: C_12  and  C_13 
ROOT
HETATM    1  C   UNL     1       8.554  22.467  54.107  1.00  0.00     0.069 A 
HETATM    2  C   UNL     1       7.440  23.140  53.609  1.00  0.00     0.056 A 
HETATM    3  C   UNL     1       6.852  24.160  54.359  1.00  0.00     0.063 A 
HETATM    4  C   UNL     1       7.351  24.531  55.610  1.00  0.00     0.074 A 
HETATM    5  N   UNL     1       6.765  25.543  56.392  1.00  0.00    -0.234 NA
HETATM    6  C   UNL     1       5.731  26.158  55.915  1.00  0.00     0.113 A 
HETATM    7  N   UNL     1       5.197  25.868  54.686  1.00  0.00    -0.310 N 
HETATM    8  C   UNL     1       5.670  24.880  53.864  1.00  0.00     0.259 A 
HETATM    9  O   UNL     1       5.131  24.606  52.800  1.00  0.00    -0.267 OA
HETATM   10  C   UNL     1       8.468  23.854  56.099  1.00  0.00     0.035 A 
HETATM   11  C   UNL     1       9.069  22.828  55.355  1.00  0.00     0.039 A 
HETATM   12  H   UNL     1       4.370  26.342  54.345  1.00  0.00     0.170 HD
ENDROOT
BRANCH   6  13
HETATM   13  C   UNL     1       5.051  27.247  56.735  1.00  0.00     0.082 C 
HETATM   14  C   UNL     1       4.158  28.115  55.866  1.00  0.00     0.139 C 
HETATM   15  N   UNL     1       5.053  29.160  55.430  1.00  0.00    -0.347 N 
HETATM   16  C   UNL     1       6.095  29.355  56.324  1.00  0.00     0.220 C 
HETATM   17  O   UNL     1       6.920  30.252  56.298  1.00  0.00    -0.273 OA
HETATM   18  C   UNL     1       6.056  28.231  57.335  1.00  0.00     0.117 C 
BRANCH  15  19
HETATM   19  C   UNL     1       4.710  30.097  54.377  1.00  0.00     0.164 C 
BRANCH  19  20
HETATM   20  C   UNL     1       4.507  29.439  53.038  1.00  0.00    -0.040 A 
HETATM   21  C   UNL     1       5.532  28.668  52.471  1.00  0.00     0.009 A 
HETATM   22  C   UNL     1       5.343  28.031  51.243  1.00  0.00     0.001 A 
HETATM   23  C   UNL     1       4.134  28.170  50.565  1.00  0.00     0.000 A 
HETATM   24  C   UNL     1       3.115  28.949  51.110  1.00  0.00     0.001 A 
HETATM   25  C   UNL     1       3.299  29.583  52.340  1.00  0.00     0.009 A 
ENDBRANCH  19  20
ENDBRANCH  15  19
ENDBRANCH   6  13
BRANCH   1  26
HETATM   26  O   UNL     1       9.040  21.487  53.288  1.00  0.00    -0.356 OA
HETATM   27  C   UNL     1       8.145  20.445  52.920  1.00  0.00     0.210 C 
ENDBRANCH   1  26
TORSDOF 4
ENDMDL
MODEL 9
REMARK VINA RESULT:      -8.6      3.444      6.156
REMARK  4 active torsions:
REMARK  status: ('A' for Active; 'I' for Inactive)
REMARK    1  A    between atoms: O_2  and  C_3 
REMARK    2  A    between atoms: C_8  and  C_9 
REMARK    3  A    between atoms: N_11  and  C_12 
REMARK    4  A    between atoms: C_12  and  C_13 
ROOT
HETATM    1  C   UNL     1       6.516  32.891  62.941  1.00  0.00     0.069 A 
HETATM    2  C   UNL     1       7.597  32.060  62.656  1.00  0.00     0.056 A 
HETATM    3  C   UNL     1       7.777  31.575  61.358  1.00  0.00     0.063 A 
HETATM    4  C   UNL     1       6.894  31.899  60.327  1.00  0.00     0.074 A 
HETATM    5  N   UNL     1       7.044  31.408  59.017  1.00  0.00    -0.234 NA
HETATM    6  C   UNL     1       8.054  30.638  58.767  1.00  0.00     0.113 A 
HETATM    7  N   UNL     1       8.976  30.293  59.721  1.00  0.00    -0.310 N 
HETATM    8  C   UNL     1       8.902  30.688  61.031  1.00  0.00     0.259 A 
HETATM    9  O   UNL     1       9.709  30.311  61.870  1.00  0.00    -0.267 OA
HETATM   10  C   UNL     1       5.816  32.733  60.621  1.00  0.00     0.035 A 
HETATM   11  C   UNL     1       5.625  33.229  61.920  1.00  0.00     0.039 A 
HETATM   12  H   UNL     1       9.742  29.665  59.511  1.00  0.00     0.170 HD
ENDROOT
BRANCH   6  13
HETATM   13  C   UNL     1       8.245  30.065  57.369  1.00  0.00     0.082 C 
HETATM   14  C   UNL     1       6.916  29.671  56.748  1.00  0.00     0.139 C 
HETATM   15  N   UNL     1       6.760  28.299  57.167  1.00  0.00    -0.347 N 
HETATM   16  C   UNL     1       7.982  27.691  57.413  1.00  0.00     0.220 C 
HETATM   17  O   UNL     1       8.177  26.510  57.642  1.00  0.00    -0.273 OA
HETATM   18  C   UNL     1       9.048  28.763  57.382  1.00  0.00     0.117 C 
BRANCH  15  19
HETATM   19  C   UNL     1       5.515  27.570  57.017  1.00  0.00     0.164 C 
BRANCH  19  20
HETATM   20  C   UNL     1       5.325  26.994  55.638  1.00  0.00    -0.040 A 
HETATM   21  C   UNL     1       5.662  25.656  55.382  1.00  0.00     0.009 A 
HETATM   22  C   UNL     1       5.464  25.106  54.115  1.00  0.00     0.001 A 
HETATM   23  C   UNL     1       4.940  25.890  53.090  1.00  0.00     0.000 A 
HETATM   24  C   UNL     1       4.618  27.224  53.327  1.00  0.00     0.001 A 
HETATM   25  C   UNL     1       4.810  27.776  54.595  1.00  0.00     0.009 A 
ENDBRANCH  19  20
ENDBRANCH  15  19
ENDBRANCH   6  13
BRANCH   1  26
HETATM   26  O   UNL     1       6.441  33.299  64.243  1.00  0.00    -0.356 OA
HETATM   27  C   UNL     1       5.143  33.443  64.805  1.00  0.00     0.210 C 
ENDBRANCH   1  26
TORSDOF 4
ENDMDL
MODEL 10
REMARK VINA RESULT:      -8.3      1.625      2.279
REMARK  4 active torsions:
REMARK  status: ('A' for Active; 'I' for Inactive)
REMARK    1  A    between atoms: O_2  and  C_3 
REMARK    2  A    between atoms: C_8  and  C_9 
REMARK    3  A    between atoms: N_11  and  C_12 
REMARK    4  A    between atoms: C_12  and  C_13 
ROOT
HETATM    1  C   UNL     1       9.022  30.150  58.446  1.00  0.00     0.069 A 
HETATM    2  C   UNL     1       7.656  29.916  58.311  1.00  0.00     0.056 A 
HETATM    3  C   UNL     1       7.159  29.355  57.132  1.00  0.00     0.063 A 
HETATM    4  C   UNL     1       8.002  29.020  56.070  1.00  0.00     0.074 A 
HETATM    5  N   UNL     1       7.524  28.471  54.866  1.00  0.00    -0.234 NA
HETATM    6  C   UNL     1       6.251  28.259  54.757  1.00  0.00     0.113 A 
HETATM    7  N   UNL     1       5.364  28.540  55.763  1.00  0.00    -0.310 N 
HETATM    8  C   UNL     1       5.722  29.107  56.958  1.00  0.00     0.259 A 
HETATM    9  O   UNL     1       4.895  29.402  57.810  1.00  0.00    -0.267 OA
HETATM   10  C   UNL     1       9.369  29.255  56.215  1.00  0.00     0.035 A 
HETATM   11  C   UNL     1       9.880  29.816  57.394  1.00  0.00     0.039 A 
HETATM   12  H   UNL     1       4.369  28.395  55.645  1.00  0.00     0.170 HD
ENDROOT
BRANCH   6  13
HETATM   13  C   UNL     1       5.686  27.686  53.464  1.00  0.00     0.082 C 
HETATM   14  C   UNL     1       5.144  26.283  53.673  1.00  0.00     0.139 C 
HETATM   15  N   UNL     1       6.293  25.452  53.407  1.00  0.00    -0.347 N 
HETATM   16  C   UNL     1       7.194  26.072  52.555  1.00  0.00     0.220 C 
HETATM   17  O   UNL     1       8.179  25.569  52.043  1.00  0.00    -0.273 OA
HETATM   18  C   UNL     1       6.762  27.512  52.390  1.00  0.00     0.117 C 
BRANCH  15  19
HETATM   19  C   UNL     1       6.325  24.035  53.720  1.00  0.00     0.164 C 
BRANCH  19  20
HETATM   20  C   UNL     1       7.079  23.722  54.985  1.00  0.00    -0.040 A 
HETATM   21  C   UNL     1       7.577  22.429  55.206  1.00  0.00     0.009 A 
HETATM   22  C   UNL     1       8.301  22.137  56.362  1.00  0.00     0.001 A 
HETATM   23  C   UNL     1       8.524  23.129  57.314  1.00  0.00     0.000 A 
HETATM   24  C   UNL     1       8.020  24.412  57.114  1.00  0.00     0.001 A 
HETATM   25  C   UNL     1       7.299  24.710  55.956  1.00  0.00     0.009 A 
ENDBRANCH  19  20
ENDBRANCH  15  19
ENDBRANCH   6  13
BRANCH   1  26
HETATM   26  O   UNL     1       9.389  30.705  59.639  1.00  0.00    -0.356 OA
HETATM   27  C   UNL     1       8.350  31.203  60.471  1.00  0.00     0.210 C 
ENDBRANCH   1  26
TORSDOF 4
ENDMDL
