MODEL 1
REMARK VINA RESULT:     -10.4      0.000      0.000
REMARK  7 active torsions:
REMARK  status: ('A' for Active; 'I' for Inactive)
REMARK    1  A    between atoms: C_3  and  N_4 
REMARK       I    between atoms: N_4  and  C_5 
REMARK    2  A    between atoms: C_5  and  C_6 
REMARK       I    between atoms: C_6  and  N_7 
REMARK    3  A    between atoms: N_7  and  C_8 
REMARK    4  A    between atoms: C_8  and  C_9 
REMARK    5  A    between atoms: C_9  and  C_10 
REMARK    6  A    between atoms: C_12  and  O_13 
REMARK    7  A    between atoms: N_20  and  C_21 
ROOT
HETATM    1  N   UNL     1       7.870  28.615  56.882  1.00  0.00    -0.302 N 
HETATM    2  C   UNL     1       7.597  27.294  57.139  1.00  0.00     0.315 C 
HETATM    3  O   UNL     1       7.746  26.624  58.150  1.00  0.00    -0.262 OA
HETATM    4  H   UNL     1       7.674  28.932  55.940  1.00  0.00     0.171 HD
ENDROOT
BRANCH   2   5
HETATM    5  C   UNL     1       7.014  26.606  55.887  1.00  0.00     0.309 C 
HETATM    6  N   UNL     1       7.032  25.230  55.938  1.00  0.00    -0.353 N 
HETATM    7  H   UNL     1       7.529  24.822  56.728  1.00  0.00     0.162 HD
HETATM    8  O   UNL     1       6.599  27.290  54.961  1.00  0.00    -0.262 OA
BRANCH   6   9
HETATM    9  C   UNL     1       6.628  24.425  54.806  1.00  0.00     0.128 C 
BRANCH   9  10
HETATM   10  C   UNL     1       7.807  24.069  53.902  1.00  0.00     0.058 C 
BRANCH  10  11
HETATM   11  C   UNL     1       8.143  22.600  53.978  1.00  0.00    -0.054 A 
HETATM   12  C   UNL     1       8.719  22.056  55.135  1.00  0.00     0.043 A 
HETATM   13  C   UNL     1       9.049  20.702  55.173  1.00  0.00     0.066 A 
HETATM   14  C   UNL     1       8.819  19.880  54.077  1.00  0.00     0.036 A 
HETATM   15  C   UNL     1       8.249  20.414  52.923  1.00  0.00     0.003 A 
HETATM   16  C   UNL     1       7.916  21.768  52.871  1.00  0.00     0.007 A 
BRANCH  13  17
HETATM   17  O   UNL     1       9.612  20.139  56.280  1.00  0.00    -0.361 OA
HETATM   18  H   UNL     1      10.404  20.645  56.519  1.00  0.00     0.217 HD
ENDBRANCH  13  17
ENDBRANCH  10  11
ENDBRANCH   9  10
ENDBRANCH   6   9
ENDBRANCH   2   5
BRANCH   1  19
HETATM   19  C   UNL     1       8.376  29.523  57.778  1.00  0.00     0.158 A 
HETATM   20  C   UNL     1       9.665  30.101  57.687  1.00  0.00     0.003 A 
HETATM   21  C   UNL     1      10.715  29.891  56.661  1.00  0.00     0.054 C 
HETATM   22  C   UNL     1       9.729  30.960  58.765  1.00  0.00     0.129 A 
HETATM   23  N   UNL     1       8.550  30.844  59.466  1.00  0.00    -0.241 N 
HETATM   24  N   UNL     1       7.708  29.992  58.826  1.00  0.00    -0.149 NA
BRANCH  23  25
HETATM   25  C   UNL     1       8.115  31.514  60.650  1.00  0.00     0.079 A 
HETATM   26  C   UNL     1       8.637  31.295  61.934  1.00  0.00     0.062 A 
HETATM   27 CL   UNL     1       9.755  30.049  62.369  1.00  0.00    -0.082 Cl
HETATM   28  C   UNL     1       8.167  32.058  63.017  1.00  0.00     0.026 A 
HETATM   29  C   UNL     1       7.175  33.023  62.843  1.00  0.00     0.002 A 
HETATM   30  C   UNL     1       6.628  33.223  61.584  1.00  0.00     0.002 A 
HETATM   31  C   UNL     1       7.087  32.472  60.500  1.00  0.00     0.033 A 
ENDBRANCH  23  25
ENDBRANCH   1  19
TORSDOF 7
ENDMDL
MODEL 2
REMARK VINA RESULT:     -10.4      1.106      1.424
REMARK  7 active torsions:
REMARK  status: ('A' for Active; 'I' for Inactive)
REMARK    1  A    between atoms: C_3  and  N_4 
REMARK       I    between atoms: N_4  and  C_5 
REMARK    2  A    between atoms: C_5  and  C_6 
REMARK       I    between atoms: C_6  and  N_7 
REMARK    3  A    between atoms: N_7  and  C_8 
REMARK    4  A    between atoms: C_8  and  C_9 
REMARK    5  A    between atoms: C_9  and  C_10 
REMARK    6  A    between atoms: C_12  and  O_13 
REMARK    7  A    between atoms: N_20  and  C_21 
ROOT
HETATM    1  N   UNL     1       8.021  28.731  56.952  1.00  0.00    -0.302 N 
HETATM    2  C   UNL     1       7.792  27.395  57.173  1.00  0.00     0.315 C 
HETATM    3  O   UNL     1       7.939  26.709  58.174  1.00  0.00    -0.262 OA
HETATM    4  H   UNL     1       7.838  29.062  56.011  1.00  0.00     0.171 HD
ENDROOT
BRANCH   2   5
HETATM    5  C   UNL     1       7.271  26.713  55.891  1.00  0.00     0.309 C 
HETATM    6  N   UNL     1       7.073  25.356  56.013  1.00  0.00    -0.353 N 
HETATM    7  H   UNL     1       7.400  24.937  56.881  1.00  0.00     0.162 HD
HETATM    8  O   UNL     1       7.083  27.385  54.885  1.00  0.00    -0.262 OA
BRANCH   6   9
HETATM    9  C   UNL     1       6.694  24.542  54.879  1.00  0.00     0.128 C 
BRANCH   9  10
HETATM   10  C   UNL     1       7.894  24.173  54.008  1.00  0.00     0.058 C 
BRANCH  10  11
HETATM   11  C   UNL     1       8.181  22.693  54.052  1.00  0.00    -0.054 A 
HETATM   12  C   UNL     1       8.776  22.111  55.180  1.00  0.00     0.043 A 
HETATM   13  C   UNL     1       9.059  20.746  55.188  1.00  0.00     0.066 A 
HETATM   14  C   UNL     1       8.762  19.949  54.089  1.00  0.00     0.036 A 
HETATM   15  C   UNL     1       8.173  20.520  52.963  1.00  0.00     0.003 A 
HETATM   16  C   UNL     1       7.886  21.886  52.942  1.00  0.00     0.007 A 
BRANCH  13  17
HETATM   17  O   UNL     1       9.638  20.146  56.267  1.00  0.00    -0.361 OA
HETATM   18  H   UNL     1      10.390  19.616  55.961  1.00  0.00     0.217 HD
ENDBRANCH  13  17
ENDBRANCH  10  11
ENDBRANCH   9  10
ENDBRANCH   6   9
ENDBRANCH   2   5
BRANCH   1  19
HETATM   19  C   UNL     1       8.466  29.638  57.881  1.00  0.00     0.158 A 
HETATM   20  C   UNL     1       9.783  30.155  57.925  1.00  0.00     0.003 A 
HETATM   21  C   UNL     1      10.930  29.872  57.028  1.00  0.00     0.054 C 
HETATM   22  C   UNL     1       9.767  31.036  58.986  1.00  0.00     0.129 A 
HETATM   23  N   UNL     1       8.513  30.992  59.551  1.00  0.00    -0.241 N 
HETATM   24  N   UNL     1       7.709  30.163  58.838  1.00  0.00    -0.149 NA
BRANCH  23  25
HETATM   25  C   UNL     1       7.981  31.710  60.665  1.00  0.00     0.079 A 
HETATM   26  C   UNL     1       6.781  32.439  60.651  1.00  0.00     0.062 A 
HETATM   27 CL   UNL     1       5.822  32.775  59.252  1.00  0.00    -0.082 Cl
HETATM   28  C   UNL     1       6.328  33.057  61.830  1.00  0.00     0.026 A 
HETATM   29  C   UNL     1       7.059  32.976  63.014  1.00  0.00     0.002 A 
HETATM   30  C   UNL     1       8.264  32.287  63.029  1.00  0.00     0.002 A 
HETATM   31  C   UNL     1       8.724  31.667  61.867  1.00  0.00     0.033 A 
ENDBRANCH  23  25
ENDBRANCH   1  19
TORSDOF 7
ENDMDL
MODEL 3
REMARK VINA RESULT:     -10.0      3.241     10.115
REMARK  7 active torsions:
REMARK  status: ('A' for Active; 'I' for Inactive)
REMARK    1  A    between atoms: C_3  and  N_4 
REMARK       I    between atoms: N_4  and  C_5 
REMARK    2  A    between atoms: C_5  and  C_6 
REMARK       I    between atoms: C_6  and  N_7 
REMARK    3  A    between atoms: N_7  and  C_8 
REMARK    4  A    between atoms: C_8  and  C_9 
REMARK    5  A    between atoms: C_9  and  C_10 
REMARK    6  A    between atoms: C_12  and  O_13 
REMARK    7  A    between atoms: N_20  and  C_21 
ROOT
HETATM    1  N   UNL     1       8.360  29.219  57.994  1.00  0.00    -0.302 N 
HETATM    2  C   UNL     1       9.308  30.030  57.419  1.00  0.00     0.315 C 
HETATM    3  O   UNL     1       9.824  30.003  56.311  1.00  0.00    -0.262 OA
HETATM    4  H   UNL     1       8.111  29.440  58.951  1.00  0.00     0.171 HD
ENDROOT
BRANCH   2   5
HETATM    5  C   UNL     1       9.753  31.130  58.405  1.00  0.00     0.309 C 
HETATM    6  N   UNL     1       9.077  31.120  59.604  1.00  0.00    -0.353 N 
HETATM    7  H   UNL     1       8.289  30.479  59.664  1.00  0.00     0.162 HD
HETATM    8  O   UNL     1      10.631  31.916  58.075  1.00  0.00    -0.262 OA
BRANCH   6   9
HETATM    9  C   UNL     1       9.288  32.148  60.600  1.00  0.00     0.128 C 
BRANCH   9  10
HETATM   10  C   UNL     1       9.241  31.592  62.022  1.00  0.00     0.058 C 
BRANCH  10  11
HETATM   11  C   UNL     1       7.974  31.995  62.736  1.00  0.00    -0.054 A 
HETATM   12  C   UNL     1       6.734  31.466  62.348  1.00  0.00     0.043 A 
HETATM   13  C   UNL     1       5.573  31.874  63.002  1.00  0.00     0.066 A 
HETATM   14  C   UNL     1       5.623  32.804  64.034  1.00  0.00     0.036 A 
HETATM   15  C   UNL     1       6.850  33.336  64.422  1.00  0.00     0.003 A 
HETATM   16  C   UNL     1       8.021  32.936  63.775  1.00  0.00     0.007 A 
BRANCH  13  17
HETATM   17  O   UNL     1       4.350  31.383  62.652  1.00  0.00    -0.361 OA
HETATM   18  H   UNL     1       4.475  30.543  62.182  1.00  0.00     0.217 HD
ENDBRANCH  13  17
ENDBRANCH  10  11
ENDBRANCH   9  10
ENDBRANCH   6   9
ENDBRANCH   2   5
BRANCH   1  19
HETATM   19  C   UNL     1       7.735  28.156  57.392  1.00  0.00     0.158 A 
HETATM   20  C   UNL     1       6.355  28.115  57.079  1.00  0.00     0.003 A 
HETATM   21  C   UNL     1       5.314  29.148  57.298  1.00  0.00     0.054 C 
HETATM   22  C   UNL     1       6.181  26.890  56.469  1.00  0.00     0.129 A 
HETATM   23  N   UNL     1       7.394  26.241  56.475  1.00  0.00    -0.241 N 
HETATM   24  N   UNL     1       8.352  27.046  57.004  1.00  0.00    -0.149 NA
BRANCH  23  25
HETATM   25  C   UNL     1       7.752  24.955  55.967  1.00  0.00     0.079 A 
HETATM   26  C   UNL     1       7.872  24.634  54.606  1.00  0.00     0.062 A 
HETATM   27 CL   UNL     1       7.425  25.659  53.286  1.00  0.00    -0.082 Cl
HETATM   28  C   UNL     1       8.289  23.346  54.228  1.00  0.00     0.026 A 
HETATM   29  C   UNL     1       8.571  22.370  55.182  1.00  0.00     0.002 A 
HETATM   30  C   UNL     1       8.422  22.667  56.530  1.00  0.00     0.002 A 
HETATM   31  C   UNL     1       8.011  23.942  56.919  1.00  0.00     0.033 A 
ENDBRANCH  23  25
ENDBRANCH   1  19
TORSDOF 7
ENDMDL
MODEL 4
REMARK VINA RESULT:      -9.9      3.424     10.529
REMARK  7 active torsions:
REMARK  status: ('A' for Active; 'I' for Inactive)
REMARK    1  A    between atoms: C_3  and  N_4 
REMARK       I    between atoms: N_4  and  C_5 
REMARK    2  A    between atoms: C_5  and  C_6 
REMARK       I    between atoms: C_6  and  N_7 
REMARK    3  A    between atoms: N_7  and  C_8 
REMARK    4  A    between atoms: C_8  and  C_9 
REMARK    5  A    between atoms: C_9  and  C_10 
REMARK    6  A    between atoms: C_12  and  O_13 
REMARK    7  A    between atoms: N_20  and  C_21 
ROOT
HETATM    1  N   UNL     1       8.347  29.188  58.121  1.00  0.00    -0.302 N 
HETATM    2  C   UNL     1       9.349  29.972  57.604  1.00  0.00     0.315 C 
HETATM    3  O   UNL     1       9.928  29.931  56.528  1.00  0.00    -0.262 OA
HETATM    4  H   UNL     1       8.048  29.416  59.062  1.00  0.00     0.171 HD
ENDROOT
BRANCH   2   5
HETATM    5  C   UNL     1       9.763  31.061  58.615  1.00  0.00     0.309 C 
HETATM    6  N   UNL     1       9.187  30.926  59.858  1.00  0.00    -0.353 N 
HETATM    7  H   UNL     1       8.469  30.209  59.938  1.00  0.00     0.162 HD
HETATM    8  O   UNL     1      10.536  31.945  58.268  1.00  0.00    -0.262 OA
BRANCH   6   9
HETATM    9  C   UNL     1       9.377  31.920  60.892  1.00  0.00     0.128 C 
BRANCH   9  10
HETATM   10  C   UNL     1       8.717  31.514  62.209  1.00  0.00     0.058 C 
BRANCH  10  11
HETATM   11  C   UNL     1       7.840  32.613  62.755  1.00  0.00    -0.054 A 
HETATM   12  C   UNL     1       7.851  32.928  64.122  1.00  0.00     0.043 A 
HETATM   13  C   UNL     1       7.011  33.927  64.609  1.00  0.00     0.066 A 
HETATM   14  C   UNL     1       6.155  34.619  63.760  1.00  0.00     0.036 A 
HETATM   15  C   UNL     1       6.136  34.310  62.401  1.00  0.00     0.003 A 
HETATM   16  C   UNL     1       6.972  33.310  61.900  1.00  0.00     0.007 A 
BRANCH  13  17
HETATM   17  O   UNL     1       6.994  34.259  65.932  1.00  0.00    -0.361 OA
HETATM   18  H   UNL     1       7.680  33.749  66.389  1.00  0.00     0.217 HD
ENDBRANCH  13  17
ENDBRANCH  10  11
ENDBRANCH   9  10
ENDBRANCH   6   9
ENDBRANCH   2   5
BRANCH   1  19
HETATM   19  C   UNL     1       7.730  28.141  57.482  1.00  0.00     0.158 A 
HETATM   20  C   UNL     1       6.359  28.117  57.132  1.00  0.00     0.003 A 
HETATM   21  C   UNL     1       5.320  29.153  57.346  1.00  0.00     0.054 C 
HETATM   22  C   UNL     1       6.193  26.905  56.494  1.00  0.00     0.129 A 
HETATM   23  N   UNL     1       7.401  26.248  56.519  1.00  0.00    -0.241 N 
HETATM   24  N   UNL     1       8.350  27.034  57.088  1.00  0.00    -0.149 NA
BRANCH  23  25
HETATM   25  C   UNL     1       7.763  24.969  55.994  1.00  0.00     0.079 A 
HETATM   26  C   UNL     1       7.892  24.668  54.630  1.00  0.00     0.062 A 
HETATM   27 CL   UNL     1       7.452  25.711  53.321  1.00  0.00    -0.082 Cl
HETATM   28  C   UNL     1       8.312  23.386  54.235  1.00  0.00     0.026 A 
HETATM   29  C   UNL     1       8.589  22.396  55.177  1.00  0.00     0.002 A 
HETATM   30  C   UNL     1       8.432  22.673  56.528  1.00  0.00     0.002 A 
HETATM   31  C   UNL     1       8.017  23.943  56.933  1.00  0.00     0.033 A 
ENDBRANCH  23  25
ENDBRANCH   1  19
TORSDOF 7
ENDMDL
MODEL 5
REMARK VINA RESULT:      -9.7      3.204     10.726
REMARK  7 active torsions:
REMARK  status: ('A' for Active; 'I' for Inactive)
REMARK    1  A    between atoms: C_3  and  N_4 
REMARK       I    between atoms: N_4  and  C_5 
REMARK    2  A    between atoms: C_5  and  C_6 
REMARK       I    between atoms: C_6  and  N_7 
REMARK    3  A    between atoms: N_7  and  C_8 
REMARK    4  A    between atoms: C_8  and  C_9 
REMARK    5  A    between atoms: C_9  and  C_10 
REMARK    6  A    between atoms: C_12  and  O_13 
REMARK    7  A    between atoms: N_20  and  C_21 
ROOT
HETATM    1  N   UNL     1       7.955  27.369  57.312  1.00  0.00    -0.302 N 
HETATM    2  C   UNL     1       8.300  28.606  56.824  1.00  0.00     0.315 C 
HETATM    3  O   UNL     1       8.188  29.089  55.707  1.00  0.00    -0.262 OA
HETATM    4  H   UNL     1       8.176  27.200  58.286  1.00  0.00     0.171 HD
ENDROOT
BRANCH   2   5
HETATM    5  C   UNL     1       8.940  29.467  57.932  1.00  0.00     0.309 C 
HETATM    6  N   UNL     1       8.121  29.694  59.015  1.00  0.00    -0.353 N 
HETATM    7  H   UNL     1       7.158  29.378  58.917  1.00  0.00     0.162 HD
HETATM    8  O   UNL     1      10.081  29.888  57.786  1.00  0.00    -0.262 OA
BRANCH   6   9
HETATM    9  C   UNL     1       8.518  30.572  60.094  1.00  0.00     0.128 C 
BRANCH   9  10
HETATM   10  C   UNL     1       7.838  31.938  60.005  1.00  0.00     0.058 C 
BRANCH  10  11
HETATM   11  C   UNL     1       7.508  32.485  61.372  1.00  0.00    -0.054 A 
HETATM   12  C   UNL     1       6.455  33.395  61.545  1.00  0.00     0.043 A 
HETATM   13  C   UNL     1       6.187  33.911  62.811  1.00  0.00     0.066 A 
HETATM   14  C   UNL     1       6.951  33.539  63.911  1.00  0.00     0.036 A 
HETATM   15  C   UNL     1       8.001  32.638  63.747  1.00  0.00     0.003 A 
HETATM   16  C   UNL     1       8.281  32.115  62.483  1.00  0.00     0.007 A 
BRANCH  13  17
HETATM   17  O   UNL     1       5.172  34.799  63.016  1.00  0.00    -0.361 OA
HETATM   18  H   UNL     1       5.212  35.110  63.934  1.00  0.00     0.217 HD
ENDBRANCH  13  17
ENDBRANCH  10  11
ENDBRANCH   9  10
ENDBRANCH   6   9
ENDBRANCH   2   5
BRANCH   1  19
HETATM   19  C   UNL     1       7.345  26.364  56.603  1.00  0.00     0.158 A 
HETATM   20  C   UNL     1       5.970  26.344  56.267  1.00  0.00     0.003 A 
HETATM   21  C   UNL     1       4.919  27.345  56.568  1.00  0.00     0.054 C 
HETATM   22  C   UNL     1       5.814  25.180  55.543  1.00  0.00     0.129 A 
HETATM   23  N   UNL     1       7.032  24.541  55.506  1.00  0.00    -0.241 N 
HETATM   24  N   UNL     1       7.976  25.298  56.122  1.00  0.00    -0.149 NA
BRANCH  23  25
HETATM   25  C   UNL     1       7.407  23.311  54.885  1.00  0.00     0.079 A 
HETATM   26  C   UNL     1       7.714  23.159  53.524  1.00  0.00     0.062 A 
HETATM   27 CL   UNL     1       7.513  24.369  52.304  1.00  0.00    -0.082 Cl
HETATM   28  C   UNL     1       8.128  21.907  53.038  1.00  0.00     0.026 A 
HETATM   29  C   UNL     1       8.223  20.801  53.882  1.00  0.00     0.002 A 
HETATM   30  C   UNL     1       7.888  20.932  55.222  1.00  0.00     0.002 A 
HETATM   31  C   UNL     1       7.477  22.171  55.718  1.00  0.00     0.033 A 
ENDBRANCH  23  25
ENDBRANCH   1  19
TORSDOF 7
ENDMDL
MODEL 6
REMARK VINA RESULT:      -9.5      2.169      2.731
REMARK  7 active torsions:
REMARK  status: ('A' for Active; 'I' for Inactive)
REMARK    1  A    between atoms: C_3  and  N_4 
REMARK       I    between atoms: N_4  and  C_5 
REMARK    2  A    between atoms: C_5  and  C_6 
REMARK       I    between atoms: C_6  and  N_7 
REMARK    3  A    between atoms: N_7  and  C_8 
REMARK    4  A    between atoms: C_8  and  C_9 
REMARK    5  A    between atoms: C_9  and  C_10 
REMARK    6  A    between atoms: C_12  and  O_13 
REMARK    7  A    between atoms: N_20  and  C_21 
ROOT
HETATM    1  N   UNL     1       6.156  29.251  55.901  1.00  0.00    -0.302 N 
HETATM    2  C   UNL     1       5.522  28.040  56.030  1.00  0.00     0.315 C 
HETATM    3  O   UNL     1       4.933  27.537  56.976  1.00  0.00    -0.262 OA
HETATM    4  H   UNL     1       6.596  29.427  55.005  1.00  0.00     0.171 HD
ENDROOT
BRANCH   2   5
HETATM    5  C   UNL     1       5.622  27.232  54.719  1.00  0.00     0.309 C 
HETATM    6  N   UNL     1       5.696  25.869  54.899  1.00  0.00    -0.353 N 
HETATM    7  H   UNL     1       5.798  25.554  55.862  1.00  0.00     0.162 HD
HETATM    8  O   UNL     1       5.638  27.822  53.647  1.00  0.00    -0.262 OA
BRANCH   6   9
HETATM    9  C   UNL     1       5.906  24.969  53.787  1.00  0.00     0.128 C 
BRANCH   9  10
HETATM   10  C   UNL     1       7.375  24.584  53.626  1.00  0.00     0.058 C 
BRANCH  10  11
HETATM   11  C   UNL     1       7.619  23.144  54.005  1.00  0.00    -0.054 A 
HETATM   12  C   UNL     1       7.856  22.175  53.019  1.00  0.00     0.043 A 
HETATM   13  C   UNL     1       8.049  20.845  53.389  1.00  0.00     0.066 A 
HETATM   14  C   UNL     1       8.007  20.461  54.724  1.00  0.00     0.036 A 
HETATM   15  C   UNL     1       7.769  21.418  55.709  1.00  0.00     0.003 A 
HETATM   16  C   UNL     1       7.572  22.753  55.352  1.00  0.00     0.007 A 
BRANCH  13  17
HETATM   17  O   UNL     1       8.280  19.875  52.459  1.00  0.00    -0.361 OA
HETATM   18  H   UNL     1       9.171  19.998  52.096  1.00  0.00     0.217 HD
ENDBRANCH  13  17
ENDBRANCH  10  11
ENDBRANCH   9  10
ENDBRANCH   6   9
ENDBRANCH   2   5
BRANCH   1  19
HETATM   19  C   UNL     1       6.241  30.224  56.866  1.00  0.00     0.158 A 
HETATM   20  C   UNL     1       5.414  31.372  56.917  1.00  0.00     0.003 A 
HETATM   21  C   UNL     1       4.315  31.774  56.007  1.00  0.00     0.054 C 
HETATM   22  C   UNL     1       5.830  32.040  58.050  1.00  0.00     0.129 A 
HETATM   23  N   UNL     1       6.876  31.332  58.595  1.00  0.00    -0.241 N 
HETATM   24  N   UNL     1       7.091  30.195  57.886  1.00  0.00    -0.149 NA
BRANCH  23  25
HETATM   25  C   UNL     1       7.652  31.593  59.766  1.00  0.00     0.079 A 
HETATM   26  C   UNL     1       9.039  31.806  59.779  1.00  0.00     0.062 A 
HETATM   27 CL   UNL     1      10.103  31.600  58.430  1.00  0.00    -0.082 Cl
HETATM   28  C   UNL     1       9.686  32.113  60.989  1.00  0.00     0.026 A 
HETATM   29  C   UNL     1       8.976  32.195  62.185  1.00  0.00     0.002 A 
HETATM   30  C   UNL     1       7.609  31.953  62.189  1.00  0.00     0.002 A 
HETATM   31  C   UNL     1       6.955  31.648  60.995  1.00  0.00     0.033 A 
ENDBRANCH  23  25
ENDBRANCH   1  19
TORSDOF 7
ENDMDL
MODEL 7
REMARK VINA RESULT:      -9.3      4.085     11.182
REMARK  7 active torsions:
REMARK  status: ('A' for Active; 'I' for Inactive)
REMARK    1  A    between atoms: C_3  and  N_4 
REMARK       I    between atoms: N_4  and  C_5 
REMARK    2  A    between atoms: C_5  and  C_6 
REMARK       I    between atoms: C_6  and  N_7 
REMARK    3  A    between atoms: N_7  and  C_8 
REMARK    4  A    between atoms: C_8  and  C_9 
REMARK    5  A    between atoms: C_9  and  C_10 
REMARK    6  A    between atoms: C_12  and  O_13 
REMARK    7  A    between atoms: N_20  and  C_21 
ROOT
HETATM    1  N   UNL     1       7.970  30.728  59.839  1.00  0.00    -0.302 N 
HETATM    2  C   UNL     1       8.502  30.720  61.105  1.00  0.00     0.315 C 
HETATM    3  O   UNL     1       9.366  30.018  61.610  1.00  0.00    -0.262 OA
HETATM    4  H   UNL     1       7.235  31.406  59.672  1.00  0.00     0.171 HD
ENDROOT
BRANCH   2   5
HETATM    5  C   UNL     1       7.838  31.804  61.980  1.00  0.00     0.309 C 
HETATM    6  N   UNL     1       6.598  32.207  61.537  1.00  0.00    -0.353 N 
HETATM    7  H   UNL     1       6.312  31.842  60.631  1.00  0.00     0.162 HD
HETATM    8  O   UNL     1       8.428  32.229  62.965  1.00  0.00    -0.262 OA
BRANCH   6   9
HETATM    9  C   UNL     1       5.883  33.292  62.173  1.00  0.00     0.128 C 
BRANCH   9  10
HETATM   10  C   UNL     1       4.798  32.789  63.123  1.00  0.00     0.058 C 
BRANCH  10  11
HETATM   11  C   UNL     1       4.844  33.506  64.450  1.00  0.00    -0.054 A 
HETATM   12  C   UNL     1       3.717  34.183  64.938  1.00  0.00     0.043 A 
HETATM   13  C   UNL     1       3.791  34.864  66.151  1.00  0.00     0.066 A 
HETATM   14  C   UNL     1       4.968  34.886  66.889  1.00  0.00     0.036 A 
HETATM   15  C   UNL     1       6.093  34.218  66.409  1.00  0.00     0.003 A 
HETATM   16  C   UNL     1       6.034  33.533  65.194  1.00  0.00     0.007 A 
BRANCH  13  17
HETATM   17  O   UNL     1       2.716  35.535  66.656  1.00  0.00    -0.361 OA
HETATM   18  H   UNL     1       3.018  36.112  67.375  1.00  0.00     0.217 HD
ENDBRANCH  13  17
ENDBRANCH  10  11
ENDBRANCH   9  10
ENDBRANCH   6   9
ENDBRANCH   2   5
BRANCH   1  19
HETATM   19  C   UNL     1       8.344  29.911  58.801  1.00  0.00     0.158 A 
HETATM   20  C   UNL     1       9.471  30.136  57.976  1.00  0.00     0.003 A 
HETATM   21  C   UNL     1      10.469  31.231  58.031  1.00  0.00     0.054 C 
HETATM   22  C   UNL     1       9.472  29.066  57.105  1.00  0.00     0.129 A 
HETATM   23  N   UNL     1       8.372  28.291  57.388  1.00  0.00    -0.241 N 
HETATM   24  N   UNL     1       7.710  28.795  58.461  1.00  0.00    -0.149 NA
BRANCH  23  25
HETATM   25  C   UNL     1       7.920  27.079  56.783  1.00  0.00     0.079 A 
HETATM   26  C   UNL     1       7.462  26.962  55.461  1.00  0.00     0.062 A 
HETATM   27 CL   UNL     1       7.169  28.278  54.377  1.00  0.00    -0.082 Cl
HETATM   28  C   UNL     1       7.098  25.702  54.958  1.00  0.00     0.026 A 
HETATM   29  C   UNL     1       7.166  24.560  55.755  1.00  0.00     0.002 A 
HETATM   30  C   UNL     1       7.584  24.669  57.074  1.00  0.00     0.002 A 
HETATM   31  C   UNL     1       7.951  25.915  57.585  1.00  0.00     0.033 A 
ENDBRANCH  23  25
ENDBRANCH   1  19
TORSDOF 7
ENDMDL
MODEL 8
REMARK VINA RESULT:      -9.1      2.649      3.547
REMARK  7 active torsions:
REMARK  status: ('A' for Active; 'I' for Inactive)
REMARK    1  A    between atoms: C_3  and  N_4 
REMARK       I    between atoms: N_4  and  C_5 
REMARK    2  A    between atoms: C_5  and  C_6 
REMARK       I    between atoms: C_6  and  N_7 
REMARK    3  A    between atoms: N_7  and  C_8 
REMARK    4  A    between atoms: C_8  and  C_9 
REMARK    5  A    between atoms: C_9  and  C_10 
REMARK    6  A    between atoms: C_12  and  O_13 
REMARK    7  A    between atoms: N_20  and  C_21 
ROOT
HETATM    1  N   UNL     1       7.141  30.130  58.450  1.00  0.00    -0.302 N 
HETATM    2  C   UNL     1       6.272  30.419  57.426  1.00  0.00     0.315 C 
HETATM    3  O   UNL     1       5.709  31.459  57.119  1.00  0.00    -0.262 OA
HETATM    4  H   UNL     1       7.456  29.168  58.505  1.00  0.00     0.171 HD
ENDROOT
BRANCH   2   5
HETATM    5  C   UNL     1       6.004  29.164  56.570  1.00  0.00     0.309 C 
HETATM    6  N   UNL     1       6.336  27.978  57.187  1.00  0.00    -0.353 N 
HETATM    7  H   UNL     1       6.826  28.062  58.075  1.00  0.00     0.162 HD
HETATM    8  O   UNL     1       5.543  29.289  55.443  1.00  0.00    -0.262 OA
BRANCH   6   9
HETATM    9  C   UNL     1       6.256  26.714  56.489  1.00  0.00     0.128 C 
BRANCH   9  10
HETATM   10  C   UNL     1       7.613  26.017  56.399  1.00  0.00     0.058 C 
BRANCH  10  11
HETATM   11  C   UNL     1       7.702  25.127  55.184  1.00  0.00    -0.054 A 
HETATM   12  C   UNL     1       7.484  25.644  53.899  1.00  0.00     0.043 A 
HETATM   13  C   UNL     1       7.543  24.797  52.793  1.00  0.00     0.066 A 
HETATM   14  C   UNL     1       7.811  23.442  52.944  1.00  0.00     0.036 A 
HETATM   15  C   UNL     1       8.026  22.920  54.218  1.00  0.00     0.003 A 
HETATM   16  C   UNL     1       7.969  23.757  55.334  1.00  0.00     0.007 A 
BRANCH  13  17
HETATM   17  O   UNL     1       7.335  25.264  51.529  1.00  0.00    -0.361 OA
HETATM   18  H   UNL     1       7.471  24.536  50.902  1.00  0.00     0.217 HD
ENDBRANCH  13  17
ENDBRANCH  10  11
ENDBRANCH   9  10
ENDBRANCH   6   9
ENDBRANCH   2   5
BRANCH   1  19
HETATM   19  C   UNL     1       7.609  31.018  59.386  1.00  0.00     0.158 A 
HETATM   20  C   UNL     1       8.903  31.591  59.365  1.00  0.00     0.003 A 
HETATM   21  C   UNL     1       9.997  31.396  58.383  1.00  0.00     0.054 C 
HETATM   22  C   UNL     1       8.921  32.429  60.461  1.00  0.00     0.129 A 
HETATM   23  N   UNL     1       7.712  32.305  61.105  1.00  0.00    -0.241 N 
HETATM   24  N   UNL     1       6.896  31.470  60.412  1.00  0.00    -0.149 NA
BRANCH  23  25
HETATM   25  C   UNL     1       7.226  32.954  62.281  1.00  0.00     0.079 A 
HETATM   26  C   UNL     1       6.079  33.760  62.337  1.00  0.00     0.062 A 
HETATM   27 CL   UNL     1       5.149  34.286  60.977  1.00  0.00    -0.082 Cl
HETATM   28  C   UNL     1       5.665  34.299  63.568  1.00  0.00     0.026 A 
HETATM   29  C   UNL     1       6.385  34.061  64.738  1.00  0.00     0.002 A 
HETATM   30  C   UNL     1       7.541  33.294  64.687  1.00  0.00     0.002 A 
HETATM   31  C   UNL     1       7.961  32.752  63.471  1.00  0.00     0.033 A 
ENDBRANCH  23  25
ENDBRANCH   1  19
TORSDOF 7
ENDMDL
MODEL 9
REMARK VINA RESULT:      -9.0      3.700     10.905
REMARK  7 active torsions:
REMARK  status: ('A' for Active; 'I' for Inactive)
REMARK    1  A    between atoms: C_3  and  N_4 
REMARK       I    between atoms: N_4  and  C_5 
REMARK    2  A    between atoms: C_5  and  C_6 
REMARK       I    between atoms: C_6  and  N_7 
REMARK    3  A    between atoms: N_7  and  C_8 
REMARK    4  A    between atoms: C_8  and  C_9 
REMARK    5  A    between atoms: C_9  and  C_10 
REMARK    6  A    between atoms: C_12  and  O_13 
REMARK    7  A    between atoms: N_20  and  C_21 
ROOT
HETATM    1  N   UNL     1       7.677  30.042  59.246  1.00  0.00    -0.302 N 
HETATM    2  C   UNL     1       7.114  31.292  59.161  1.00  0.00     0.315 C 
HETATM    3  O   UNL     1       6.849  31.991  58.194  1.00  0.00    -0.262 OA
HETATM    4  H   UNL     1       7.816  29.682  60.184  1.00  0.00     0.171 HD
ENDROOT
BRANCH   2   5
HETATM    5  C   UNL     1       6.800  31.844  60.568  1.00  0.00     0.309 C 
HETATM    6  N   UNL     1       7.468  31.204  61.587  1.00  0.00    -0.353 N 
HETATM    7  H   UNL     1       7.993  30.373  61.321  1.00  0.00     0.162 HD
HETATM    8  O   UNL     1       6.005  32.767  60.690  1.00  0.00    -0.262 OA
BRANCH   6   9
HETATM    9  C   UNL     1       7.209  31.517  62.976  1.00  0.00     0.128 C 
BRANCH   9  10
HETATM   10  C   UNL     1       7.883  32.817  63.409  1.00  0.00     0.058 C 
BRANCH  10  11
HETATM   11  C   UNL     1       6.968  33.662  64.260  1.00  0.00    -0.054 A 
HETATM   12  C   UNL     1       6.898  33.468  65.648  1.00  0.00     0.043 A 
HETATM   13  C   UNL     1       6.024  34.239  66.411  1.00  0.00     0.066 A 
HETATM   14  C   UNL     1       5.215  35.201  65.818  1.00  0.00     0.036 A 
HETATM   15  C   UNL     1       5.277  35.398  64.440  1.00  0.00     0.003 A 
HETATM   16  C   UNL     1       6.147  34.631  63.663  1.00  0.00     0.007 A 
BRANCH  13  17
HETATM   17  O   UNL     1       5.928  34.077  67.762  1.00  0.00    -0.361 OA
HETATM   18  H   UNL     1       5.757  33.141  67.952  1.00  0.00     0.217 HD
ENDBRANCH  13  17
ENDBRANCH  10  11
ENDBRANCH   9  10
ENDBRANCH   6   9
ENDBRANCH   2   5
BRANCH   1  19
HETATM   19  C   UNL     1       8.058  29.255  58.188  1.00  0.00     0.158 A 
HETATM   20  C   UNL     1       9.253  29.435  57.451  1.00  0.00     0.003 A 
HETATM   21  C   UNL     1      10.324  30.443  57.634  1.00  0.00     0.054 C 
HETATM   22  C   UNL     1       9.233  28.417  56.520  1.00  0.00     0.129 A 
HETATM   23  N   UNL     1       8.061  27.717  56.687  1.00  0.00    -0.241 N 
HETATM   24  N   UNL     1       7.367  28.212  57.743  1.00  0.00    -0.149 NA
BRANCH  23  25
HETATM   25  C   UNL     1       7.561  26.578  55.984  1.00  0.00     0.079 A 
HETATM   26  C   UNL     1       7.773  25.244  56.363  1.00  0.00     0.062 A 
HETATM   27 CL   UNL     1       8.830  24.710  57.624  1.00  0.00    -0.082 Cl
HETATM   28  C   UNL     1       7.180  24.206  55.623  1.00  0.00     0.026 A 
HETATM   29  C   UNL     1       6.396  24.476  54.503  1.00  0.00     0.002 A 
HETATM   30  C   UNL     1       6.208  25.791  54.099  1.00  0.00     0.002 A 
HETATM   31  C   UNL     1       6.790  26.830  54.826  1.00  0.00     0.033 A 
ENDBRANCH  23  25
ENDBRANCH   1  19
TORSDOF 7
ENDMDL
MODEL 10
REMARK VINA RESULT:      -9.0      2.907     10.024
REMARK  7 active torsions:
REMARK  status: ('A' for Active; 'I' for Inactive)
REMARK    1  A    between atoms: C_3  and  N_4 
REMARK       I    between atoms: N_4  and  C_5 
REMARK    2  A    between atoms: C_5  and  C_6 
REMARK       I    between atoms: C_6  and  N_7 
REMARK    3  A    between atoms: N_7  and  C_8 
REMARK    4  A    between atoms: C_8  and  C_9 
REMARK    5  A    between atoms: C_9  and  C_10 
REMARK    6  A    between atoms: C_12  and  O_13 
REMARK    7  A    between atoms: N_20  and  C_21 
ROOT
HETATM    1  N   UNL     1       5.944  26.990  55.175  1.00  0.00    -0.302 N 
HETATM    2  C   UNL     1       6.793  28.063  55.297  1.00  0.00     0.315 C 
HETATM    3  O   UNL     1       7.929  28.240  54.885  1.00  0.00    -0.262 OA
HETATM    4  H   UNL     1       5.046  27.081  55.634  1.00  0.00     0.171 HD
ENDROOT
BRANCH   2   5
HETATM    5  C   UNL     1       6.128  29.190  56.115  1.00  0.00     0.309 C 
HETATM    6  N   UNL     1       6.833  29.565  57.236  1.00  0.00    -0.353 N 
HETATM    7  H   UNL     1       7.638  28.987  57.468  1.00  0.00     0.162 HD
HETATM    8  O   UNL     1       5.060  29.657  55.742  1.00  0.00    -0.262 OA
BRANCH   6   9
HETATM    9  C   UNL     1       6.303  30.528  58.177  1.00  0.00     0.128 C 
BRANCH   9  10
HETATM   10  C   UNL     1       7.309  31.631  58.501  1.00  0.00     0.058 C 
BRANCH  10  11
HETATM   11  C   UNL     1       7.691  31.624  59.961  1.00  0.00    -0.054 A 
HETATM   12  C   UNL     1       8.415  30.554  60.506  1.00  0.00     0.043 A 
HETATM   13  C   UNL     1       8.733  30.553  61.864  1.00  0.00     0.066 A 
HETATM   14  C   UNL     1       8.339  31.599  62.690  1.00  0.00     0.036 A 
HETATM   15  C   UNL     1       7.617  32.664  62.156  1.00  0.00     0.003 A 
HETATM   16  C   UNL     1       7.291  32.676  60.798  1.00  0.00     0.007 A 
BRANCH  13  17
HETATM   17  O   UNL     1       9.434  29.529  62.429  1.00  0.00    -0.361 OA
HETATM   18  H   UNL     1       9.257  28.718  61.929  1.00  0.00     0.217 HD
ENDBRANCH  13  17
ENDBRANCH  10  11
ENDBRANCH   9  10
ENDBRANCH   6   9
ENDBRANCH   2   5
BRANCH   1  19
HETATM   19  C   UNL     1       6.207  25.827  54.493  1.00  0.00     0.158 A 
HETATM   20  C   UNL     1       5.804  25.575  53.160  1.00  0.00     0.003 A 
HETATM   21  C   UNL     1       5.058  26.453  52.226  1.00  0.00     0.054 C 
HETATM   22  C   UNL     1       6.301  24.318  52.887  1.00  0.00     0.129 A 
HETATM   23  N   UNL     1       6.919  23.854  54.025  1.00  0.00    -0.241 N 
HETATM   24  N   UNL     1       6.894  24.806  54.992  1.00  0.00    -0.149 NA
BRANCH  23  25
HETATM   25  C   UNL     1       7.591  22.617  54.267  1.00  0.00     0.079 A 
HETATM   26  C   UNL     1       8.069  22.194  55.518  1.00  0.00     0.062 A 
HETATM   27 CL   UNL     1       8.119  23.155  56.955  1.00  0.00    -0.082 Cl
HETATM   28  C   UNL     1       8.664  20.927  55.644  1.00  0.00     0.026 A 
HETATM   29  C   UNL     1       8.805  20.083  54.543  1.00  0.00     0.002 A 
HETATM   30  C   UNL     1       8.367  20.505  53.296  1.00  0.00     0.002 A 
HETATM   31  C   UNL     1       7.773  21.761  53.157  1.00  0.00     0.033 A 
ENDBRANCH  23  25
ENDBRANCH   1  19
TORSDOF 7
ENDMDL
