MODEL 1
REMARK VINA RESULT:      -8.5      0.000      0.000
REMARK  6 active torsions:
REMARK  status: ('A' for Active; 'I' for Inactive)
REMARK    1  A    between atoms: C_2  and  N_3 
REMARK    2  A    between atoms: C_2  and  C_16 
REMARK    3  A    between atoms: N_3  and  C_6 
REMARK    4  A    between atoms: C_16  and  C_17 
REMARK       I    between atoms: C_17  and  N_18 
REMARK    5  A    between atoms: N_18  and  C_19 
REMARK    6  A    between atoms: C_21  and  O_22 
ROOT
HETATM    1  C   UNL     1       7.030  27.060  52.914  1.00  0.00     0.040 C 
HETATM    2  C   UNL     1       6.820  27.102  54.422  1.00  0.00     0.191 C 
ENDROOT
BRANCH   2   3
HETATM    3  N   UNL     1       5.764  26.106  54.839  1.00  0.00    -0.063 N 
HETATM    4  H   UNL     1       5.101  26.648  55.433  1.00  0.00     0.278 HD
HETATM    5  H   UNL     1       5.207  25.836  54.022  1.00  0.00     0.278 HD
BRANCH   3   6
HETATM    6  C   UNL     1       6.078  24.857  55.637  1.00  0.00     0.221 C 
HETATM    7  C   UNL     1       7.094  23.954  54.982  1.00  0.00    -0.011 A 
HETATM    8  C   UNL     1       8.276  23.546  55.620  1.00  0.00     0.009 A 
HETATM    9  C   UNL     1       6.827  23.465  53.683  1.00  0.00     0.011 A 
HETATM   10  C   UNL     1       9.171  22.698  54.949  1.00  0.00     0.019 A 
HETATM   11  S   UNL     1       8.719  23.992  57.285  1.00  0.00    -0.129 SA
HETATM   12  C   UNL     1       8.905  22.250  53.656  1.00  0.00     0.001 A 
HETATM   13  C   UNL     1       7.729  22.628  53.025  1.00  0.00     0.001 A 
HETATM   14  C   UNL     1       7.682  25.443  57.554  1.00  0.00     0.082 C 
HETATM   15  C   UNL     1       6.252  25.178  57.126  1.00  0.00     0.048 C 
ENDBRANCH   3   6
ENDBRANCH   2   3
BRANCH   2  16
HETATM   16  C   UNL     1       6.394  28.527  54.846  1.00  0.00     0.135 C 
BRANCH  16  17
HETATM   17  C   UNL     1       5.795  28.529  56.231  1.00  0.00     0.224 C 
HETATM   18  N   UNL     1       6.494  28.914  57.328  1.00  0.00    -0.327 N 
HETATM   19  H   UNL     1       5.986  28.719  58.188  1.00  0.00     0.169 HD
HETATM   20  O   UNL     1       4.615  28.170  56.361  1.00  0.00    -0.273 OA
BRANCH  18  21
HETATM   21  C   UNL     1       7.766  29.495  57.513  1.00  0.00     0.037 A 
HETATM   22  C   UNL     1       8.026  30.646  58.267  1.00  0.00     0.066 A 
HETATM   23  C   UNL     1       9.333  31.136  58.387  1.00  0.00     0.070 A 
HETATM   24  C   UNL     1      10.383  30.471  57.753  1.00  0.00     0.037 A 
HETATM   25  C   UNL     1      10.142  29.309  57.029  1.00  0.00     0.005 A 
HETATM   26  C   UNL     1       8.841  28.819  56.920  1.00  0.00     0.029 A 
BRANCH  23  27
HETATM   27  O   UNL     1       9.713  32.246  59.087  1.00  0.00    -0.356 OA
HETATM   28  C   UNL     1       9.295  32.351  60.441  1.00  0.00     0.210 C 
ENDBRANCH  23  27
ENDBRANCH  18  21
ENDBRANCH  16  17
ENDBRANCH   2  16
TORSDOF 6
ENDMDL
MODEL 2
REMARK VINA RESULT:      -8.4      1.603      2.508
REMARK  6 active torsions:
REMARK  status: ('A' for Active; 'I' for Inactive)
REMARK    1  A    between atoms: C_2  and  N_3 
REMARK    2  A    between atoms: C_2  and  C_16 
REMARK    3  A    between atoms: N_3  and  C_6 
REMARK    4  A    between atoms: C_16  and  C_17 
REMARK       I    between atoms: C_17  and  N_18 
REMARK    5  A    between atoms: N_18  and  C_19 
REMARK    6  A    between atoms: C_21  and  O_22 
ROOT
HETATM    1  C   UNL     1       7.547  26.258  57.607  1.00  0.00     0.040 C 
HETATM    2  C   UNL     1       6.123  26.245  57.066  1.00  0.00     0.191 C 
ENDROOT
BRANCH   2   3
HETATM    3  N   UNL     1       6.106  25.796  55.625  1.00  0.00    -0.063 N 
HETATM    4  H   UNL     1       5.539  24.922  55.621  1.00  0.00     0.278 HD
HETATM    5  H   UNL     1       5.555  26.457  55.068  1.00  0.00     0.278 HD
BRANCH   3   6
HETATM    6  C   UNL     1       7.364  25.454  54.852  1.00  0.00     0.221 C 
HETATM    7  C   UNL     1       7.536  23.977  54.592  1.00  0.00    -0.011 A 
HETATM    8  C   UNL     1       7.704  23.444  53.303  1.00  0.00     0.009 A 
HETATM    9  C   UNL     1       7.568  23.094  55.694  1.00  0.00     0.011 A 
HETATM   10  C   UNL     1       7.865  22.059  53.140  1.00  0.00     0.019 A 
HETATM   11  S   UNL     1       7.781  24.423  51.819  1.00  0.00    -0.129 SA
HETATM   12  C   UNL     1       7.865  21.201  54.238  1.00  0.00     0.001 A 
HETATM   13  C   UNL     1       7.723  21.718  55.517  1.00  0.00     0.001 A 
HETATM   14  C   UNL     1       7.003  25.957  52.361  1.00  0.00     0.082 C 
HETATM   15  C   UNL     1       7.579  26.423  53.684  1.00  0.00     0.048 C 
ENDBRANCH   3   6
ENDBRANCH   2   3
BRANCH   2  16
HETATM   16  C   UNL     1       5.513  27.661  57.183  1.00  0.00     0.135 C 
BRANCH  16  17
HETATM   17  C   UNL     1       5.684  28.437  55.899  1.00  0.00     0.224 C 
HETATM   18  N   UNL     1       6.733  29.269  55.684  1.00  0.00    -0.327 N 
HETATM   19  H   UNL     1       6.616  29.813  54.832  1.00  0.00     0.169 HD
HETATM   20  O   UNL     1       4.831  28.296  55.010  1.00  0.00    -0.273 OA
BRANCH  18  21
HETATM   21  C   UNL     1       7.916  29.544  56.400  1.00  0.00     0.037 A 
HETATM   22  C   UNL     1       7.974  29.967  57.733  1.00  0.00     0.066 A 
HETATM   23  C   UNL     1       9.208  30.210  58.350  1.00  0.00     0.070 A 
HETATM   24  C   UNL     1      10.389  30.026  57.630  1.00  0.00     0.037 A 
HETATM   25  C   UNL     1      10.347  29.575  56.316  1.00  0.00     0.005 A 
HETATM   26  C   UNL     1       9.116  29.326  55.709  1.00  0.00     0.029 A 
BRANCH  23  27
HETATM   27  O   UNL     1       9.394  30.628  59.638  1.00  0.00    -0.356 OA
HETATM   28  C   UNL     1       8.258  31.092  60.354  1.00  0.00     0.210 C 
ENDBRANCH  23  27
ENDBRANCH  18  21
ENDBRANCH  16  17
ENDBRANCH   2  16
TORSDOF 6
ENDMDL
MODEL 3
REMARK VINA RESULT:      -8.3      2.169      3.549
REMARK  6 active torsions:
REMARK  status: ('A' for Active; 'I' for Inactive)
REMARK    1  A    between atoms: C_2  and  N_3 
REMARK    2  A    between atoms: C_2  and  C_16 
REMARK    3  A    between atoms: N_3  and  C_6 
REMARK    4  A    between atoms: C_16  and  C_17 
REMARK       I    between atoms: C_17  and  N_18 
REMARK    5  A    between atoms: N_18  and  C_19 
REMARK    6  A    between atoms: C_21  and  O_22 
ROOT
HETATM    1  C   UNL     1       5.777  28.659  56.726  1.00  0.00     0.040 C 
HETATM    2  C   UNL     1       7.287  28.856  56.689  1.00  0.00     0.191 C 
ENDROOT
BRANCH   2   3
HETATM    3  N   UNL     1       7.973  27.611  56.181  1.00  0.00    -0.063 N 
HETATM    4  H   UNL     1       8.217  27.821  55.189  1.00  0.00     0.278 HD
HETATM    5  H   UNL     1       8.881  27.507  56.646  1.00  0.00     0.278 HD
BRANCH   3   6
HETATM    6  C   UNL     1       7.299  26.255  56.142  1.00  0.00     0.221 C 
HETATM    7  C   UNL     1       7.485  25.519  54.838  1.00  0.00    -0.011 A 
HETATM    8  C   UNL     1       8.029  24.226  54.761  1.00  0.00     0.009 A 
HETATM    9  C   UNL     1       7.058  26.140  53.642  1.00  0.00     0.011 A 
HETATM   10  C   UNL     1       8.164  23.602  53.512  1.00  0.00     0.019 A 
HETATM   11  S   UNL     1       8.529  23.267  56.175  1.00  0.00    -0.129 SA
HETATM   12  C   UNL     1       7.764  24.243  52.341  1.00  0.00     0.001 A 
HETATM   13  C   UNL     1       7.205  25.511  52.406  1.00  0.00     0.001 A 
HETATM   14  C   UNL     1       8.727  24.550  57.426  1.00  0.00     0.082 C 
HETATM   15  C   UNL     1       7.531  25.482  57.446  1.00  0.00     0.048 C 
ENDBRANCH   3   6
ENDBRANCH   2   3
BRANCH   2  16
HETATM   16  C   UNL     1       7.800  29.196  58.108  1.00  0.00     0.135 C 
BRANCH  16  17
HETATM   17  C   UNL     1       9.129  29.908  58.053  1.00  0.00     0.224 C 
HETATM   18  N   UNL     1       9.502  30.831  58.974  1.00  0.00    -0.327 N 
HETATM   19  H   UNL     1      10.359  31.309  58.707  1.00  0.00     0.169 HD
HETATM   20  O   UNL     1       9.908  29.627  57.130  1.00  0.00    -0.273 OA
BRANCH  18  21
HETATM   21  C   UNL     1       8.938  31.270  60.191  1.00  0.00     0.037 A 
HETATM   22  C   UNL     1       8.116  32.393  60.342  1.00  0.00     0.066 A 
HETATM   23  C   UNL     1       7.607  32.737  61.601  1.00  0.00     0.070 A 
HETATM   24  C   UNL     1       7.919  31.953  62.711  1.00  0.00     0.037 A 
HETATM   25  C   UNL     1       8.707  30.817  62.569  1.00  0.00     0.005 A 
HETATM   26  C   UNL     1       9.205  30.473  61.313  1.00  0.00     0.029 A 
BRANCH  23  27
HETATM   27  O   UNL     1       6.801  33.806  61.876  1.00  0.00    -0.356 OA
HETATM   28  C   UNL     1       6.174  33.851  63.151  1.00  0.00     0.210 C 
ENDBRANCH  23  27
ENDBRANCH  18  21
ENDBRANCH  16  17
ENDBRANCH   2  16
TORSDOF 6
ENDMDL
MODEL 4
REMARK VINA RESULT:      -8.2      4.222      7.491
REMARK  6 active torsions:
REMARK  status: ('A' for Active; 'I' for Inactive)
REMARK    1  A    between atoms: C_2  and  N_3 
REMARK    2  A    between atoms: C_2  and  C_16 
REMARK    3  A    between atoms: N_3  and  C_6 
REMARK    4  A    between atoms: C_16  and  C_17 
REMARK       I    between atoms: C_17  and  N_18 
REMARK    5  A    between atoms: N_18  and  C_19 
REMARK    6  A    between atoms: C_21  and  O_22 
ROOT
HETATM    1  C   UNL     1       4.366  27.391  53.380  1.00  0.00     0.040 C 
HETATM    2  C   UNL     1       4.720  25.921  53.559  1.00  0.00     0.191 C 
ENDROOT
BRANCH   2   3
HETATM    3  N   UNL     1       6.034  25.776  54.289  1.00  0.00    -0.063 N 
HETATM    4  H   UNL     1       6.743  25.619  53.542  1.00  0.00     0.278 HD
HETATM    5  H   UNL     1       6.297  26.677  54.701  1.00  0.00     0.278 HD
BRANCH   3   6
HETATM    6  C   UNL     1       6.293  24.689  55.313  1.00  0.00     0.221 C 
HETATM    7  C   UNL     1       7.341  23.690  54.888  1.00  0.00    -0.011 A 
HETATM    8  C   UNL     1       8.482  23.407  55.656  1.00  0.00     0.009 A 
HETATM    9  C   UNL     1       7.149  22.977  53.682  1.00  0.00     0.011 A 
HETATM   10  C   UNL     1       9.411  22.459  55.199  1.00  0.00     0.019 A 
HETATM   11  S   UNL     1       8.829  24.143  57.239  1.00  0.00    -0.129 SA
HETATM   12  C   UNL     1       9.218  21.788  53.993  1.00  0.00     0.001 A 
HETATM   13  C   UNL     1       8.084  22.042  53.237  1.00  0.00     0.001 A 
HETATM   14  C   UNL     1       7.785  25.613  57.186  1.00  0.00     0.082 C 
HETATM   15  C   UNL     1       6.381  25.269  56.729  1.00  0.00     0.048 C 
ENDBRANCH   3   6
ENDBRANCH   2   3
BRANCH   2  16
HETATM   16  C   UNL     1       4.811  25.238  52.175  1.00  0.00     0.135 C 
BRANCH  16  17
HETATM   17  C   UNL     1       5.909  25.846  51.336  1.00  0.00     0.224 C 
HETATM   18  N   UNL     1       5.657  26.569  50.216  1.00  0.00    -0.327 N 
HETATM   19  H   UNL     1       6.510  26.780  49.702  1.00  0.00     0.169 HD
HETATM   20  O   UNL     1       7.084  25.680  51.697  1.00  0.00    -0.273 OA
BRANCH  18  21
HETATM   21  C   UNL     1       4.475  27.054  49.620  1.00  0.00     0.037 A 
HETATM   22  C   UNL     1       3.725  26.382  48.649  1.00  0.00     0.066 A 
HETATM   23  C   UNL     1       2.560  26.957  48.125  1.00  0.00     0.070 A 
HETATM   24  C   UNL     1       2.143  28.210  48.577  1.00  0.00     0.037 A 
HETATM   25  C   UNL     1       2.862  28.873  49.565  1.00  0.00     0.005 A 
HETATM   26  C   UNL     1       4.015  28.292  50.090  1.00  0.00     0.029 A 
BRANCH  23  27
HETATM   27  O   UNL     1       1.748  26.405  47.174  1.00  0.00    -0.356 OA
HETATM   28  C   UNL     1       0.757  27.236  46.586  1.00  0.00     0.210 C 
ENDBRANCH  23  27
ENDBRANCH  18  21
ENDBRANCH  16  17
ENDBRANCH   2  16
TORSDOF 6
ENDMDL
MODEL 5
REMARK VINA RESULT:      -8.2      4.178      6.448
REMARK  6 active torsions:
REMARK  status: ('A' for Active; 'I' for Inactive)
REMARK    1  A    between atoms: C_2  and  N_3 
REMARK    2  A    between atoms: C_2  and  C_16 
REMARK    3  A    between atoms: N_3  and  C_6 
REMARK    4  A    between atoms: C_16  and  C_17 
REMARK       I    between atoms: C_17  and  N_18 
REMARK    5  A    between atoms: N_18  and  C_19 
REMARK    6  A    between atoms: C_21  and  O_22 
ROOT
HETATM    1  C   UNL     1       7.358  27.714  53.752  1.00  0.00     0.040 C 
HETATM    2  C   UNL     1       6.750  26.337  53.522  1.00  0.00     0.191 C 
ENDROOT
BRANCH   2   3
HETATM    3  N   UNL     1       7.621  25.263  54.128  1.00  0.00    -0.063 N 
HETATM    4  H   UNL     1       8.118  24.830  53.321  1.00  0.00     0.278 HD
HETATM    5  H   UNL     1       8.368  25.699  54.679  1.00  0.00     0.278 HD
BRANCH   3   6
HETATM    6  C   UNL     1       7.063  24.097  54.919  1.00  0.00     0.221 C 
HETATM    7  C   UNL     1       7.616  22.757  54.500  1.00  0.00    -0.011 A 
HETATM    8  C   UNL     1       8.241  21.875  55.397  1.00  0.00     0.009 A 
HETATM    9  C   UNL     1       7.465  22.352  53.154  1.00  0.00     0.011 A 
HETATM   10  C   UNL     1       8.724  20.641  54.935  1.00  0.00     0.019 A 
HETATM   11  S   UNL     1       8.428  22.187  57.139  1.00  0.00    -0.129 SA
HETATM   12  C   UNL     1       8.592  20.272  53.597  1.00  0.00     0.001 A 
HETATM   13  C   UNL     1       7.956  21.125  52.707  1.00  0.00     0.001 A 
HETATM   14  C   UNL     1       8.226  23.978  57.205  1.00  0.00     0.082 C 
HETATM   15  C   UNL     1       7.007  24.418  56.417  1.00  0.00     0.048 C 
ENDBRANCH   3   6
ENDBRANCH   2   3
BRANCH   2  16
HETATM   16  C   UNL     1       6.590  26.089  52.004  1.00  0.00     0.135 C 
BRANCH  16  17
HETATM   17  C   UNL     1       5.221  25.541  51.680  1.00  0.00     0.224 C 
HETATM   18  N   UNL     1       4.445  26.055  50.694  1.00  0.00    -0.327 N 
HETATM   19  H   UNL     1       3.506  25.662  50.708  1.00  0.00     0.169 HD
HETATM   20  O   UNL     1       4.802  24.580  52.342  1.00  0.00    -0.273 OA
BRANCH  18  21
HETATM   21  C   UNL     1       4.664  27.021  49.690  1.00  0.00     0.037 A 
HETATM   22  C   UNL     1       4.906  28.381  49.916  1.00  0.00     0.066 A 
HETATM   23  C   UNL     1       5.114  29.255  48.841  1.00  0.00     0.070 A 
HETATM   24  C   UNL     1       5.082  28.765  47.535  1.00  0.00     0.037 A 
HETATM   25  C   UNL     1       4.875  27.411  47.299  1.00  0.00     0.005 A 
HETATM   26  C   UNL     1       4.678  26.543  48.372  1.00  0.00     0.029 A 
BRANCH  23  27
HETATM   27  O   UNL     1       5.354  30.597  48.932  1.00  0.00    -0.356 OA
HETATM   28  C   UNL     1       5.627  31.135  50.219  1.00  0.00     0.210 C 
ENDBRANCH  23  27
ENDBRANCH  18  21
ENDBRANCH  16  17
ENDBRANCH   2  16
TORSDOF 6
ENDMDL
MODEL 6
REMARK VINA RESULT:      -8.1      4.358      7.023
REMARK  6 active torsions:
REMARK  status: ('A' for Active; 'I' for Inactive)
REMARK    1  A    between atoms: C_2  and  N_3 
REMARK    2  A    between atoms: C_2  and  C_16 
REMARK    3  A    between atoms: N_3  and  C_6 
REMARK    4  A    between atoms: C_16  and  C_17 
REMARK       I    between atoms: C_17  and  N_18 
REMARK    5  A    between atoms: N_18  and  C_19 
REMARK    6  A    between atoms: C_21  and  O_22 
ROOT
HETATM    1  C   UNL     1       5.475  24.674  52.255  1.00  0.00     0.040 C 
HETATM    2  C   UNL     1       6.815  25.385  52.389  1.00  0.00     0.191 C 
ENDROOT
BRANCH   2   3
HETATM    3  N   UNL     1       7.604  24.818  53.544  1.00  0.00    -0.063 N 
HETATM    4  H   UNL     1       8.437  24.368  53.107  1.00  0.00     0.278 HD
HETATM    5  H   UNL     1       7.996  25.585  54.100  1.00  0.00     0.278 HD
BRANCH   3   6
HETATM    6  C   UNL     1       7.046  23.777  54.493  1.00  0.00     0.221 C 
HETATM    7  C   UNL     1       7.709  22.426  54.374  1.00  0.00    -0.011 A 
HETATM    8  C   UNL     1       8.301  21.767  55.463  1.00  0.00     0.009 A 
HETATM    9  C   UNL     1       7.700  21.775  53.119  1.00  0.00     0.011 A 
HETATM   10  C   UNL     1       8.892  20.508  55.277  1.00  0.00     0.019 A 
HETATM   11  S   UNL     1       8.316  22.401  57.126  1.00  0.00    -0.129 SA
HETATM   12  C   UNL     1       8.900  19.896  54.025  1.00  0.00     0.001 A 
HETATM   13  C   UNL     1       8.298  20.527  52.946  1.00  0.00     0.001 A 
HETATM   14  C   UNL     1       8.008  24.155  56.843  1.00  0.00     0.082 C 
HETATM   15  C   UNL     1       6.840  24.358  55.896  1.00  0.00     0.048 C 
ENDBRANCH   3   6
ENDBRANCH   2   3
BRANCH   2  16
HETATM   16  C   UNL     1       6.578  26.898  52.608  1.00  0.00     0.135 C 
BRANCH  16  17
HETATM   17  C   UNL     1       5.109  27.201  52.785  1.00  0.00     0.224 C 
HETATM   18  N   UNL     1       4.314  27.581  51.754  1.00  0.00    -0.327 N 
HETATM   19  H   UNL     1       3.396  27.880  52.075  1.00  0.00     0.169 HD
HETATM   20  O   UNL     1       4.619  27.088  53.917  1.00  0.00    -0.273 OA
BRANCH  18  21
HETATM   21  C   UNL     1       4.508  27.668  50.359  1.00  0.00     0.037 A 
HETATM   22  C   UNL     1       4.115  26.701  49.427  1.00  0.00     0.066 A 
HETATM   23  C   UNL     1       4.355  26.892  48.061  1.00  0.00     0.070 A 
HETATM   24  C   UNL     1       4.989  28.056  47.625  1.00  0.00     0.037 A 
HETATM   25  C   UNL     1       5.354  29.039  48.538  1.00  0.00     0.005 A 
HETATM   26  C   UNL     1       5.105  28.849  49.896  1.00  0.00     0.029 A 
BRANCH  23  27
HETATM   27  O   UNL     1       4.025  26.024  47.058  1.00  0.00    -0.356 OA
HETATM   28  C   UNL     1       2.648  25.736  46.858  1.00  0.00     0.210 C 
ENDBRANCH  23  27
ENDBRANCH  18  21
ENDBRANCH  16  17
ENDBRANCH   2  16
TORSDOF 6
ENDMDL
MODEL 7
REMARK VINA RESULT:      -8.0      2.726      7.602
REMARK  6 active torsions:
REMARK  status: ('A' for Active; 'I' for Inactive)
REMARK    1  A    between atoms: C_2  and  N_3 
REMARK    2  A    between atoms: C_2  and  C_16 
REMARK    3  A    between atoms: N_3  and  C_6 
REMARK    4  A    between atoms: C_16  and  C_17 
REMARK       I    between atoms: C_17  and  N_18 
REMARK    5  A    between atoms: N_18  and  C_19 
REMARK    6  A    between atoms: C_21  and  O_22 
ROOT
HETATM    1  C   UNL     1       7.854  27.028  56.709  1.00  0.00     0.040 C 
HETATM    2  C   UNL     1       7.868  28.108  55.635  1.00  0.00     0.191 C 
ENDROOT
BRANCH   2   3
HETATM    3  N   UNL     1       7.028  29.289  56.058  1.00  0.00    -0.063 N 
HETATM    4  H   UNL     1       7.634  30.122  55.900  1.00  0.00     0.278 HD
HETATM    5  H   UNL     1       6.254  29.412  55.397  1.00  0.00     0.278 HD
BRANCH   3   6
HETATM    6  C   UNL     1       6.487  29.456  57.463  1.00  0.00     0.221 C 
HETATM    7  C   UNL     1       7.316  30.370  58.331  1.00  0.00    -0.011 A 
HETATM    8  C   UNL     1       6.784  31.495  58.982  1.00  0.00     0.009 A 
HETATM    9  C   UNL     1       8.681  30.060  58.532  1.00  0.00     0.011 A 
HETATM   10  C   UNL     1       7.617  32.295  59.779  1.00  0.00     0.019 A 
HETATM   11  S   UNL     1       5.071  31.973  58.912  1.00  0.00    -0.129 SA
HETATM   12  C   UNL     1       8.967  31.990  59.941  1.00  0.00     0.001 A 
HETATM   13  C   UNL     1       9.498  30.868  59.322  1.00  0.00     0.001 A 
HETATM   14  C   UNL     1       4.517  31.102  57.433  1.00  0.00     0.082 C 
HETATM   15  C   UNL     1       4.966  29.654  57.453  1.00  0.00     0.048 C 
ENDBRANCH   3   6
ENDBRANCH   2   3
BRANCH   2  16
HETATM   16  C   UNL     1       7.326  27.526  54.309  1.00  0.00     0.135 C 
BRANCH  16  17
HETATM   17  C   UNL     1       5.956  26.919  54.498  1.00  0.00     0.224 C 
HETATM   18  N   UNL     1       5.735  25.582  54.440  1.00  0.00    -0.327 N 
HETATM   19  H   UNL     1       4.742  25.362  54.447  1.00  0.00     0.169 HD
HETATM   20  O   UNL     1       5.003  27.680  54.723  1.00  0.00    -0.273 OA
BRANCH  18  21
HETATM   21  C   UNL     1       6.587  24.461  54.347  1.00  0.00     0.037 A 
HETATM   22  C   UNL     1       7.034  23.695  55.430  1.00  0.00     0.066 A 
HETATM   23  C   UNL     1       7.878  22.597  55.223  1.00  0.00     0.070 A 
HETATM   24  C   UNL     1       8.275  22.263  53.928  1.00  0.00     0.037 A 
HETATM   25  C   UNL     1       7.811  22.996  52.841  1.00  0.00     0.005 A 
HETATM   26  C   UNL     1       6.964  24.083  53.051  1.00  0.00     0.029 A 
BRANCH  23  27
HETATM   27  O   UNL     1       8.383  21.777  56.193  1.00  0.00    -0.356 OA
HETATM   28  C   UNL     1       7.979  20.415  56.185  1.00  0.00     0.210 C 
ENDBRANCH  23  27
ENDBRANCH  18  21
ENDBRANCH  16  17
ENDBRANCH   2  16
TORSDOF 6
ENDMDL
MODEL 8
REMARK VINA RESULT:      -7.8      1.799      3.175
REMARK  6 active torsions:
REMARK  status: ('A' for Active; 'I' for Inactive)
REMARK    1  A    between atoms: C_2  and  N_3 
REMARK    2  A    between atoms: C_2  and  C_16 
REMARK    3  A    between atoms: N_3  and  C_6 
REMARK    4  A    between atoms: C_16  and  C_17 
REMARK       I    between atoms: C_17  and  N_18 
REMARK    5  A    between atoms: N_18  and  C_19 
REMARK    6  A    between atoms: C_21  and  O_22 
ROOT
HETATM    1  C   UNL     1       7.861  27.666  57.672  1.00  0.00     0.040 C 
HETATM    2  C   UNL     1       6.454  27.895  57.137  1.00  0.00     0.191 C 
ENDROOT
BRANCH   2   3
HETATM    3  N   UNL     1       6.181  26.997  55.955  1.00  0.00    -0.063 N 
HETATM    4  H   UNL     1       5.841  26.102  56.367  1.00  0.00     0.278 HD
HETATM    5  H   UNL     1       5.375  27.355  55.432  1.00  0.00     0.278 HD
BRANCH   3   6
HETATM    6  C   UNL     1       7.251  26.592  54.962  1.00  0.00     0.221 C 
HETATM    7  C   UNL     1       7.397  25.099  54.797  1.00  0.00    -0.011 A 
HETATM    8  C   UNL     1       7.297  24.455  53.553  1.00  0.00     0.009 A 
HETATM    9  C   UNL     1       7.684  24.316  55.939  1.00  0.00     0.011 A 
HETATM   10  C   UNL     1       7.451  23.062  53.478  1.00  0.00     0.019 A 
HETATM   11  S   UNL     1       7.034  25.299  52.009  1.00  0.00    -0.129 SA
HETATM   12  C   UNL     1       7.704  22.304  54.619  1.00  0.00     0.001 A 
HETATM   13  C   UNL     1       7.827  22.931  55.850  1.00  0.00     0.001 A 
HETATM   14  C   UNL     1       6.355  26.872  52.572  1.00  0.00     0.082 C 
HETATM   15  C   UNL     1       7.190  27.455  53.696  1.00  0.00     0.048 C 
ENDBRANCH   3   6
ENDBRANCH   2   3
BRANCH   2  16
HETATM   16  C   UNL     1       6.294  29.376  56.719  1.00  0.00     0.135 C 
BRANCH  16  17
HETATM   17  C   UNL     1       5.381  30.115  57.667  1.00  0.00     0.224 C 
HETATM   18  N   UNL     1       5.849  30.858  58.701  1.00  0.00    -0.327 N 
HETATM   19  H   UNL     1       5.099  31.167  59.315  1.00  0.00     0.169 HD
HETATM   20  O   UNL     1       4.157  30.042  57.480  1.00  0.00    -0.273 OA
BRANCH  18  21
HETATM   21  C   UNL     1       7.141  31.258  59.101  1.00  0.00     0.037 A 
HETATM   22  C   UNL     1       8.300  31.138  58.327  1.00  0.00     0.066 A 
HETATM   23  C   UNL     1       9.536  31.572  58.824  1.00  0.00     0.070 A 
HETATM   24  C   UNL     1       9.611  32.132  60.099  1.00  0.00     0.037 A 
HETATM   25  C   UNL     1       8.461  32.287  60.865  1.00  0.00     0.005 A 
HETATM   26  C   UNL     1       7.232  31.862  60.363  1.00  0.00     0.029 A 
BRANCH  23  27
HETATM   27  O   UNL     1      10.734  31.505  58.169  1.00  0.00    -0.356 OA
HETATM   28  C   UNL     1      10.971  30.378  57.336  1.00  0.00     0.210 C 
ENDBRANCH  23  27
ENDBRANCH  18  21
ENDBRANCH  16  17
ENDBRANCH   2  16
TORSDOF 6
ENDMDL
MODEL 9
REMARK VINA RESULT:      -7.8      4.722      8.062
REMARK  6 active torsions:
REMARK  status: ('A' for Active; 'I' for Inactive)
REMARK    1  A    between atoms: C_2  and  N_3 
REMARK    2  A    between atoms: C_2  and  C_16 
REMARK    3  A    between atoms: N_3  and  C_6 
REMARK    4  A    between atoms: C_16  and  C_17 
REMARK       I    between atoms: C_17  and  N_18 
REMARK    5  A    between atoms: N_18  and  C_19 
REMARK    6  A    between atoms: C_21  and  O_22 
ROOT
HETATM    1  C   UNL     1       4.805  24.996  52.594  1.00  0.00     0.040 C 
HETATM    2  C   UNL     1       5.645  26.135  52.029  1.00  0.00     0.191 C 
ENDROOT
BRANCH   2   3
HETATM    3  N   UNL     1       5.525  26.188  50.525  1.00  0.00    -0.063 N 
HETATM    4  H   UNL     1       6.492  26.024  50.171  1.00  0.00     0.278 HD
HETATM    5  H   UNL     1       4.995  25.375  50.195  1.00  0.00     0.278 HD
BRANCH   3   6
HETATM    6  C   UNL     1       5.034  27.412  49.779  1.00  0.00     0.221 C 
HETATM    7  C   UNL     1       3.827  27.153  48.911  1.00  0.00    -0.011 A 
HETATM    8  C   UNL     1       2.632  27.880  49.028  1.00  0.00     0.009 A 
HETATM    9  C   UNL     1       3.914  26.160  47.908  1.00  0.00     0.011 A 
HETATM   10  C   UNL     1       1.553  27.586  48.180  1.00  0.00     0.019 A 
HETATM   11  S   UNL     1       2.387  29.222  50.172  1.00  0.00    -0.129 SA
HETATM   12  C   UNL     1       1.648  26.584  47.217  1.00  0.00     0.001 A 
HETATM   13  C   UNL     1       2.832  25.874  47.076  1.00  0.00     0.001 A 
HETATM   14  C   UNL     1       3.692  28.909  51.376  1.00  0.00     0.082 C 
HETATM   15  C   UNL     1       5.018  28.647  50.687  1.00  0.00     0.048 C 
ENDBRANCH   3   6
ENDBRANCH   2   3
BRANCH   2  16
HETATM   16  C   UNL     1       7.125  25.935  52.431  1.00  0.00     0.135 C 
BRANCH  16  17
HETATM   17  C   UNL     1       7.394  26.482  53.812  1.00  0.00     0.224 C 
HETATM   18  N   UNL     1       7.609  25.680  54.885  1.00  0.00    -0.327 N 
HETATM   19  H   UNL     1       7.633  26.209  55.754  1.00  0.00     0.169 HD
HETATM   20  O   UNL     1       7.426  27.712  53.960  1.00  0.00    -0.273 OA
BRANCH  18  21
HETATM   21  C   UNL     1       7.779  24.288  55.038  1.00  0.00     0.037 A 
HETATM   22  C   UNL     1       7.574  23.334  54.035  1.00  0.00     0.066 A 
HETATM   23  C   UNL     1       7.775  21.973  54.296  1.00  0.00     0.070 A 
HETATM   24  C   UNL     1       8.185  21.565  55.566  1.00  0.00     0.037 A 
HETATM   25  C   UNL     1       8.423  22.505  56.561  1.00  0.00     0.005 A 
HETATM   26  C   UNL     1       8.231  23.860  56.294  1.00  0.00     0.029 A 
BRANCH  23  27
HETATM   27  O   UNL     1       7.605  20.950  53.406  1.00  0.00    -0.356 OA
HETATM   28  C   UNL     1       8.747  20.180  53.056  1.00  0.00     0.210 C 
ENDBRANCH  23  27
ENDBRANCH  18  21
ENDBRANCH  16  17
ENDBRANCH   2  16
TORSDOF 6
ENDMDL
MODEL 10
REMARK VINA RESULT:      -7.7      2.662      7.477
REMARK  6 active torsions:
REMARK  status: ('A' for Active; 'I' for Inactive)
REMARK    1  A    between atoms: C_2  and  N_3 
REMARK    2  A    between atoms: C_2  and  C_16 
REMARK    3  A    between atoms: N_3  and  C_6 
REMARK    4  A    between atoms: C_16  and  C_17 
REMARK       I    between atoms: C_17  and  N_18 
REMARK    5  A    between atoms: N_18  and  C_19 
REMARK    6  A    between atoms: C_21  and  O_22 
ROOT
HETATM    1  C   UNL     1       5.390  25.874  57.004  1.00  0.00     0.040 C 
HETATM    2  C   UNL     1       6.023  26.896  56.068  1.00  0.00     0.191 C 
ENDROOT
BRANCH   2   3
HETATM    3  N   UNL     1       5.610  28.296  56.451  1.00  0.00    -0.063 N 
HETATM    4  H   UNL     1       4.849  28.546  55.783  1.00  0.00     0.278 HD
HETATM    5  H   UNL     1       5.146  28.278  57.365  1.00  0.00     0.278 HD
BRANCH   3   6
HETATM    6  C   UNL     1       6.562  29.474  56.422  1.00  0.00     0.221 C 
HETATM    7  C   UNL     1       6.312  30.486  57.514  1.00  0.00    -0.011 A 
HETATM    8  C   UNL     1       7.303  30.887  58.425  1.00  0.00     0.009 A 
HETATM    9  C   UNL     1       5.036  31.087  57.602  1.00  0.00     0.011 A 
HETATM   10  C   UNL     1       6.998  31.839  59.410  1.00  0.00     0.019 A 
HETATM   11  S   UNL     1       8.983  30.300  58.396  1.00  0.00    -0.129 SA
HETATM   12  C   UNL     1       5.724  32.398  59.499  1.00  0.00     0.001 A 
HETATM   13  C   UNL     1       4.744  32.027  58.590  1.00  0.00     0.001 A 
HETATM   14  C   UNL     1       8.816  28.781  57.438  1.00  0.00     0.082 C 
HETATM   15  C   UNL     1       8.005  29.017  56.179  1.00  0.00     0.048 C 
ENDBRANCH   3   6
ENDBRANCH   2   3
BRANCH   2  16
HETATM   16  C   UNL     1       5.593  26.600  54.612  1.00  0.00     0.135 C 
BRANCH  16  17
HETATM   17  C   UNL     1       6.729  26.838  53.647  1.00  0.00     0.224 C 
HETATM   18  N   UNL     1       7.680  25.904  53.395  1.00  0.00    -0.327 N 
HETATM   19  H   UNL     1       8.441  26.280  52.834  1.00  0.00     0.169 HD
HETATM   20  O   UNL     1       6.783  27.929  53.061  1.00  0.00    -0.273 OA
BRANCH  18  21
HETATM   21  C   UNL     1       7.835  24.552  53.768  1.00  0.00     0.037 A 
HETATM   22  C   UNL     1       8.097  24.096  55.065  1.00  0.00     0.066 A 
HETATM   23  C   UNL     1       8.230  22.726  55.324  1.00  0.00     0.070 A 
HETATM   24  C   UNL     1       8.098  21.809  54.282  1.00  0.00     0.037 A 
HETATM   25  C   UNL     1       7.805  22.246  52.995  1.00  0.00     0.005 A 
HETATM   26  C   UNL     1       7.665  23.611  52.743  1.00  0.00     0.029 A 
BRANCH  23  27
HETATM   27  O   UNL     1       8.489  22.160  56.541  1.00  0.00    -0.356 OA
HETATM   28  C   UNL     1       8.634  20.747  56.596  1.00  0.00     0.210 C 
ENDBRANCH  23  27
ENDBRANCH  18  21
ENDBRANCH  16  17
ENDBRANCH   2  16
TORSDOF 6
ENDMDL
