MODEL 1
REMARK VINA RESULT:      -9.4      0.000      0.000
REMARK  6 active torsions:
REMARK  status: ('A' for Active; 'I' for Inactive)
REMARK    1  A    between atoms: O_2  and  C_3 
REMARK    2  A    between atoms: C_6  and  C_7 
REMARK    3  A    between atoms: C_7  and  N_8 
REMARK       I    between atoms: N_8  and  C_9 
REMARK    4  A    between atoms: C_9  and  C_10 
REMARK    5  A    between atoms: C_10  and  O_11 
REMARK    6  A    between atoms: N_12  and  C_13 
ROOT
HETATM    1  C   UNL     1       5.600  26.185  54.940  1.00  0.00     0.256 C 
HETATM    2  N   UNL     1       6.952  25.726  55.317  1.00  0.00    -0.254 N 
HETATM    3  C   UNL     1       7.690  26.438  56.254  1.00  0.00     0.330 C 
HETATM    4  O   UNL     1       8.699  26.032  56.834  1.00  0.00    -0.246 OA
HETATM    5  N   UNL     1       7.303  27.714  56.530  1.00  0.00    -0.308 N 
HETATM    6  C   UNL     1       6.241  28.381  55.945  1.00  0.00     0.048 A 
HETATM    7  C   UNL     1       5.387  27.678  55.106  1.00  0.00     0.034 A 
HETATM    8  C   UNL     1       6.050  29.739  56.212  1.00  0.00     0.030 A 
HETATM    9  C   UNL     1       4.992  30.418  55.612  1.00  0.00     0.002 A 
HETATM   10  C   UNL     1       4.124  29.735  54.766  1.00  0.00     0.001 A 
HETATM   11  C   UNL     1       4.309  28.372  54.524  1.00  0.00     0.015 A 
HETATM   12  H   UNL     1       7.899  28.192  57.192  1.00  0.00     0.170 HD
ENDROOT
BRANCH   1  13
HETATM   13  C   UNL     1       5.279  25.783  53.438  1.00  0.00     0.279 C 
HETATM   14  N   UNL     1       5.883  26.530  52.448  1.00  0.00    -0.352 N 
HETATM   15  H   UNL     1       6.510  27.280  52.715  1.00  0.00     0.162 HD
HETATM   16  O   UNL     1       4.488  24.864  53.201  1.00  0.00    -0.268 OA
BRANCH  14  17
HETATM   17  C   UNL     1       5.843  26.133  51.059  1.00  0.00     0.161 C 
BRANCH  17  18
HETATM   18  C   UNL     1       4.760  26.823  50.271  1.00  0.00    -0.040 A 
HETATM   19  C   UNL     1       4.230  26.235  49.116  1.00  0.00     0.011 A 
HETATM   20  C   UNL     1       3.162  26.834  48.442  1.00  0.00     0.037 A 
HETATM   21  C   UNL     1       2.605  28.027  48.907  1.00  0.00     0.068 A 
HETATM   22  C   UNL     1       3.148  28.637  50.034  1.00  0.00     0.037 A 
HETATM   23  C   UNL     1       4.215  28.036  50.712  1.00  0.00     0.011 A 
BRANCH  21  24
HETATM   24  O   UNL     1       1.543  28.492  48.179  1.00  0.00    -0.356 OA
HETATM   25  C   UNL     1       0.780  27.513  47.482  1.00  0.00     0.210 C 
ENDBRANCH  21  24
ENDBRANCH  17  18
ENDBRANCH  14  17
ENDBRANCH   1  13
BRANCH   1  26
HETATM   26  O   UNL     1       4.665  25.566  55.828  1.00  0.00    -0.359 OA
HETATM   27  H   UNL     1       4.750  26.058  56.666  1.00  0.00     0.213 HD
ENDBRANCH   1  26
BRANCH   2  28
HETATM   28  C   UNL     1       7.418  24.419  54.908  1.00  0.00     0.043 A 
HETATM   29  C   UNL     1       7.220  23.269  55.687  1.00  0.00     0.031 A 
HETATM   30  C   UNL     1       7.617  22.004  55.232  1.00  0.00     0.026 A 
HETATM   31  C   UNL     1       8.227  21.872  53.990  1.00  0.00     0.034 A 
HETATM   32 CL   UNL     1       8.703  20.320  53.427  1.00  0.00    -0.084 Cl
HETATM   33  C   UNL     1       8.449  22.994  53.204  1.00  0.00     0.026 A 
HETATM   34  C   UNL     1       8.047  24.255  53.660  1.00  0.00     0.031 A 
ENDBRANCH   2  28
TORSDOF 6
ENDMDL
MODEL 2
REMARK VINA RESULT:      -9.3      3.054      5.286
REMARK  6 active torsions:
REMARK  status: ('A' for Active; 'I' for Inactive)
REMARK    1  A    between atoms: O_2  and  C_3 
REMARK    2  A    between atoms: C_6  and  C_7 
REMARK    3  A    between atoms: C_7  and  N_8 
REMARK       I    between atoms: N_8  and  C_9 
REMARK    4  A    between atoms: C_9  and  C_10 
REMARK    5  A    between atoms: C_10  and  O_11 
REMARK    6  A    between atoms: N_12  and  C_13 
ROOT
HETATM    1  C   UNL     1       7.232  27.215  54.498  1.00  0.00     0.256 C 
HETATM    2  N   UNL     1       7.039  27.312  55.959  1.00  0.00    -0.254 N 
HETATM    3  C   UNL     1       7.598  26.356  56.797  1.00  0.00     0.330 C 
HETATM    4  O   UNL     1       7.728  26.458  58.018  1.00  0.00    -0.246 OA
HETATM    5  N   UNL     1       7.997  25.179  56.240  1.00  0.00    -0.308 N 
HETATM    6  C   UNL     1       7.882  24.837  54.904  1.00  0.00     0.048 A 
HETATM    7  C   UNL     1       7.459  25.800  53.998  1.00  0.00     0.034 A 
HETATM    8  C   UNL     1       8.194  23.538  54.497  1.00  0.00     0.030 A 
HETATM    9  C   UNL     1       8.062  23.184  53.156  1.00  0.00     0.002 A 
HETATM   10  C   UNL     1       7.638  24.132  52.230  1.00  0.00     0.001 A 
HETATM   11  C   UNL     1       7.351  25.436  52.643  1.00  0.00     0.015 A 
HETATM   12  H   UNL     1       8.362  24.511  56.905  1.00  0.00     0.170 HD
ENDROOT
BRANCH   1  13
HETATM   13  C   UNL     1       5.987  27.836  53.734  1.00  0.00     0.279 C 
HETATM   14  N   UNL     1       6.251  28.817  52.800  1.00  0.00    -0.352 N 
HETATM   15  H   UNL     1       7.214  29.084  52.632  1.00  0.00     0.162 HD
HETATM   16  O   UNL     1       4.842  27.464  54.014  1.00  0.00    -0.268 OA
BRANCH  14  17
HETATM   17  C   UNL     1       5.237  29.302  51.892  1.00  0.00     0.161 C 
BRANCH  17  18
HETATM   18  C   UNL     1       5.110  28.475  50.640  1.00  0.00    -0.040 A 
HETATM   19  C   UNL     1       4.612  27.167  50.691  1.00  0.00     0.011 A 
HETATM   20  C   UNL     1       4.409  26.439  49.516  1.00  0.00     0.037 A 
HETATM   21  C   UNL     1       4.697  27.001  48.270  1.00  0.00     0.068 A 
HETATM   22  C   UNL     1       5.226  28.287  48.211  1.00  0.00     0.037 A 
HETATM   23  C   UNL     1       5.426  29.018  49.387  1.00  0.00     0.011 A 
BRANCH  21  24
HETATM   24  O   UNL     1       4.422  26.198  47.196  1.00  0.00    -0.356 OA
HETATM   25  C   UNL     1       3.243  25.406  47.288  1.00  0.00     0.210 C 
ENDBRANCH  21  24
ENDBRANCH  17  18
ENDBRANCH  14  17
ENDBRANCH   1  13
BRANCH   1  26
HETATM   26  O   UNL     1       8.423  27.932  54.165  1.00  0.00    -0.359 OA
HETATM   27  H   UNL     1       9.154  27.352  54.450  1.00  0.00     0.213 HD
ENDBRANCH   1  26
BRANCH   2  28
HETATM   28  C   UNL     1       6.487  28.515  56.542  1.00  0.00     0.043 A 
HETATM   29  C   UNL     1       5.149  28.607  56.959  1.00  0.00     0.031 A 
HETATM   30  C   UNL     1       4.660  29.759  57.587  1.00  0.00     0.026 A 
HETATM   31  C   UNL     1       5.502  30.845  57.801  1.00  0.00     0.034 A 
HETATM   32 CL   UNL     1       4.905  32.255  58.582  1.00  0.00    -0.084 Cl
HETATM   33  C   UNL     1       6.825  30.789  57.386  1.00  0.00     0.026 A 
HETATM   34  C   UNL     1       7.311  29.633  56.763  1.00  0.00     0.031 A 
ENDBRANCH   2  28
TORSDOF 6
ENDMDL
MODEL 3
REMARK VINA RESULT:      -9.2      2.661      5.124
REMARK  6 active torsions:
REMARK  status: ('A' for Active; 'I' for Inactive)
REMARK    1  A    between atoms: O_2  and  C_3 
REMARK    2  A    between atoms: C_6  and  C_7 
REMARK    3  A    between atoms: C_7  and  N_8 
REMARK       I    between atoms: N_8  and  C_9 
REMARK    4  A    between atoms: C_9  and  C_10 
REMARK    5  A    between atoms: C_10  and  O_11 
REMARK    6  A    between atoms: N_12  and  C_13 
ROOT
HETATM    1  C   UNL     1       7.320  24.845  53.977  1.00  0.00     0.256 C 
HETATM    2  N   UNL     1       7.240  25.464  55.315  1.00  0.00    -0.254 N 
HETATM    3  C   UNL     1       8.005  24.961  56.359  1.00  0.00     0.330 C 
HETATM    4  O   UNL     1       8.222  25.530  57.431  1.00  0.00    -0.246 OA
HETATM    5  N   UNL     1       8.527  23.712  56.218  1.00  0.00    -0.308 N 
HETATM    6  C   UNL     1       8.351  22.880  55.126  1.00  0.00     0.048 A 
HETATM    7  C   UNL     1       7.714  23.379  53.998  1.00  0.00     0.034 A 
HETATM    8  C   UNL     1       8.819  21.565  55.181  1.00  0.00     0.030 A 
HETATM    9  C   UNL     1       8.629  20.719  54.090  1.00  0.00     0.002 A 
HETATM   10  C   UNL     1       7.991  21.196  52.949  1.00  0.00     0.001 A 
HETATM   11  C   UNL     1       7.548  22.521  52.896  1.00  0.00     0.015 A 
HETATM   12  H   UNL     1       9.043  23.387  57.025  1.00  0.00     0.170 HD
ENDROOT
BRANCH   1  13
HETATM   13  C   UNL     1       5.936  24.994  53.214  1.00  0.00     0.279 C 
HETATM   14  N   UNL     1       5.960  25.639  51.995  1.00  0.00    -0.352 N 
HETATM   15  H   UNL     1       6.847  25.971  51.635  1.00  0.00     0.162 HD
HETATM   16  O   UNL     1       4.897  24.574  53.734  1.00  0.00    -0.268 OA
BRANCH  14  17
HETATM   17  C   UNL     1       4.816  25.647  51.112  1.00  0.00     0.161 C 
BRANCH  17  18
HETATM   18  C   UNL     1       4.919  26.667  50.009  1.00  0.00    -0.040 A 
HETATM   19  C   UNL     1       4.498  26.362  48.709  1.00  0.00     0.011 A 
HETATM   20  C   UNL     1       4.509  27.341  47.712  1.00  0.00     0.037 A 
HETATM   21  C   UNL     1       4.937  28.641  47.993  1.00  0.00     0.068 A 
HETATM   22  C   UNL     1       5.390  28.945  49.274  1.00  0.00     0.037 A 
HETATM   23  C   UNL     1       5.376  27.966  50.274  1.00  0.00     0.011 A 
BRANCH  21  24
HETATM   24  O   UNL     1       4.866  29.514  46.942  1.00  0.00    -0.356 OA
HETATM   25  C   UNL     1       3.677  30.291  46.848  1.00  0.00     0.210 C 
ENDBRANCH  21  24
ENDBRANCH  17  18
ENDBRANCH  14  17
ENDBRANCH   1  13
BRANCH   1  26
HETATM   26  O   UNL     1       8.358  25.506  53.249  1.00  0.00    -0.359 OA
HETATM   27  H   UNL     1       8.202  26.458  53.396  1.00  0.00     0.213 HD
ENDBRANCH   1  26
BRANCH   2  28
HETATM   28  C   UNL     1       6.565  26.731  55.490  1.00  0.00     0.043 A 
HETATM   29  C   UNL     1       5.317  26.841  56.124  1.00  0.00     0.031 A 
HETATM   30  C   UNL     1       4.720  28.089  56.345  1.00  0.00     0.026 A 
HETATM   31  C   UNL     1       5.361  29.250  55.927  1.00  0.00     0.034 A 
HETATM   32 CL   UNL     1       4.634  30.782  56.210  1.00  0.00    -0.084 Cl
HETATM   33  C   UNL     1       6.589  29.172  55.285  1.00  0.00     0.026 A 
HETATM   34  C   UNL     1       7.184  27.923  55.070  1.00  0.00     0.031 A 
ENDBRANCH   2  28
TORSDOF 6
ENDMDL
MODEL 4
REMARK VINA RESULT:      -9.1      2.955      6.975
REMARK  6 active torsions:
REMARK  status: ('A' for Active; 'I' for Inactive)
REMARK    1  A    between atoms: O_2  and  C_3 
REMARK    2  A    between atoms: C_6  and  C_7 
REMARK    3  A    between atoms: C_7  and  N_8 
REMARK       I    between atoms: N_8  and  C_9 
REMARK    4  A    between atoms: C_9  and  C_10 
REMARK    5  A    between atoms: C_10  and  O_11 
REMARK    6  A    between atoms: N_12  and  C_13 
ROOT
HETATM    1  C   UNL     1       6.419  28.041  54.498  1.00  0.00     0.256 C 
HETATM    2  N   UNL     1       5.826  26.783  54.003  1.00  0.00    -0.254 N 
HETATM    3  C   UNL     1       4.609  26.804  53.334  1.00  0.00     0.330 C 
HETATM    4  O   UNL     1       4.142  25.883  52.662  1.00  0.00    -0.246 OA
HETATM    5  N   UNL     1       3.834  27.916  53.464  1.00  0.00    -0.308 N 
HETATM    6  C   UNL     1       4.141  29.032  54.222  1.00  0.00     0.048 A 
HETATM    7  C   UNL     1       5.400  29.125  54.800  1.00  0.00     0.034 A 
HETATM    8  C   UNL     1       3.185  30.037  54.386  1.00  0.00     0.030 A 
HETATM    9  C   UNL     1       3.484  31.154  55.163  1.00  0.00     0.002 A 
HETATM   10  C   UNL     1       4.738  31.269  55.754  1.00  0.00     0.001 A 
HETATM   11  C   UNL     1       5.697  30.269  55.564  1.00  0.00     0.015 A 
HETATM   12  H   UNL     1       2.946  27.857  52.985  1.00  0.00     0.170 HD
ENDROOT
BRANCH   1  13
HETATM   13  C   UNL     1       7.284  27.771  55.801  1.00  0.00     0.279 C 
HETATM   14  N   UNL     1       8.569  28.270  55.813  1.00  0.00    -0.352 N 
HETATM   15  H   UNL     1       8.898  28.794  55.010  1.00  0.00     0.162 HD
HETATM   16  O   UNL     1       6.810  27.107  56.729  1.00  0.00    -0.268 OA
BRANCH  14  17
HETATM   17  C   UNL     1       9.375  28.280  57.013  1.00  0.00     0.161 C 
BRANCH  17  18
HETATM   18  C   UNL     1       9.219  29.537  57.828  1.00  0.00    -0.040 A 
HETATM   19  C   UNL     1       8.144  29.690  58.712  1.00  0.00     0.011 A 
HETATM   20  C   UNL     1       8.056  30.817  59.533  1.00  0.00     0.037 A 
HETATM   21  C   UNL     1       9.038  31.809  59.490  1.00  0.00     0.068 A 
HETATM   22  C   UNL     1      10.092  31.683  58.590  1.00  0.00     0.037 A 
HETATM   23  C   UNL     1      10.183  30.553  57.769  1.00  0.00     0.011 A 
BRANCH  21  24
HETATM   24  O   UNL     1       8.855  32.842  60.368  1.00  0.00    -0.356 OA
HETATM   25  C   UNL     1       7.679  32.788  61.169  1.00  0.00     0.210 C 
ENDBRANCH  21  24
ENDBRANCH  17  18
ENDBRANCH  14  17
ENDBRANCH   1  13
BRANCH   1  26
HETATM   26  O   UNL     1       7.244  28.575  53.459  1.00  0.00    -0.359 OA
HETATM   27  H   UNL     1       7.058  29.532  53.456  1.00  0.00     0.213 HD
ENDBRANCH   1  26
BRANCH   2  28
HETATM   28  C   UNL     1       6.609  25.566  53.991  1.00  0.00     0.043 A 
HETATM   29  C   UNL     1       6.444  24.553  54.948  1.00  0.00     0.031 A 
HETATM   30  C   UNL     1       7.165  23.354  54.870  1.00  0.00     0.026 A 
HETATM   31  C   UNL     1       8.069  23.152  53.834  1.00  0.00     0.034 A 
HETATM   32 CL   UNL     1       8.944  21.676  53.731  1.00  0.00    -0.084 Cl
HETATM   33  C   UNL     1       8.264  24.142  52.881  1.00  0.00     0.026 A 
HETATM   34  C   UNL     1       7.539  25.337  52.961  1.00  0.00     0.031 A 
ENDBRANCH   2  28
TORSDOF 6
ENDMDL
MODEL 5
REMARK VINA RESULT:      -9.0      2.633      5.289
REMARK  6 active torsions:
REMARK  status: ('A' for Active; 'I' for Inactive)
REMARK    1  A    between atoms: O_2  and  C_3 
REMARK    2  A    between atoms: C_6  and  C_7 
REMARK    3  A    between atoms: C_7  and  N_8 
REMARK       I    between atoms: N_8  and  C_9 
REMARK    4  A    between atoms: C_9  and  C_10 
REMARK    5  A    between atoms: C_10  and  O_11 
REMARK    6  A    between atoms: N_12  and  C_13 
ROOT
HETATM    1  C   UNL     1       7.240  24.709  54.170  1.00  0.00     0.256 C 
HETATM    2  N   UNL     1       6.976  25.321  55.488  1.00  0.00    -0.254 N 
HETATM    3  C   UNL     1       7.483  24.735  56.640  1.00  0.00     0.330 C 
HETATM    4  O   UNL     1       7.553  25.269  57.748  1.00  0.00    -0.246 OA
HETATM    5  N   UNL     1       7.900  23.441  56.562  1.00  0.00    -0.308 N 
HETATM    6  C   UNL     1       7.849  22.641  55.434  1.00  0.00     0.048 A 
HETATM    7  C   UNL     1       7.480  23.211  54.223  1.00  0.00     0.034 A 
HETATM    8  C   UNL     1       8.170  21.286  55.536  1.00  0.00     0.030 A 
HETATM    9  C   UNL     1       8.103  20.473  54.407  1.00  0.00     0.002 A 
HETATM   10  C   UNL     1       7.734  21.022  53.182  1.00  0.00     0.001 A 
HETATM   11  C   UNL     1       7.438  22.384  53.085  1.00  0.00     0.015 A 
HETATM   12  H   UNL     1       8.225  23.059  57.440  1.00  0.00     0.170 HD
ENDROOT
BRANCH   1  13
HETATM   13  C   UNL     1       6.041  25.002  53.173  1.00  0.00     0.279 C 
HETATM   14  N   UNL     1       6.314  25.805  52.085  1.00  0.00    -0.352 N 
HETATM   15  H   UNL     1       7.257  26.155  51.960  1.00  0.00     0.162 HD
HETATM   16  O   UNL     1       4.916  24.549  53.410  1.00  0.00    -0.268 OA
BRANCH  14  17
HETATM   17  C   UNL     1       5.374  25.967  50.999  1.00  0.00     0.161 C 
BRANCH  17  18
HETATM   18  C   UNL     1       4.659  27.293  51.020  1.00  0.00    -0.040 A 
HETATM   19  C   UNL     1       4.235  27.897  49.829  1.00  0.00     0.011 A 
HETATM   20  C   UNL     1       3.491  29.079  49.861  1.00  0.00     0.037 A 
HETATM   21  C   UNL     1       3.155  29.678  51.077  1.00  0.00     0.068 A 
HETATM   22  C   UNL     1       3.601  29.104  52.264  1.00  0.00     0.037 A 
HETATM   23  C   UNL     1       4.343  27.918  52.234  1.00  0.00     0.011 A 
BRANCH  21  24
HETATM   24  O   UNL     1       2.394  30.811  50.972  1.00  0.00    -0.356 OA
HETATM   25  C   UNL     1       2.788  31.911  51.786  1.00  0.00     0.210 C 
ENDBRANCH  21  24
ENDBRANCH  17  18
ENDBRANCH  14  17
ENDBRANCH   1  13
BRANCH   1  26
HETATM   26  O   UNL     1       8.453  25.271  53.662  1.00  0.00    -0.359 OA
HETATM   27  H   UNL     1       8.351  25.255  52.692  1.00  0.00     0.213 HD
ENDBRANCH   1  26
BRANCH   2  28
HETATM   28  C   UNL     1       6.405  26.647  55.572  1.00  0.00     0.043 A 
HETATM   29  C   UNL     1       7.110  27.800  55.191  1.00  0.00     0.031 A 
HETATM   30  C   UNL     1       6.507  29.064  55.214  1.00  0.00     0.026 A 
HETATM   31  C   UNL     1       5.187  29.197  55.629  1.00  0.00     0.034 A 
HETATM   32 CL   UNL     1       4.443  30.746  55.646  1.00  0.00    -0.084 Cl
HETATM   33  C   UNL     1       4.469  28.077  56.026  1.00  0.00     0.026 A 
HETATM   34  C   UNL     1       5.074  26.816  55.997  1.00  0.00     0.031 A 
ENDBRANCH   2  28
TORSDOF 6
ENDMDL
MODEL 6
REMARK VINA RESULT:      -8.9      4.110      8.808
REMARK  6 active torsions:
REMARK  status: ('A' for Active; 'I' for Inactive)
REMARK    1  A    between atoms: O_2  and  C_3 
REMARK    2  A    between atoms: C_6  and  C_7 
REMARK    3  A    between atoms: C_7  and  N_8 
REMARK       I    between atoms: N_8  and  C_9 
REMARK    4  A    between atoms: C_9  and  C_10 
REMARK    5  A    between atoms: C_10  and  O_11 
REMARK    6  A    between atoms: N_12  and  C_13 
ROOT
HETATM    1  C   UNL     1       5.535  27.363  55.346  1.00  0.00     0.256 C 
HETATM    2  N   UNL     1       4.603  28.268  54.647  1.00  0.00    -0.254 N 
HETATM    3  C   UNL     1       3.844  27.797  53.584  1.00  0.00     0.330 C 
HETATM    4  O   UNL     1       2.866  28.362  53.092  1.00  0.00    -0.246 OA
HETATM    5  N   UNL     1       4.232  26.632  52.994  1.00  0.00    -0.308 N 
HETATM    6  C   UNL     1       5.335  25.875  53.348  1.00  0.00     0.048 A 
HETATM    7  C   UNL     1       6.050  26.222  54.487  1.00  0.00     0.034 A 
HETATM    8  C   UNL     1       5.701  24.782  52.560  1.00  0.00     0.030 A 
HETATM    9  C   UNL     1       6.821  24.028  52.903  1.00  0.00     0.002 A 
HETATM   10  C   UNL     1       7.555  24.358  54.038  1.00  0.00     0.001 A 
HETATM   11  C   UNL     1       7.166  25.439  54.834  1.00  0.00     0.015 A 
HETATM   12  H   UNL     1       3.663  26.360  52.205  1.00  0.00     0.170 HD
ENDROOT
BRANCH   1  13
HETATM   13  C   UNL     1       6.774  28.175  55.917  1.00  0.00     0.279 C 
HETATM   14  N   UNL     1       6.861  28.304  57.287  1.00  0.00    -0.352 N 
HETATM   15  H   UNL     1       6.151  27.867  57.865  1.00  0.00     0.162 HD
HETATM   16  O   UNL     1       7.585  28.690  55.140  1.00  0.00    -0.268 OA
BRANCH  14  17
HETATM   17  C   UNL     1       8.043  28.828  57.933  1.00  0.00     0.161 C 
BRANCH  17  18
HETATM   18  C   UNL     1       7.778  30.064  58.752  1.00  0.00    -0.040 A 
HETATM   19  C   UNL     1       6.725  30.927  58.427  1.00  0.00     0.011 A 
HETATM   20  C   UNL     1       6.426  32.021  59.244  1.00  0.00     0.037 A 
HETATM   21  C   UNL     1       7.170  32.272  60.399  1.00  0.00     0.068 A 
HETATM   22  C   UNL     1       8.241  31.439  60.712  1.00  0.00     0.037 A 
HETATM   23  C   UNL     1       8.539  30.342  59.896  1.00  0.00     0.011 A 
BRANCH  21  24
HETATM   24  O   UNL     1       6.755  33.351  61.131  1.00  0.00    -0.356 OA
HETATM   25  C   UNL     1       6.729  33.182  62.545  1.00  0.00     0.210 C 
ENDBRANCH  21  24
ENDBRANCH  17  18
ENDBRANCH  14  17
ENDBRANCH   1  13
BRANCH   1  26
HETATM   26  O   UNL     1       4.820  26.739  56.416  1.00  0.00    -0.359 OA
HETATM   27  H   UNL     1       4.452  27.477  56.937  1.00  0.00     0.213 HD
ENDBRANCH   1  26
BRANCH   2  28
HETATM   28  C   UNL     1       4.293  29.566  55.205  1.00  0.00     0.043 A 
HETATM   29  C   UNL     1       3.563  29.722  56.394  1.00  0.00     0.031 A 
HETATM   30  C   UNL     1       3.340  30.989  56.950  1.00  0.00     0.026 A 
HETATM   31  C   UNL     1       3.839  32.123  56.320  1.00  0.00     0.034 A 
HETATM   32 CL   UNL     1       3.576  33.675  57.009  1.00  0.00    -0.084 Cl
HETATM   33  C   UNL     1       4.552  32.001  55.135  1.00  0.00     0.026 A 
HETATM   34  C   UNL     1       4.776  30.733  54.585  1.00  0.00     0.031 A 
ENDBRANCH   2  28
TORSDOF 6
ENDMDL
MODEL 7
REMARK VINA RESULT:      -8.8      2.678      6.481
REMARK  6 active torsions:
REMARK  status: ('A' for Active; 'I' for Inactive)
REMARK    1  A    between atoms: O_2  and  C_3 
REMARK    2  A    between atoms: C_6  and  C_7 
REMARK    3  A    between atoms: C_7  and  N_8 
REMARK       I    between atoms: N_8  and  C_9 
REMARK    4  A    between atoms: C_9  and  C_10 
REMARK    5  A    between atoms: C_10  and  O_11 
REMARK    6  A    between atoms: N_12  and  C_13 
ROOT
HETATM    1  C   UNL     1       4.023  28.272  52.764  1.00  0.00     0.256 C 
HETATM    2  N   UNL     1       4.386  29.059  53.960  1.00  0.00    -0.254 N 
HETATM    3  C   UNL     1       3.777  30.285  54.195  1.00  0.00     0.330 C 
HETATM    4  O   UNL     1       3.799  30.906  55.259  1.00  0.00    -0.246 OA
HETATM    5  N   UNL     1       3.139  30.886  53.153  1.00  0.00    -0.308 N 
HETATM    6  C   UNL     1       3.053  30.392  51.863  1.00  0.00     0.048 A 
HETATM    7  C   UNL     1       3.521  29.111  51.602  1.00  0.00     0.034 A 
HETATM    8  C   UNL     1       2.497  31.186  50.858  1.00  0.00     0.030 A 
HETATM    9  C   UNL     1       2.424  30.699  49.554  1.00  0.00     0.002 A 
HETATM   10  C   UNL     1       2.889  29.419  49.269  1.00  0.00     0.001 A 
HETATM   11  C   UNL     1       3.422  28.623  50.286  1.00  0.00     0.015 A 
HETATM   12  H   UNL     1       2.748  31.792  53.376  1.00  0.00     0.170 HD
ENDROOT
BRANCH   1  13
HETATM   13  C   UNL     1       5.259  27.405  52.275  1.00  0.00     0.279 C 
HETATM   14  N   UNL     1       5.267  26.072  52.629  1.00  0.00    -0.352 N 
HETATM   15  H   UNL     1       4.488  25.703  53.162  1.00  0.00     0.162 HD
HETATM   16  O   UNL     1       6.176  27.940  51.642  1.00  0.00    -0.268 OA
BRANCH  14  17
HETATM   17  C   UNL     1       6.217  25.138  52.068  1.00  0.00     0.161 C 
BRANCH  17  18
HETATM   18  C   UNL     1       6.893  24.278  53.103  1.00  0.00    -0.040 A 
HETATM   19  C   UNL     1       6.668  24.490  54.469  1.00  0.00     0.011 A 
HETATM   20  C   UNL     1       7.224  23.631  55.421  1.00  0.00     0.037 A 
HETATM   21  C   UNL     1       8.010  22.546  55.029  1.00  0.00     0.068 A 
HETATM   22  C   UNL     1       8.268  22.347  53.675  1.00  0.00     0.037 A 
HETATM   23  C   UNL     1       7.709  23.204  52.721  1.00  0.00     0.011 A 
BRANCH  21  24
HETATM   24  O   UNL     1       8.465  21.761  56.054  1.00  0.00    -0.356 OA
HETATM   25  C   UNL     1       9.230  20.620  55.682  1.00  0.00     0.210 C 
ENDBRANCH  21  24
ENDBRANCH  17  18
ENDBRANCH  14  17
ENDBRANCH   1  13
BRANCH   1  26
HETATM   26  O   UNL     1       2.930  27.419  53.116  1.00  0.00    -0.359 OA
HETATM   27  H   UNL     1       3.332  26.694  53.630  1.00  0.00     0.213 HD
ENDBRANCH   1  26
BRANCH   2  28
HETATM   28  C   UNL     1       5.181  28.461  55.009  1.00  0.00     0.043 A 
HETATM   29  C   UNL     1       4.630  27.623  55.991  1.00  0.00     0.031 A 
HETATM   30  C   UNL     1       5.437  27.000  56.953  1.00  0.00     0.026 A 
HETATM   31  C   UNL     1       6.810  27.213  56.952  1.00  0.00     0.034 A 
HETATM   32 CL   UNL     1       7.801  26.438  58.123  1.00  0.00    -0.084 Cl
HETATM   33  C   UNL     1       7.382  28.048  56.002  1.00  0.00     0.026 A 
HETATM   34  C   UNL     1       6.573  28.665  55.041  1.00  0.00     0.031 A 
ENDBRANCH   2  28
TORSDOF 6
ENDMDL
MODEL 8
REMARK VINA RESULT:      -8.7      2.208      6.663
REMARK  6 active torsions:
REMARK  status: ('A' for Active; 'I' for Inactive)
REMARK    1  A    between atoms: O_2  and  C_3 
REMARK    2  A    between atoms: C_6  and  C_7 
REMARK    3  A    between atoms: C_7  and  N_8 
REMARK       I    between atoms: N_8  and  C_9 
REMARK    4  A    between atoms: C_9  and  C_10 
REMARK    5  A    between atoms: C_10  and  O_11 
REMARK    6  A    between atoms: N_12  and  C_13 
ROOT
HETATM    1  C   UNL     1       4.517  28.446  51.427  1.00  0.00     0.256 C 
HETATM    2  N   UNL     1       4.603  27.036  50.997  1.00  0.00    -0.254 N 
HETATM    3  C   UNL     1       4.075  26.651  49.771  1.00  0.00     0.330 C 
HETATM    4  O   UNL     1       4.303  25.587  49.193  1.00  0.00    -0.246 OA
HETATM    5  N   UNL     1       3.192  27.494  49.169  1.00  0.00    -0.308 N 
HETATM    6  C   UNL     1       2.752  28.704  49.677  1.00  0.00     0.048 A 
HETATM    7  C   UNL     1       3.346  29.203  50.828  1.00  0.00     0.034 A 
HETATM    8  C   UNL     1       1.729  29.393  49.023  1.00  0.00     0.030 A 
HETATM    9  C   UNL     1       1.271  30.603  49.541  1.00  0.00     0.002 A 
HETATM   10  C   UNL     1       1.850  31.123  50.695  1.00  0.00     0.001 A 
HETATM   11  C   UNL     1       2.889  30.437  51.328  1.00  0.00     0.015 A 
HETATM   12  H   UNL     1       2.815  27.143  48.298  1.00  0.00     0.170 HD
ENDROOT
BRANCH   1  13
HETATM   13  C   UNL     1       4.432  28.537  53.010  1.00  0.00     0.279 C 
HETATM   14  N   UNL     1       5.547  29.009  53.670  1.00  0.00    -0.352 N 
HETATM   15  H   UNL     1       6.355  29.289  53.126  1.00  0.00     0.162 HD
HETATM   16  O   UNL     1       3.412  28.158  53.596  1.00  0.00    -0.268 OA
BRANCH  14  17
HETATM   17  C   UNL     1       5.520  29.341  55.076  1.00  0.00     0.161 C 
BRANCH  17  18
HETATM   18  C   UNL     1       6.221  28.329  55.944  1.00  0.00    -0.040 A 
HETATM   19  C   UNL     1       6.255  26.977  55.582  1.00  0.00     0.011 A 
HETATM   20  C   UNL     1       6.986  26.058  56.341  1.00  0.00     0.037 A 
HETATM   21  C   UNL     1       7.696  26.471  57.470  1.00  0.00     0.068 A 
HETATM   22  C   UNL     1       7.640  27.807  57.857  1.00  0.00     0.037 A 
HETATM   23  C   UNL     1       6.912  28.728  57.096  1.00  0.00     0.011 A 
BRANCH  21  24
HETATM   24  O   UNL     1       8.399  25.483  58.104  1.00  0.00    -0.356 OA
HETATM   25  C   UNL     1       8.768  24.362  57.309  1.00  0.00     0.210 C 
ENDBRANCH  21  24
ENDBRANCH  17  18
ENDBRANCH  14  17
ENDBRANCH   1  13
BRANCH   1  26
HETATM   26  O   UNL     1       5.686  29.120  50.956  1.00  0.00    -0.359 OA
HETATM   27  H   UNL     1       5.432  30.061  50.906  1.00  0.00     0.213 HD
ENDBRANCH   1  26
BRANCH   2  28
HETATM   28  C   UNL     1       5.440  26.105  51.721  1.00  0.00     0.043 A 
HETATM   29  C   UNL     1       4.912  25.104  52.553  1.00  0.00     0.031 A 
HETATM   30  C   UNL     1       5.743  24.170  53.184  1.00  0.00     0.026 A 
HETATM   31  C   UNL     1       7.120  24.227  53.000  1.00  0.00     0.034 A 
HETATM   32 CL   UNL     1       8.139  23.073  53.765  1.00  0.00    -0.084 Cl
HETATM   33  C   UNL     1       7.671  25.214  52.195  1.00  0.00     0.026 A 
HETATM   34  C   UNL     1       6.837  26.143  51.562  1.00  0.00     0.031 A 
ENDBRANCH   2  28
TORSDOF 6
ENDMDL
MODEL 9
REMARK VINA RESULT:      -8.4      4.996      9.836
REMARK  6 active torsions:
REMARK  status: ('A' for Active; 'I' for Inactive)
REMARK    1  A    between atoms: O_2  and  C_3 
REMARK    2  A    between atoms: C_6  and  C_7 
REMARK    3  A    between atoms: C_7  and  N_8 
REMARK       I    between atoms: N_8  and  C_9 
REMARK    4  A    between atoms: C_9  and  C_10 
REMARK    5  A    between atoms: C_10  and  O_11 
REMARK    6  A    between atoms: N_12  and  C_13 
ROOT
HETATM    1  C   UNL     1       5.748  28.467  56.577  1.00  0.00     0.256 C 
HETATM    2  N   UNL     1       4.866  29.370  55.811  1.00  0.00    -0.254 N 
HETATM    3  C   UNL     1       4.083  28.866  54.780  1.00  0.00     0.330 C 
HETATM    4  O   UNL     1       3.137  29.447  54.246  1.00  0.00    -0.246 OA
HETATM    5  N   UNL     1       4.410  27.644  54.275  1.00  0.00    -0.308 N 
HETATM    6  C   UNL     1       5.471  26.856  54.687  1.00  0.00     0.048 A 
HETATM    7  C   UNL     1       6.202  27.244  55.801  1.00  0.00     0.034 A 
HETATM    8  C   UNL     1       5.779  25.693  53.978  1.00  0.00     0.030 A 
HETATM    9  C   UNL     1       6.857  24.906  54.378  1.00  0.00     0.002 A 
HETATM   10  C   UNL     1       7.606  25.275  55.491  1.00  0.00     0.001 A 
HETATM   11  C   UNL     1       7.274  26.428  56.208  1.00  0.00     0.015 A 
HETATM   12  H   UNL     1       3.828  27.347  53.504  1.00  0.00     0.170 HD
ENDROOT
BRANCH   1  13
HETATM   13  C   UNL     1       7.027  29.251  57.095  1.00  0.00     0.279 C 
HETATM   14  N   UNL     1       7.101  29.503  58.449  1.00  0.00    -0.352 N 
HETATM   15  H   UNL     1       6.356  29.168  59.050  1.00  0.00     0.162 HD
HETATM   16  O   UNL     1       7.881  29.638  56.290  1.00  0.00    -0.268 OA
BRANCH  14  17
HETATM   17  C   UNL     1       8.304  30.010  59.068  1.00  0.00     0.161 C 
BRANCH  17  18
HETATM   18  C   UNL     1       8.038  31.003  60.169  1.00  0.00    -0.040 A 
HETATM   19  C   UNL     1       7.025  31.961  60.040  1.00  0.00     0.011 A 
HETATM   20  C   UNL     1       6.720  32.818  61.102  1.00  0.00     0.037 A 
HETATM   21  C   UNL     1       7.417  32.733  62.309  1.00  0.00     0.068 A 
HETATM   22  C   UNL     1       8.449  31.807  62.435  1.00  0.00     0.037 A 
HETATM   23  C   UNL     1       8.752  30.946  61.373  1.00  0.00     0.011 A 
BRANCH  21  24
HETATM   24  O   UNL     1       6.999  33.602  63.280  1.00  0.00    -0.356 OA
HETATM   25  C   UNL     1       7.496  33.366  64.593  1.00  0.00     0.210 C 
ENDBRANCH  21  24
ENDBRANCH  17  18
ENDBRANCH  14  17
ENDBRANCH   1  13
BRANCH   1  26
HETATM   26  O   UNL     1       4.999  27.958  57.684  1.00  0.00    -0.359 OA
HETATM   27  H   UNL     1       5.670  27.692  58.340  1.00  0.00     0.213 HD
ENDBRANCH   1  26
BRANCH   2  28
HETATM   28  C   UNL     1       4.625  30.718  56.276  1.00  0.00     0.043 A 
HETATM   29  C   UNL     1       3.971  30.994  57.487  1.00  0.00     0.031 A 
HETATM   30  C   UNL     1       3.816  32.308  57.948  1.00  0.00     0.026 A 
HETATM   31  C   UNL     1       4.307  33.371  57.198  1.00  0.00     0.034 A 
HETATM   32 CL   UNL     1       4.127  34.982  57.769  1.00  0.00    -0.084 Cl
HETATM   33  C   UNL     1       4.945  33.129  55.988  1.00  0.00     0.026 A 
HETATM   34  C   UNL     1       5.101  31.815  55.534  1.00  0.00     0.031 A 
ENDBRANCH   2  28
TORSDOF 6
ENDMDL
MODEL 10
REMARK VINA RESULT:      -8.4      3.234      7.095
REMARK  6 active torsions:
REMARK  status: ('A' for Active; 'I' for Inactive)
REMARK    1  A    between atoms: O_2  and  C_3 
REMARK    2  A    between atoms: C_6  and  C_7 
REMARK    3  A    between atoms: C_7  and  N_8 
REMARK       I    between atoms: N_8  and  C_9 
REMARK    4  A    between atoms: C_9  and  C_10 
REMARK    5  A    between atoms: C_10  and  O_11 
REMARK    6  A    between atoms: N_12  and  C_13 
ROOT
HETATM    1  C   UNL     1       5.151  28.416  51.796  1.00  0.00     0.256 C 
HETATM    2  N   UNL     1       5.914  27.310  52.408  1.00  0.00    -0.254 N 
HETATM    3  C   UNL     1       6.286  26.215  51.638  1.00  0.00     0.330 C 
HETATM    4  O   UNL     1       7.124  25.368  51.952  1.00  0.00    -0.246 OA
HETATM    5  N   UNL     1       5.643  26.024  50.454  1.00  0.00    -0.308 N 
HETATM    6  C   UNL     1       4.629  26.818  49.946  1.00  0.00     0.048 A 
HETATM    7  C   UNL     1       4.310  27.999  50.603  1.00  0.00     0.034 A 
HETATM    8  C   UNL     1       3.955  26.418  48.790  1.00  0.00     0.030 A 
HETATM    9  C   UNL     1       2.922  27.206  48.286  1.00  0.00     0.002 A 
HETATM   10  C   UNL     1       2.583  28.393  48.928  1.00  0.00     0.001 A 
HETATM   11  C   UNL     1       3.280  28.797  50.071  1.00  0.00     0.015 A 
HETATM   12  H   UNL     1       5.931  25.192  49.957  1.00  0.00     0.170 HD
ENDROOT
BRANCH   1  13
HETATM   13  C   UNL     1       4.208  29.100  52.874  1.00  0.00     0.279 C 
HETATM   14  N   UNL     1       4.600  30.332  53.356  1.00  0.00    -0.352 N 
HETATM   15  H   UNL     1       5.450  30.750  52.996  1.00  0.00     0.162 HD
HETATM   16  O   UNL     1       3.196  28.512  53.272  1.00  0.00    -0.268 OA
BRANCH  14  17
HETATM   17  C   UNL     1       3.727  31.148  54.169  1.00  0.00     0.161 C 
BRANCH  17  18
HETATM   18  C   UNL     1       4.295  31.458  55.530  1.00  0.00    -0.040 A 
HETATM   19  C   UNL     1       4.877  30.452  56.310  1.00  0.00     0.011 A 
HETATM   20  C   UNL     1       5.485  30.762  57.529  1.00  0.00     0.037 A 
HETATM   21  C   UNL     1       5.526  32.080  57.990  1.00  0.00     0.068 A 
HETATM   22  C   UNL     1       4.920  33.083  57.238  1.00  0.00     0.037 A 
HETATM   23  C   UNL     1       4.314  32.773  56.015  1.00  0.00     0.011 A 
BRANCH  21  24
HETATM   24  O   UNL     1       6.180  32.257  59.179  1.00  0.00    -0.356 OA
HETATM   25  C   UNL     1       7.476  31.674  59.278  1.00  0.00     0.210 C 
ENDBRANCH  21  24
ENDBRANCH  17  18
ENDBRANCH  14  17
ENDBRANCH   1  13
BRANCH   1  26
HETATM   26  O   UNL     1       6.089  29.366  51.286  1.00  0.00    -0.359 OA
HETATM   27  H   UNL     1       6.958  28.929  51.363  1.00  0.00     0.213 HD
ENDBRANCH   1  26
BRANCH   2  28
HETATM   28  C   UNL     1       6.485  27.463  53.727  1.00  0.00     0.043 A 
HETATM   29  C   UNL     1       7.604  28.274  53.977  1.00  0.00     0.031 A 
HETATM   30  C   UNL     1       8.091  28.461  55.277  1.00  0.00     0.026 A 
HETATM   31  C   UNL     1       7.471  27.832  56.350  1.00  0.00     0.034 A 
HETATM   32 CL   UNL     1       8.062  28.071  57.946  1.00  0.00    -0.084 Cl
HETATM   33  C   UNL     1       6.372  27.012  56.132  1.00  0.00     0.026 A 
HETATM   34  C   UNL     1       5.886  26.831  54.832  1.00  0.00     0.031 A 
ENDBRANCH   2  28
TORSDOF 6
ENDMDL
