MODEL 1
REMARK VINA RESULT:      -9.5      0.000      0.000
REMARK  6 active torsions:
REMARK  status: ('A' for Active; 'I' for Inactive)
REMARK    1  A    between atoms: C_3  and  O_4 
REMARK    2  A    between atoms: C_6  and  C_7 
REMARK    3  A    between atoms: C_7  and  C_8 
REMARK    4  A    between atoms: C_8  and  N_9 
REMARK       I    between atoms: N_9  and  C_10 
REMARK    5  A    between atoms: C_10  and  C_11 
REMARK    6  A    between atoms: C_13  and  C_14 
ROOT
HETATM    1  N   UNL     1       6.874  27.104  55.901  1.00  0.00    -0.357 N 
HETATM    2  C   UNL     1       7.238  27.081  54.568  1.00  0.00     0.251 C 
HETATM    3  O   UNL     1       7.330  28.091  53.880  1.00  0.00    -0.268 OA
HETATM    4  H   UNL     1       6.532  26.246  56.313  1.00  0.00     0.162 HD
ENDROOT
BRANCH   2   5
HETATM    5  C   UNL     1       7.492  25.744  53.961  1.00  0.00     0.032 A 
HETATM    6  C   UNL     1       7.637  24.646  54.824  1.00  0.00     0.029 A 
HETATM    7  C   UNL     1       7.857  23.357  54.318  1.00  0.00    -0.023 A 
HETATM    8  C   UNL     1       7.923  23.184  52.929  1.00  0.00     0.012 A 
HETATM    9  C   UNL     1       7.769  24.270  52.064  1.00  0.00     0.002 A 
HETATM   10  C   UNL     1       7.548  25.549  52.577  1.00  0.00     0.017 A 
BRANCH   7  11
HETATM   11  C   UNL     1       7.995  22.212  55.206  1.00  0.00    -0.002 A 
HETATM   12  C   UNL     1       8.373  22.288  56.532  1.00  0.00     0.153 A 
HETATM   13  O   UNL     1       8.415  21.052  57.096  1.00  0.00    -0.334 OA
HETATM   14  C   UNL     1       8.060  20.168  56.130  1.00  0.00     0.142 A 
HETATM   15  C   UNL     1       7.798  20.825  54.951  1.00  0.00     0.038 A 
ENDBRANCH   7  11
ENDBRANCH   2   5
BRANCH   1  16
HETATM   16  C   UNL     1       6.476  28.355  56.524  1.00  0.00     0.127 C 
BRANCH  16  17
HETATM   17  C   UNL     1       7.164  28.568  57.871  1.00  0.00     0.058 C 
BRANCH  17  18
HETATM   18  C   UNL     1       8.477  29.291  57.714  1.00  0.00    -0.054 A 
HETATM   19  C   UNL     1       8.687  30.522  58.351  1.00  0.00     0.043 A 
HETATM   20  C   UNL     1       9.915  31.167  58.235  1.00  0.00     0.066 A 
HETATM   21  C   UNL     1      10.950  30.605  57.494  1.00  0.00     0.036 A 
HETATM   22  C   UNL     1      10.749  29.379  56.860  1.00  0.00     0.003 A 
HETATM   23  C   UNL     1       9.521  28.724  56.970  1.00  0.00     0.007 A 
BRANCH  20  24
HETATM   24  O   UNL     1      10.067  32.360  58.877  1.00  0.00    -0.361 OA
HETATM   25  H   UNL     1      10.404  32.188  59.772  1.00  0.00     0.217 HD
ENDBRANCH  20  24
ENDBRANCH  17  18
ENDBRANCH  16  17
ENDBRANCH   1  16
TORSDOF 6
ENDMDL
MODEL 2
REMARK VINA RESULT:      -9.5      1.322      1.476
REMARK  6 active torsions:
REMARK  status: ('A' for Active; 'I' for Inactive)
REMARK    1  A    between atoms: C_3  and  O_4 
REMARK    2  A    between atoms: C_6  and  C_7 
REMARK    3  A    between atoms: C_7  and  C_8 
REMARK    4  A    between atoms: C_8  and  N_9 
REMARK       I    between atoms: N_9  and  C_10 
REMARK    5  A    between atoms: C_10  and  C_11 
REMARK    6  A    between atoms: C_13  and  C_14 
ROOT
HETATM    1  N   UNL     1       6.817  27.597  55.488  1.00  0.00    -0.357 N 
HETATM    2  C   UNL     1       6.339  26.303  55.413  1.00  0.00     0.251 C 
HETATM    3  O   UNL     1       5.505  25.849  56.188  1.00  0.00    -0.268 OA
HETATM    4  H   UNL     1       7.693  27.805  55.029  1.00  0.00     0.162 HD
ENDROOT
BRANCH   2   5
HETATM    5  C   UNL     1       6.911  25.433  54.347  1.00  0.00     0.032 A 
HETATM    6  C   UNL     1       7.254  24.114  54.686  1.00  0.00     0.029 A 
HETATM    7  C   UNL     1       7.777  23.238  53.726  1.00  0.00    -0.023 A 
HETATM    8  C   UNL     1       7.946  23.701  52.414  1.00  0.00     0.012 A 
HETATM    9  C   UNL     1       7.596  25.009  52.067  1.00  0.00     0.002 A 
HETATM   10  C   UNL     1       7.073  25.874  53.029  1.00  0.00     0.017 A 
BRANCH   7  11
HETATM   11  C   UNL     1       8.124  21.866  54.066  1.00  0.00    -0.002 A 
HETATM   12  C   UNL     1       8.389  20.871  53.146  1.00  0.00     0.153 A 
HETATM   13  O   UNL     1       8.679  19.698  53.769  1.00  0.00    -0.334 OA
HETATM   14  C   UNL     1       8.603  19.933  55.102  1.00  0.00     0.142 A 
HETATM   15  C   UNL     1       8.260  21.243  55.340  1.00  0.00     0.038 A 
ENDBRANCH   7  11
ENDBRANCH   2   5
BRANCH   1  16
HETATM   16  C   UNL     1       6.411  28.459  56.585  1.00  0.00     0.127 C 
BRANCH  16  17
HETATM   17  C   UNL     1       7.316  28.298  57.805  1.00  0.00     0.058 C 
BRANCH  17  18
HETATM   18  C   UNL     1       8.503  29.225  57.741  1.00  0.00    -0.054 A 
HETATM   19  C   UNL     1       8.493  30.435  58.448  1.00  0.00     0.043 A 
HETATM   20  C   UNL     1       9.607  31.269  58.418  1.00  0.00     0.066 A 
HETATM   21  C   UNL     1      10.742  30.919  57.694  1.00  0.00     0.036 A 
HETATM   22  C   UNL     1      10.760  29.715  56.990  1.00  0.00     0.003 A 
HETATM   23  C   UNL     1       9.648  28.871  57.015  1.00  0.00     0.007 A 
BRANCH  20  24
HETATM   24  O   UNL     1       9.547  32.433  59.126  1.00  0.00    -0.361 OA
HETATM   25  H   UNL     1       9.691  32.231  60.065  1.00  0.00     0.217 HD
ENDBRANCH  20  24
ENDBRANCH  17  18
ENDBRANCH  16  17
ENDBRANCH   1  16
TORSDOF 6
ENDMDL
MODEL 3
REMARK VINA RESULT:      -9.1      1.966      8.674
REMARK  6 active torsions:
REMARK  status: ('A' for Active; 'I' for Inactive)
REMARK    1  A    between atoms: C_3  and  O_4 
REMARK    2  A    between atoms: C_6  and  C_7 
REMARK    3  A    between atoms: C_7  and  C_8 
REMARK    4  A    between atoms: C_8  and  N_9 
REMARK       I    between atoms: N_9  and  C_10 
REMARK    5  A    between atoms: C_10  and  C_11 
REMARK    6  A    between atoms: C_13  and  C_14 
ROOT
HETATM    1  N   UNL     1       8.366  26.247  57.151  1.00  0.00    -0.357 N 
HETATM    2  C   UNL     1       7.825  27.496  56.915  1.00  0.00     0.251 C 
HETATM    3  O   UNL     1       6.731  27.666  56.389  1.00  0.00    -0.268 OA
HETATM    4  H   UNL     1       9.364  26.184  57.301  1.00  0.00     0.162 HD
ENDROOT
BRANCH   2   5
HETATM    5  C   UNL     1       8.652  28.674  57.303  1.00  0.00     0.032 A 
HETATM    6  C   UNL     1       8.308  29.363  58.477  1.00  0.00     0.029 A 
HETATM    7  C   UNL     1       9.057  30.466  58.909  1.00  0.00    -0.023 A 
HETATM    8  C   UNL     1      10.164  30.865  58.149  1.00  0.00     0.012 A 
HETATM    9  C   UNL     1      10.520  30.177  56.986  1.00  0.00     0.002 A 
HETATM   10  C   UNL     1       9.769  29.079  56.565  1.00  0.00     0.017 A 
BRANCH   7  11
HETATM   11  C   UNL     1       8.714  31.178  60.131  1.00  0.00    -0.002 A 
HETATM   12  C   UNL     1       7.818  32.227  60.204  1.00  0.00     0.153 A 
HETATM   13  O   UNL     1       7.711  32.686  61.479  1.00  0.00    -0.334 OA
HETATM   14  C   UNL     1       8.540  31.929  62.240  1.00  0.00     0.142 A 
HETATM   15  C   UNL     1       9.183  30.994  61.463  1.00  0.00     0.038 A 
ENDBRANCH   7  11
ENDBRANCH   2   5
BRANCH   1  16
HETATM   16  C   UNL     1       7.681  25.057  56.674  1.00  0.00     0.127 C 
BRANCH  16  17
HETATM   17  C   UNL     1       8.565  23.814  56.760  1.00  0.00     0.058 C 
BRANCH  17  18
HETATM   18  C   UNL     1       8.440  22.958  55.526  1.00  0.00    -0.054 A 
HETATM   19  C   UNL     1       8.782  21.599  55.571  1.00  0.00     0.043 A 
HETATM   20  C   UNL     1       8.627  20.804  54.439  1.00  0.00     0.066 A 
HETATM   21  C   UNL     1       8.133  21.337  53.253  1.00  0.00     0.036 A 
HETATM   22  C   UNL     1       7.790  22.688  53.201  1.00  0.00     0.003 A 
HETATM   23  C   UNL     1       7.940  23.494  54.332  1.00  0.00     0.007 A 
BRANCH  20  24
HETATM   24  O   UNL     1       8.971  19.488  54.538  1.00  0.00    -0.361 OA
HETATM   25  H   UNL     1       9.255  19.176  53.663  1.00  0.00     0.217 HD
ENDBRANCH  20  24
ENDBRANCH  17  18
ENDBRANCH  16  17
ENDBRANCH   1  16
TORSDOF 6
ENDMDL
MODEL 4
REMARK VINA RESULT:      -8.8      4.433      7.846
REMARK  6 active torsions:
REMARK  status: ('A' for Active; 'I' for Inactive)
REMARK    1  A    between atoms: C_3  and  O_4 
REMARK    2  A    between atoms: C_6  and  C_7 
REMARK    3  A    between atoms: C_7  and  C_8 
REMARK    4  A    between atoms: C_8  and  N_9 
REMARK       I    between atoms: N_9  and  C_10 
REMARK    5  A    between atoms: C_10  and  C_11 
REMARK    6  A    between atoms: C_13  and  C_14 
ROOT
HETATM    1  N   UNL     1       5.120  26.145  52.320  1.00  0.00    -0.357 N 
HETATM    2  C   UNL     1       5.797  26.602  53.435  1.00  0.00     0.251 C 
HETATM    3  O   UNL     1       6.025  27.788  53.643  1.00  0.00    -0.268 OA
HETATM    4  H   UNL     1       5.230  25.173  52.066  1.00  0.00     0.162 HD
ENDROOT
BRANCH   2   5
HETATM    5  C   UNL     1       6.289  25.573  54.394  1.00  0.00     0.032 A 
HETATM    6  C   UNL     1       6.738  24.349  53.873  1.00  0.00     0.029 A 
HETATM    7  C   UNL     1       7.232  23.346  54.718  1.00  0.00    -0.023 A 
HETATM    8  C   UNL     1       7.277  23.591  56.097  1.00  0.00     0.012 A 
HETATM    9  C   UNL     1       6.843  24.811  56.621  1.00  0.00     0.002 A 
HETATM   10  C   UNL     1       6.354  25.805  55.772  1.00  0.00     0.017 A 
BRANCH   7  11
HETATM   11  C   UNL     1       7.711  22.079  54.184  1.00  0.00    -0.002 A 
HETATM   12  C   UNL     1       7.975  20.956  54.944  1.00  0.00     0.153 A 
HETATM   13  O   UNL     1       8.410  19.933  54.163  1.00  0.00    -0.334 OA
HETATM   14  C   UNL     1       8.428  20.393  52.887  1.00  0.00     0.142 A 
HETATM   15  C   UNL     1       8.015  21.704  52.845  1.00  0.00     0.038 A 
ENDBRANCH   7  11
ENDBRANCH   2   5
BRANCH   1  16
HETATM   16  C   UNL     1       4.733  27.076  51.274  1.00  0.00     0.127 C 
BRANCH  16  17
HETATM   17  C   UNL     1       5.081  26.550  49.882  1.00  0.00     0.058 C 
BRANCH  17  18
HETATM   18  C   UNL     1       3.922  26.694  48.929  1.00  0.00    -0.054 A 
HETATM   19  C   UNL     1       3.782  25.811  47.849  1.00  0.00     0.043 A 
HETATM   20  C   UNL     1       2.688  25.923  46.995  1.00  0.00     0.066 A 
HETATM   21  C   UNL     1       1.721  26.902  47.196  1.00  0.00     0.036 A 
HETATM   22  C   UNL     1       1.853  27.782  48.271  1.00  0.00     0.003 A 
HETATM   23  C   UNL     1       2.945  27.677  49.134  1.00  0.00     0.007 A 
BRANCH  20  24
HETATM   24  O   UNL     1       2.599  25.037  45.962  1.00  0.00    -0.361 OA
HETATM   25  H   UNL     1       3.486  24.688  45.776  1.00  0.00     0.217 HD
ENDBRANCH  20  24
ENDBRANCH  17  18
ENDBRANCH  16  17
ENDBRANCH   1  16
TORSDOF 6
ENDMDL
MODEL 5
REMARK VINA RESULT:      -8.7      1.534      7.801
REMARK  6 active torsions:
REMARK  status: ('A' for Active; 'I' for Inactive)
REMARK    1  A    between atoms: C_3  and  O_4 
REMARK    2  A    between atoms: C_6  and  C_7 
REMARK    3  A    between atoms: C_7  and  C_8 
REMARK    4  A    between atoms: C_8  and  N_9 
REMARK       I    between atoms: N_9  and  C_10 
REMARK    5  A    between atoms: C_10  and  C_11 
REMARK    6  A    between atoms: C_13  and  C_14 
ROOT
HETATM    1  N   UNL     1       6.425  25.803  54.384  1.00  0.00    -0.357 N 
HETATM    2  C   UNL     1       6.144  25.854  55.736  1.00  0.00     0.251 C 
HETATM    3  O   UNL     1       5.807  24.875  56.391  1.00  0.00    -0.268 OA
HETATM    4  H   UNL     1       6.399  26.668  53.862  1.00  0.00     0.162 HD
ENDROOT
BRANCH   2   5
HETATM    5  C   UNL     1       6.234  27.190  56.393  1.00  0.00     0.032 A 
HETATM    6  C   UNL     1       7.510  27.745  56.585  1.00  0.00     0.029 A 
HETATM    7  C   UNL     1       7.663  29.006  57.177  1.00  0.00    -0.023 A 
HETATM    8  C   UNL     1       6.516  29.708  57.570  1.00  0.00     0.012 A 
HETATM    9  C   UNL     1       5.243  29.166  57.371  1.00  0.00     0.002 A 
HETATM   10  C   UNL     1       5.100  27.911  56.778  1.00  0.00     0.017 A 
BRANCH   7  11
HETATM   11  C   UNL     1       8.981  29.593  57.368  1.00  0.00    -0.002 A 
HETATM   12  C   UNL     1       9.241  30.701  58.150  1.00  0.00     0.153 A 
HETATM   13  O   UNL     1      10.564  31.011  58.129  1.00  0.00    -0.334 OA
HETATM   14  C   UNL     1      11.168  30.097  57.328  1.00  0.00     0.142 A 
HETATM   15  C   UNL     1      10.243  29.210  56.831  1.00  0.00     0.038 A 
ENDBRANCH   7  11
ENDBRANCH   2   5
BRANCH   1  16
HETATM   16  C   UNL     1       6.223  24.566  53.648  1.00  0.00     0.127 C 
BRANCH  16  17
HETATM   17  C   UNL     1       7.534  24.011  53.092  1.00  0.00     0.058 C 
BRANCH  17  18
HETATM   18  C   UNL     1       7.879  22.681  53.712  1.00  0.00    -0.054 A 
HETATM   19  C   UNL     1       8.008  22.563  55.103  1.00  0.00     0.043 A 
HETATM   20  C   UNL     1       8.288  21.325  55.675  1.00  0.00     0.066 A 
HETATM   21  C   UNL     1       8.442  20.191  54.884  1.00  0.00     0.036 A 
HETATM   22  C   UNL     1       8.314  20.301  53.499  1.00  0.00     0.003 A 
HETATM   23  C   UNL     1       8.032  21.539  52.916  1.00  0.00     0.007 A 
BRANCH  20  24
HETATM   24  O   UNL     1       8.399  21.264  57.033  1.00  0.00    -0.361 OA
HETATM   25  H   UNL     1       8.770  20.400  57.274  1.00  0.00     0.217 HD
ENDBRANCH  20  24
ENDBRANCH  17  18
ENDBRANCH  16  17
ENDBRANCH   1  16
TORSDOF 6
ENDMDL
MODEL 6
REMARK VINA RESULT:      -8.5      1.797      8.432
REMARK  6 active torsions:
REMARK  status: ('A' for Active; 'I' for Inactive)
REMARK    1  A    between atoms: C_3  and  O_4 
REMARK    2  A    between atoms: C_6  and  C_7 
REMARK    3  A    between atoms: C_7  and  C_8 
REMARK    4  A    between atoms: C_8  and  N_9 
REMARK       I    between atoms: N_9  and  C_10 
REMARK    5  A    between atoms: C_10  and  C_11 
REMARK    6  A    between atoms: C_13  and  C_14 
ROOT
HETATM    1  N   UNL     1       8.181  25.696  57.349  1.00  0.00    -0.357 N 
HETATM    2  C   UNL     1       7.530  26.494  56.427  1.00  0.00     0.251 C 
HETATM    3  O   UNL     1       7.450  26.218  55.236  1.00  0.00    -0.268 OA
HETATM    4  H   UNL     1       8.463  26.117  58.223  1.00  0.00     0.162 HD
ENDROOT
BRANCH   2   5
HETATM    5  C   UNL     1       6.936  27.764  56.936  1.00  0.00     0.032 A 
HETATM    6  C   UNL     1       7.792  28.691  57.551  1.00  0.00     0.029 A 
HETATM    7  C   UNL     1       7.302  29.913  58.033  1.00  0.00    -0.023 A 
HETATM    8  C   UNL     1       5.937  30.195  57.881  1.00  0.00     0.012 A 
HETATM    9  C   UNL     1       5.082  29.282  57.259  1.00  0.00     0.002 A 
HETATM   10  C   UNL     1       5.580  28.069  56.781  1.00  0.00     0.017 A 
BRANCH   7  11
HETATM   11  C   UNL     1       8.185  30.884  58.661  1.00  0.00    -0.002 A 
HETATM   12  C   UNL     1       7.758  31.987  59.374  1.00  0.00     0.153 A 
HETATM   13  O   UNL     1       8.815  32.706  59.835  1.00  0.00    -0.334 OA
HETATM   14  C   UNL     1       9.936  32.065  59.420  1.00  0.00     0.142 A 
HETATM   15  C   UNL     1       9.607  30.947  58.691  1.00  0.00     0.038 A 
ENDBRANCH   7  11
ENDBRANCH   2   5
BRANCH   1  16
HETATM   16  C   UNL     1       8.903  24.516  56.905  1.00  0.00     0.127 C 
BRANCH  16  17
HETATM   17  C   UNL     1       8.027  23.264  56.932  1.00  0.00     0.058 C 
BRANCH  17  18
HETATM   18  C   UNL     1       8.142  22.480  55.649  1.00  0.00    -0.054 A 
HETATM   19  C   UNL     1       8.617  21.162  55.667  1.00  0.00     0.043 A 
HETATM   20  C   UNL     1       8.684  20.428  54.487  1.00  0.00     0.066 A 
HETATM   21  C   UNL     1       8.281  20.984  53.277  1.00  0.00     0.036 A 
HETATM   22  C   UNL     1       7.805  22.295  53.251  1.00  0.00     0.003 A 
HETATM   23  C   UNL     1       7.733  23.039  54.431  1.00  0.00     0.007 A 
BRANCH  20  24
HETATM   24  O   UNL     1       9.150  19.149  54.561  1.00  0.00    -0.361 OA
HETATM   25  H   UNL     1       9.997  19.156  55.036  1.00  0.00     0.217 HD
ENDBRANCH  20  24
ENDBRANCH  17  18
ENDBRANCH  16  17
ENDBRANCH   1  16
TORSDOF 6
ENDMDL
MODEL 7
REMARK VINA RESULT:      -8.5      4.358      9.731
REMARK  6 active torsions:
REMARK  status: ('A' for Active; 'I' for Inactive)
REMARK    1  A    between atoms: C_3  and  O_4 
REMARK    2  A    between atoms: C_6  and  C_7 
REMARK    3  A    between atoms: C_7  and  C_8 
REMARK    4  A    between atoms: C_8  and  N_9 
REMARK       I    between atoms: N_9  and  C_10 
REMARK    5  A    between atoms: C_10  and  C_11 
REMARK    6  A    between atoms: C_13  and  C_14 
ROOT
HETATM    1  N   UNL     1       6.731  30.348  58.288  1.00  0.00    -0.357 N 
HETATM    2  C   UNL     1       6.766  31.634  58.795  1.00  0.00     0.251 C 
HETATM    3  O   UNL     1       6.250  32.592  58.232  1.00  0.00    -0.268 OA
HETATM    4  H   UNL     1       7.411  29.686  58.633  1.00  0.00     0.162 HD
ENDROOT
BRANCH   2   5
HETATM    5  C   UNL     1       7.503  31.834  60.075  1.00  0.00     0.032 A 
HETATM    6  C   UNL     1       6.771  32.251  61.198  1.00  0.00     0.029 A 
HETATM    7  C   UNL     1       7.399  32.437  62.437  1.00  0.00    -0.023 A 
HETATM    8  C   UNL     1       8.775  32.193  62.536  1.00  0.00     0.012 A 
HETATM    9  C   UNL     1       9.508  31.767  61.425  1.00  0.00     0.002 A 
HETATM   10  C   UNL     1       8.873  31.581  60.196  1.00  0.00     0.017 A 
BRANCH   7  11
HETATM   11  C   UNL     1       6.645  32.857  63.609  1.00  0.00    -0.002 A 
HETATM   12  C   UNL     1       5.293  32.641  63.792  1.00  0.00     0.153 A 
HETATM   13  O   UNL     1       4.876  33.150  64.981  1.00  0.00    -0.334 OA
HETATM   14  C   UNL     1       5.965  33.699  65.576  1.00  0.00     0.142 A 
HETATM   15  C   UNL     1       7.073  33.553  64.775  1.00  0.00     0.038 A 
ENDBRANCH   7  11
ENDBRANCH   2   5
BRANCH   1  16
HETATM   16  C   UNL     1       6.153  30.100  56.978  1.00  0.00     0.127 C 
BRANCH  16  17
HETATM   17  C   UNL     1       7.044  29.205  56.119  1.00  0.00     0.058 C 
BRANCH  17  18
HETATM   18  C   UNL     1       6.826  27.746  56.427  1.00  0.00    -0.054 A 
HETATM   19  C   UNL     1       7.707  27.064  57.278  1.00  0.00     0.043 A 
HETATM   20  C   UNL     1       7.479  25.727  57.591  1.00  0.00     0.066 A 
HETATM   21  C   UNL     1       6.380  25.049  57.073  1.00  0.00     0.036 A 
HETATM   22  C   UNL     1       5.498  25.722  56.227  1.00  0.00     0.003 A 
HETATM   23  C   UNL     1       5.718  27.063  55.907  1.00  0.00     0.007 A 
BRANCH  20  24
HETATM   24  O   UNL     1       8.364  25.112  58.427  1.00  0.00    -0.361 OA
HETATM   25  H   UNL     1       9.252  25.462  58.247  1.00  0.00     0.217 HD
ENDBRANCH  20  24
ENDBRANCH  17  18
ENDBRANCH  16  17
ENDBRANCH   1  16
TORSDOF 6
ENDMDL
MODEL 8
REMARK VINA RESULT:      -8.4      4.286      8.302
REMARK  6 active torsions:
REMARK  status: ('A' for Active; 'I' for Inactive)
REMARK    1  A    between atoms: C_3  and  O_4 
REMARK    2  A    between atoms: C_6  and  C_7 
REMARK    3  A    between atoms: C_7  and  C_8 
REMARK    4  A    between atoms: C_8  and  N_9 
REMARK       I    between atoms: N_9  and  C_10 
REMARK    5  A    between atoms: C_10  and  C_11 
REMARK    6  A    between atoms: C_13  and  C_14 
ROOT
HETATM    1  N   UNL     1       5.921  25.682  53.006  1.00  0.00    -0.357 N 
HETATM    2  C   UNL     1       6.123  27.045  52.902  1.00  0.00     0.251 C 
HETATM    3  O   UNL     1       6.700  27.706  53.757  1.00  0.00    -0.268 OA
HETATM    4  H   UNL     1       5.199  25.266  52.435  1.00  0.00     0.162 HD
ENDROOT
BRANCH   2   5
HETATM    5  C   UNL     1       5.570  27.718  51.692  1.00  0.00     0.032 A 
HETATM    6  C   UNL     1       4.980  26.914  50.703  1.00  0.00     0.029 A 
HETATM    7  C   UNL     1       4.423  27.485  49.551  1.00  0.00    -0.023 A 
HETATM    8  C   UNL     1       4.458  28.879  49.407  1.00  0.00     0.012 A 
HETATM    9  C   UNL     1       5.033  29.685  50.393  1.00  0.00     0.002 A 
HETATM   10  C   UNL     1       5.584  29.108  51.537  1.00  0.00     0.017 A 
BRANCH   7  11
HETATM   11  C   UNL     1       3.799  26.660  48.527  1.00  0.00    -0.002 A 
HETATM   12  C   UNL     1       3.366  27.123  47.300  1.00  0.00     0.153 A 
HETATM   13  O   UNL     1       2.825  26.117  46.564  1.00  0.00    -0.334 OA
HETATM   14  C   UNL     1       2.909  24.992  47.317  1.00  0.00     0.142 A 
HETATM   15  C   UNL     1       3.491  25.269  48.531  1.00  0.00     0.038 A 
ENDBRANCH   7  11
ENDBRANCH   2   5
BRANCH   1  16
HETATM   16  C   UNL     1       6.308  24.981  54.219  1.00  0.00     0.127 C 
BRANCH  16  17
HETATM   17  C   UNL     1       7.750  24.481  54.156  1.00  0.00     0.058 C 
BRANCH  17  18
HETATM   18  C   UNL     1       7.832  22.996  54.403  1.00  0.00    -0.054 A 
HETATM   19  C   UNL     1       7.981  22.108  53.328  1.00  0.00     0.043 A 
HETATM   20  C   UNL     1       8.096  20.741  53.563  1.00  0.00     0.066 A 
HETATM   21  C   UNL     1       8.069  20.234  54.859  1.00  0.00     0.036 A 
HETATM   22  C   UNL     1       7.923  21.112  55.933  1.00  0.00     0.003 A 
HETATM   23  C   UNL     1       7.808  22.485  55.707  1.00  0.00     0.007 A 
BRANCH  20  24
HETATM   24  O   UNL     1       8.242  19.922  52.483  1.00  0.00    -0.361 OA
HETATM   25  H   UNL     1       9.032  20.199  51.991  1.00  0.00     0.217 HD
ENDBRANCH  20  24
ENDBRANCH  17  18
ENDBRANCH  16  17
ENDBRANCH   1  16
TORSDOF 6
ENDMDL
MODEL 9
REMARK VINA RESULT:      -8.4      5.071      7.579
REMARK  6 active torsions:
REMARK  status: ('A' for Active; 'I' for Inactive)
REMARK    1  A    between atoms: C_3  and  O_4 
REMARK    2  A    between atoms: C_6  and  C_7 
REMARK    3  A    between atoms: C_7  and  C_8 
REMARK    4  A    between atoms: C_8  and  N_9 
REMARK       I    between atoms: N_9  and  C_10 
REMARK    5  A    between atoms: C_10  and  C_11 
REMARK    6  A    between atoms: C_13  and  C_14 
ROOT
HETATM    1  N   UNL     1       8.004  31.486  60.913  1.00  0.00    -0.357 N 
HETATM    2  C   UNL     1       7.864  31.676  59.551  1.00  0.00     0.251 C 
HETATM    3  O   UNL     1       7.080  32.479  59.061  1.00  0.00    -0.268 OA
HETATM    4  H   UNL     1       8.429  30.626  61.229  1.00  0.00     0.162 HD
ENDROOT
BRANCH   2   5
HETATM    5  C   UNL     1       8.700  30.820  58.662  1.00  0.00     0.032 A 
HETATM    6  C   UNL     1       8.131  29.638  58.160  1.00  0.00     0.029 A 
HETATM    7  C   UNL     1       8.856  28.799  57.302  1.00  0.00    -0.023 A 
HETATM    8  C   UNL     1      10.162  29.166  56.949  1.00  0.00     0.012 A 
HETATM    9  C   UNL     1      10.730  30.346  57.436  1.00  0.00     0.002 A 
HETATM   10  C   UNL     1      10.000  31.176  58.287  1.00  0.00     0.017 A 
BRANCH   7  11
HETATM   11  C   UNL     1       8.269  27.580  56.768  1.00  0.00    -0.002 A 
HETATM   12  C   UNL     1       7.617  27.488  55.554  1.00  0.00     0.153 A 
HETATM   13  O   UNL     1       7.177  26.222  55.333  1.00  0.00    -0.334 OA
HETATM   14  C   UNL     1       7.547  25.484  56.410  1.00  0.00     0.142 A 
HETATM   15  C   UNL     1       8.214  26.269  57.321  1.00  0.00     0.038 A 
ENDBRANCH   7  11
ENDBRANCH   2   5
BRANCH   1  16
HETATM   16  C   UNL     1       7.124  32.182  61.836  1.00  0.00     0.127 C 
BRANCH  16  17
HETATM   17  C   UNL     1       7.824  32.515  63.153  1.00  0.00     0.058 C 
BRANCH  17  18
HETATM   18  C   UNL     1       6.870  33.121  64.150  1.00  0.00    -0.054 A 
HETATM   19  C   UNL     1       5.498  33.179  63.870  1.00  0.00     0.043 A 
HETATM   20  C   UNL     1       4.615  33.703  64.810  1.00  0.00     0.066 A 
HETATM   21  C   UNL     1       5.073  34.171  66.037  1.00  0.00     0.036 A 
HETATM   22  C   UNL     1       6.437  34.114  66.324  1.00  0.00     0.003 A 
HETATM   23  C   UNL     1       7.331  33.590  65.388  1.00  0.00     0.007 A 
BRANCH  20  24
HETATM   24  O   UNL     1       3.291  33.733  64.487  1.00  0.00    -0.361 OA
HETATM   25  H   UNL     1       3.092  32.966  63.926  1.00  0.00     0.217 HD
ENDBRANCH  20  24
ENDBRANCH  17  18
ENDBRANCH  16  17
ENDBRANCH   1  16
TORSDOF 6
ENDMDL
MODEL 10
REMARK VINA RESULT:      -8.0      2.577      3.396
REMARK  6 active torsions:
REMARK  status: ('A' for Active; 'I' for Inactive)
REMARK    1  A    between atoms: C_3  and  O_4 
REMARK    2  A    between atoms: C_6  and  C_7 
REMARK    3  A    between atoms: C_7  and  C_8 
REMARK    4  A    between atoms: C_8  and  N_9 
REMARK       I    between atoms: N_9  and  C_10 
REMARK    5  A    between atoms: C_10  and  C_11 
REMARK    6  A    between atoms: C_13  and  C_14 
ROOT
HETATM    1  N   UNL     1       7.203  28.459  57.321  1.00  0.00    -0.357 N 
HETATM    2  C   UNL     1       7.505  27.119  57.172  1.00  0.00     0.251 C 
HETATM    3  O   UNL     1       8.283  26.520  57.905  1.00  0.00    -0.268 OA
HETATM    4  H   UNL     1       6.807  28.946  56.528  1.00  0.00     0.162 HD
ENDROOT
BRANCH   2   5
HETATM    5  C   UNL     1       6.862  26.406  56.031  1.00  0.00     0.032 A 
HETATM    6  C   UNL     1       7.356  25.137  55.686  1.00  0.00     0.029 A 
HETATM    7  C   UNL     1       6.784  24.404  54.637  1.00  0.00    -0.023 A 
HETATM    8  C   UNL     1       5.701  24.959  53.942  1.00  0.00     0.012 A 
HETATM    9  C   UNL     1       5.197  26.216  54.289  1.00  0.00     0.002 A 
HETATM   10  C   UNL     1       5.772  26.938  55.336  1.00  0.00     0.017 A 
BRANCH   7  11
HETATM   11  C   UNL     1       7.282  23.084  54.281  1.00  0.00    -0.002 A 
HETATM   12  C   UNL     1       7.482  22.052  55.176  1.00  0.00     0.153 A 
HETATM   13  O   UNL     1       7.956  20.946  54.545  1.00  0.00    -0.334 OA
HETATM   14  C   UNL     1       8.063  21.261  53.230  1.00  0.00     0.142 A 
HETATM   15  C   UNL     1       7.669  22.561  53.014  1.00  0.00     0.038 A 
ENDBRANCH   7  11
ENDBRANCH   2   5
BRANCH   1  16
HETATM   16  C   UNL     1       7.896  29.253  58.321  1.00  0.00     0.127 C 
BRANCH  16  17
HETATM   17  C   UNL     1       7.290  30.648  58.466  1.00  0.00     0.058 C 
BRANCH  17  18
HETATM   18  C   UNL     1       7.651  31.274  59.789  1.00  0.00    -0.054 A 
HETATM   19  C   UNL     1       6.756  32.144  60.427  1.00  0.00     0.043 A 
HETATM   20  C   UNL     1       7.077  32.689  61.667  1.00  0.00     0.066 A 
HETATM   21  C   UNL     1       8.280  32.381  62.293  1.00  0.00     0.036 A 
HETATM   22  C   UNL     1       9.175  31.515  61.665  1.00  0.00     0.003 A 
HETATM   23  C   UNL     1       8.862  30.962  60.421  1.00  0.00     0.007 A 
BRANCH  20  24
HETATM   24  O   UNL     1       6.169  33.526  62.245  1.00  0.00    -0.361 OA
HETATM   25  H   UNL     1       5.566  32.997  62.792  1.00  0.00     0.217 HD
ENDBRANCH  20  24
ENDBRANCH  17  18
ENDBRANCH  16  17
ENDBRANCH   1  16
TORSDOF 6
ENDMDL
