MODEL 1
REMARK VINA RESULT:     -10.9      0.000      0.000
REMARK  5 active torsions:
REMARK  status: ('A' for Active; 'I' for Inactive)
REMARK    1  A    between atoms: C_4  and  C_5 
REMARK    2  A    between atoms: C_6  and  N_7 
REMARK    3  A    between atoms: C_9  and  C_10 
REMARK       I    between atoms: C_10  and  N_11 
REMARK    4  A    between atoms: N_11  and  C_12 
REMARK    5  A    between atoms: C_12  and  C_13 
ROOT
HETATM    1  C   UNL     1       7.419  24.571  55.241  1.00  0.00     0.019 A 
HETATM    2  C   UNL     1       7.592  25.295  56.379  1.00  0.00     0.111 A 
HETATM    3  C   UNL     1       8.193  24.613  57.604  1.00  0.00     0.273 A 
HETATM    4  O   UNL     1       8.340  25.193  58.680  1.00  0.00    -0.266 OA
HETATM    5  N   UNL     1       8.560  23.305  57.491  1.00  0.00    -0.321 N 
HETATM    6  C   UNL     1       8.399  22.551  56.334  1.00  0.00     0.046 A 
HETATM    7  C   UNL     1       7.836  23.143  55.198  1.00  0.00     0.006 A 
HETATM    8  C   UNL     1       8.800  21.212  56.336  1.00  0.00     0.032 A 
HETATM    9  C   UNL     1       8.641  20.443  55.185  1.00  0.00     0.026 A 
HETATM   10  C   UNL     1       8.087  21.018  54.044  1.00  0.00     0.035 A 
HETATM   11 CL   UNL     1       7.890  20.068  52.623  1.00  0.00    -0.084 Cl
HETATM   12  C   UNL     1       7.689  22.357  54.044  1.00  0.00     0.038 A 
HETATM   13  H   UNL     1       8.954  22.894  58.326  1.00  0.00     0.169 HD
ENDROOT
BRANCH   2  14
HETATM   14  N   UNL     1       7.214  26.654  56.515  1.00  0.00    -0.375 N 
HETATM   15  C   UNL     1       8.214  27.631  56.999  1.00  0.00     0.137 C 
HETATM   16  C   UNL     1       7.816  29.044  56.568  1.00  0.00     0.096 C 
HETATM   17  C   UNL     1       6.398  29.388  57.040  1.00  0.00     0.017 C 
HETATM   18  C   UNL     1       5.408  28.316  56.589  1.00  0.00     0.021 C 
HETATM   19  C   UNL     1       5.860  26.927  57.035  1.00  0.00     0.123 C 
BRANCH  16  20
HETATM   20  C   UNL     1       8.846  30.051  57.059  1.00  0.00     0.223 C 
HETATM   21  N   UNL     1       8.554  30.681  58.245  1.00  0.00    -0.358 N 
HETATM   22  H   UNL     1       7.832  30.305  58.851  1.00  0.00     0.162 HD
HETATM   23  O   UNL     1       9.876  30.274  56.428  1.00  0.00    -0.273 OA
BRANCH  21  24
HETATM   24  C   UNL     1       9.521  31.545  58.902  1.00  0.00     0.154 C 
BRANCH  24  25
HETATM   25  C   UNL     1       8.910  32.210  60.135  1.00  0.00     0.139 C 
HETATM   26  O   UNL     1       7.555  31.743  60.327  1.00  0.00    -0.384 OA
HETATM   27  C   UNL     1       7.356  31.500  61.728  1.00  0.00     0.168 C 
HETATM   28  C   UNL     1       8.562  32.064  62.450  1.00  0.00     0.029 C 
HETATM   29  C   UNL     1       9.651  31.892  61.421  1.00  0.00     0.035 C 
ENDBRANCH  24  25
ENDBRANCH  21  24
ENDBRANCH  16  20
ENDBRANCH   2  14
BRANCH   1  30
HETATM   30  C   UNL     1       6.824  25.266  54.068  1.00  0.00    -0.023 A 
HETATM   31  C   UNL     1       7.625  26.045  53.223  1.00  0.00     0.012 A 
HETATM   32  C   UNL     1       7.068  26.669  52.105  1.00  0.00     0.001 A 
HETATM   33  C   UNL     1       5.710  26.518  51.825  1.00  0.00     0.000 A 
HETATM   34  C   UNL     1       4.906  25.744  52.661  1.00  0.00     0.001 A 
HETATM   35  C   UNL     1       5.460  25.119  53.779  1.00  0.00     0.012 A 
ENDBRANCH   1  30
TORSDOF 5
ENDMDL
MODEL 2
REMARK VINA RESULT:      -9.4      1.734      2.193
REMARK  5 active torsions:
REMARK  status: ('A' for Active; 'I' for Inactive)
REMARK    1  A    between atoms: C_4  and  C_5 
REMARK    2  A    between atoms: C_6  and  N_7 
REMARK    3  A    between atoms: C_9  and  C_10 
REMARK       I    between atoms: C_10  and  N_11 
REMARK    4  A    between atoms: N_11  and  C_12 
REMARK    5  A    between atoms: C_12  and  C_13 
ROOT
HETATM    1  C   UNL     1       7.174  24.536  55.185  1.00  0.00     0.019 A 
HETATM    2  C   UNL     1       7.197  25.254  56.340  1.00  0.00     0.111 A 
HETATM    3  C   UNL     1       7.849  24.644  57.576  1.00  0.00     0.273 A 
HETATM    4  O   UNL     1       7.870  25.216  58.665  1.00  0.00    -0.266 OA
HETATM    5  N   UNL     1       8.412  23.407  57.457  1.00  0.00    -0.321 N 
HETATM    6  C   UNL     1       8.405  22.662  56.284  1.00  0.00     0.046 A 
HETATM    7  C   UNL     1       7.801  23.188  55.136  1.00  0.00     0.006 A 
HETATM    8  C   UNL     1       9.003  21.398  56.280  1.00  0.00     0.032 A 
HETATM    9  C   UNL     1       9.001  20.638  55.112  1.00  0.00     0.026 A 
HETATM   10  C   UNL     1       8.407  21.148  53.960  1.00  0.00     0.035 A 
HETATM   11 CL   UNL     1       8.404  20.209  52.518  1.00  0.00    -0.084 Cl
HETATM   12  C   UNL     1       7.814  22.412  53.966  1.00  0.00     0.038 A 
HETATM   13  H   UNL     1       8.833  23.043  58.300  1.00  0.00     0.169 HD
ENDROOT
BRANCH   2  14
HETATM   14  N   UNL     1       6.615  26.538  56.482  1.00  0.00    -0.375 N 
HETATM   15  C   UNL     1       7.167  27.466  57.494  1.00  0.00     0.137 C 
HETATM   16  C   UNL     1       6.803  28.908  57.134  1.00  0.00     0.096 C 
HETATM   17  C   UNL     1       5.287  29.072  56.966  1.00  0.00     0.017 C 
HETATM   18  C   UNL     1       4.744  28.046  55.975  1.00  0.00     0.021 C 
HETATM   19  C   UNL     1       5.146  26.628  56.375  1.00  0.00     0.123 C 
BRANCH  16  20
HETATM   20  C   UNL     1       7.374  29.866  58.170  1.00  0.00     0.223 C 
HETATM   21  N   UNL     1       6.781  31.104  58.236  1.00  0.00    -0.358 N 
HETATM   22  H   UNL     1       5.877  31.253  57.799  1.00  0.00     0.162 HD
HETATM   23  O   UNL     1       8.305  29.539  58.901  1.00  0.00    -0.273 OA
BRANCH  21  24
HETATM   24  C   UNL     1       7.124  32.054  59.282  1.00  0.00     0.154 C 
BRANCH  24  25
HETATM   25  C   UNL     1       5.930  32.942  59.626  1.00  0.00     0.139 C 
HETATM   26  O   UNL     1       5.425  33.577  58.429  1.00  0.00    -0.384 OA
HETATM   27  C   UNL     1       3.990  33.532  58.465  1.00  0.00     0.168 C 
HETATM   28  C   UNL     1       3.598  33.063  59.850  1.00  0.00     0.029 C 
HETATM   29  C   UNL     1       4.761  32.177  60.221  1.00  0.00     0.035 C 
ENDBRANCH  24  25
ENDBRANCH  21  24
ENDBRANCH  16  20
ENDBRANCH   2  14
BRANCH   1  30
HETATM   30  C   UNL     1       6.523  25.159  54.001  1.00  0.00    -0.023 A 
HETATM   31  C   UNL     1       5.252  24.739  53.588  1.00  0.00     0.012 A 
HETATM   32  C   UNL     1       4.631  25.348  52.496  1.00  0.00     0.001 A 
HETATM   33  C   UNL     1       5.274  26.378  51.812  1.00  0.00     0.000 A 
HETATM   34  C   UNL     1       6.540  26.803  52.216  1.00  0.00     0.001 A 
HETATM   35  C   UNL     1       7.164  26.196  53.308  1.00  0.00     0.012 A 
ENDBRANCH   1  30
TORSDOF 5
ENDMDL
MODEL 3
REMARK VINA RESULT:      -9.2      3.294      5.476
REMARK  5 active torsions:
REMARK  status: ('A' for Active; 'I' for Inactive)
REMARK    1  A    between atoms: C_4  and  C_5 
REMARK    2  A    between atoms: C_6  and  N_7 
REMARK    3  A    between atoms: C_9  and  C_10 
REMARK       I    between atoms: C_10  and  N_11 
REMARK    4  A    between atoms: N_11  and  C_12 
REMARK    5  A    between atoms: C_12  and  C_13 
ROOT
HETATM    1  C   UNL     1       6.715  28.645  56.983  1.00  0.00     0.019 A 
HETATM    2  C   UNL     1       5.548  29.322  56.819  1.00  0.00     0.111 A 
HETATM    3  C   UNL     1       4.309  28.559  56.360  1.00  0.00     0.273 A 
HETATM    4  O   UNL     1       3.230  29.112  56.150  1.00  0.00    -0.266 OA
HETATM    5  N   UNL     1       4.424  27.215  56.161  1.00  0.00    -0.321 N 
HETATM    6  C   UNL     1       5.607  26.504  56.330  1.00  0.00     0.046 A 
HETATM    7  C   UNL     1       6.764  27.179  56.736  1.00  0.00     0.006 A 
HETATM    8  C   UNL     1       5.613  25.128  56.085  1.00  0.00     0.032 A 
HETATM    9  C   UNL     1       6.792  24.403  56.247  1.00  0.00     0.026 A 
HETATM   10  C   UNL     1       7.951  25.058  56.655  1.00  0.00     0.035 A 
HETATM   11 CL   UNL     1       9.407  24.163  56.855  1.00  0.00    -0.084 Cl
HETATM   12  C   UNL     1       7.942  26.432  56.902  1.00  0.00     0.038 A 
HETATM   13  H   UNL     1       3.580  26.750  55.857  1.00  0.00     0.169 HD
ENDROOT
BRANCH   2  14
HETATM   14  N   UNL     1       5.411  30.718  57.019  1.00  0.00    -0.375 N 
HETATM   15  C   UNL     1       4.946  31.212  58.334  1.00  0.00     0.137 C 
HETATM   16  C   UNL     1       5.375  32.667  58.528  1.00  0.00     0.096 C 
HETATM   17  C   UNL     1       4.882  33.549  57.374  1.00  0.00     0.017 C 
HETATM   18  C   UNL     1       5.315  32.964  56.031  1.00  0.00     0.021 C 
HETATM   19  C   UNL     1       4.871  31.509  55.896  1.00  0.00     0.123 C 
BRANCH  16  20
HETATM   20  C   UNL     1       4.904  33.176  59.882  1.00  0.00     0.223 C 
HETATM   21  N   UNL     1       4.877  32.249  60.897  1.00  0.00    -0.358 N 
HETATM   22  H   UNL     1       5.374  31.371  60.791  1.00  0.00     0.162 HD
HETATM   23  O   UNL     1       4.577  34.348  60.049  1.00  0.00    -0.273 OA
BRANCH  21  24
HETATM   24  C   UNL     1       4.598  32.637  62.270  1.00  0.00     0.154 C 
BRANCH  24  25
HETATM   25  C   UNL     1       5.778  32.302  63.182  1.00  0.00     0.139 C 
HETATM   26  O   UNL     1       6.629  31.320  62.548  1.00  0.00    -0.384 OA
HETATM   27  C   UNL     1       7.996  31.698  62.768  1.00  0.00     0.168 C 
HETATM   28  C   UNL     1       7.985  32.827  63.777  1.00  0.00     0.029 C 
HETATM   29  C   UNL     1       6.665  33.496  63.484  1.00  0.00     0.035 C 
ENDBRANCH  24  25
ENDBRANCH  21  24
ENDBRANCH  16  20
ENDBRANCH   2  14
BRANCH   1  30
HETATM   30  C   UNL     1       7.904  29.422  57.425  1.00  0.00    -0.023 A 
HETATM   31  C   UNL     1       8.018  29.851  58.754  1.00  0.00     0.012 A 
HETATM   32  C   UNL     1       9.150  30.552  59.172  1.00  0.00     0.001 A 
HETATM   33  C   UNL     1      10.174  30.827  58.268  1.00  0.00     0.000 A 
HETATM   34  C   UNL     1      10.070  30.404  56.943  1.00  0.00     0.001 A 
HETATM   35  C   UNL     1       8.939  29.702  56.521  1.00  0.00     0.012 A 
ENDBRANCH   1  30
TORSDOF 5
ENDMDL
MODEL 4
REMARK VINA RESULT:      -9.1      3.105      4.830
REMARK  5 active torsions:
REMARK  status: ('A' for Active; 'I' for Inactive)
REMARK    1  A    between atoms: C_4  and  C_5 
REMARK    2  A    between atoms: C_6  and  N_7 
REMARK    3  A    between atoms: C_9  and  C_10 
REMARK       I    between atoms: C_10  and  N_11 
REMARK    4  A    between atoms: N_11  and  C_12 
REMARK    5  A    between atoms: C_12  and  C_13 
ROOT
HETATM    1  C   UNL     1       6.135  27.756  54.900  1.00  0.00     0.019 A 
HETATM    2  C   UNL     1       5.066  28.547  54.617  1.00  0.00     0.111 A 
HETATM    3  C   UNL     1       3.992  28.024  53.667  1.00  0.00     0.273 A 
HETATM    4  O   UNL     1       3.019  28.698  53.332  1.00  0.00    -0.266 OA
HETATM    5  N   UNL     1       4.141  26.765  53.166  1.00  0.00    -0.321 N 
HETATM    6  C   UNL     1       5.223  25.940  53.450  1.00  0.00     0.046 A 
HETATM    7  C   UNL     1       6.232  26.396  54.305  1.00  0.00     0.006 A 
HETATM    8  C   UNL     1       5.278  24.670  52.868  1.00  0.00     0.032 A 
HETATM    9  C   UNL     1       6.358  23.833  53.141  1.00  0.00     0.026 A 
HETATM   10  C   UNL     1       7.369  24.270  53.993  1.00  0.00     0.035 A 
HETATM   11 CL   UNL     1       8.704  23.236  54.330  1.00  0.00    -0.084 Cl
HETATM   12  C   UNL     1       7.310  25.538  54.575  1.00  0.00     0.038 A 
HETATM   13  H   UNL     1       3.406  26.460  52.542  1.00  0.00     0.169 HD
ENDROOT
BRANCH   2  14
HETATM   14  N   UNL     1       4.897  29.858  55.126  1.00  0.00    -0.375 N 
HETATM   15  C   UNL     1       4.485  30.030  56.538  1.00  0.00     0.137 C 
HETATM   16  C   UNL     1       4.879  31.423  57.031  1.00  0.00     0.096 C 
HETATM   17  C   UNL     1       4.301  32.517  56.124  1.00  0.00     0.017 C 
HETATM   18  C   UNL     1       4.681  32.260  54.667  1.00  0.00     0.021 C 
HETATM   19  C   UNL     1       4.276  30.853  54.232  1.00  0.00     0.123 C 
BRANCH  16  20
HETATM   20  C   UNL     1       4.463  31.602  58.484  1.00  0.00     0.223 C 
HETATM   21  N   UNL     1       5.482  31.835  59.377  1.00  0.00    -0.358 N 
HETATM   22  H   UNL     1       6.397  32.113  59.036  1.00  0.00     0.162 HD
HETATM   23  O   UNL     1       3.284  31.546  58.825  1.00  0.00    -0.273 OA
BRANCH  21  24
HETATM   24  C   UNL     1       5.210  32.177  60.763  1.00  0.00     0.154 C 
BRANCH  24  25
HETATM   25  C   UNL     1       6.508  32.449  61.522  1.00  0.00     0.139 C 
HETATM   26  O   UNL     1       6.714  31.432  62.529  1.00  0.00    -0.384 OA
HETATM   27  C   UNL     1       8.099  31.056  62.516  1.00  0.00     0.168 C 
HETATM   28  C   UNL     1       8.817  32.051  61.628  1.00  0.00     0.029 C 
HETATM   29  C   UNL     1       7.741  32.421  60.638  1.00  0.00     0.035 C 
ENDBRANCH  24  25
ENDBRANCH  21  24
ENDBRANCH  16  20
ENDBRANCH   2  14
BRANCH   1  30
HETATM   30  C   UNL     1       7.167  28.301  55.824  1.00  0.00    -0.023 A 
HETATM   31  C   UNL     1       7.030  28.148  57.210  1.00  0.00     0.012 A 
HETATM   32  C   UNL     1       8.016  28.632  58.071  1.00  0.00     0.001 A 
HETATM   33  C   UNL     1       9.143  29.269  57.554  1.00  0.00     0.000 A 
HETATM   34  C   UNL     1       9.287  29.426  56.176  1.00  0.00     0.001 A 
HETATM   35  C   UNL     1       8.303  28.943  55.312  1.00  0.00     0.012 A 
ENDBRANCH   1  30
TORSDOF 5
ENDMDL
MODEL 5
REMARK VINA RESULT:      -8.9      3.874      9.155
REMARK  5 active torsions:
REMARK  status: ('A' for Active; 'I' for Inactive)
REMARK    1  A    between atoms: C_4  and  C_5 
REMARK    2  A    between atoms: C_6  and  N_7 
REMARK    3  A    between atoms: C_9  and  C_10 
REMARK       I    between atoms: C_10  and  N_11 
REMARK    4  A    between atoms: N_11  and  C_12 
REMARK    5  A    between atoms: C_12  and  C_13 
ROOT
HETATM    1  C   UNL     1       6.133  31.288  58.596  1.00  0.00     0.019 A 
HETATM    2  C   UNL     1       7.169  30.411  58.519  1.00  0.00     0.111 A 
HETATM    3  C   UNL     1       8.258  30.456  59.587  1.00  0.00     0.273 A 
HETATM    4  O   UNL     1       9.245  29.723  59.559  1.00  0.00    -0.266 OA
HETATM    5  N   UNL     1       8.124  31.363  60.597  1.00  0.00    -0.321 N 
HETATM    6  C   UNL     1       7.068  32.263  60.697  1.00  0.00     0.046 A 
HETATM    7  C   UNL     1       6.063  32.256  59.724  1.00  0.00     0.006 A 
HETATM    8  C   UNL     1       7.040  33.158  61.770  1.00  0.00     0.032 A 
HETATM    9  C   UNL     1       5.990  34.068  61.881  1.00  0.00     0.026 A 
HETATM   10  C   UNL     1       4.979  34.071  60.924  1.00  0.00     0.035 A 
HETATM   11 CL   UNL     1       3.682  35.195  61.062  1.00  0.00    -0.084 Cl
HETATM   12  C   UNL     1       5.008  33.174  59.855  1.00  0.00     0.038 A 
HETATM   13  H   UNL     1       8.867  31.358  61.282  1.00  0.00     0.169 HD
ENDROOT
BRANCH   2  14
HETATM   14  N   UNL     1       7.326  29.464  57.476  1.00  0.00    -0.375 N 
HETATM   15  C   UNL     1       7.272  28.022  57.804  1.00  0.00     0.137 C 
HETATM   16  C   UNL     1       6.916  27.215  56.554  1.00  0.00     0.096 C 
HETATM   17  C   UNL     1       7.891  27.510  55.407  1.00  0.00     0.017 C 
HETATM   18  C   UNL     1       7.978  29.014  55.152  1.00  0.00     0.021 C 
HETATM   19  C   UNL     1       8.324  29.769  56.433  1.00  0.00     0.123 C 
BRANCH  16  20
HETATM   20  C   UNL     1       6.854  25.732  56.889  1.00  0.00     0.223 C 
HETATM   21  N   UNL     1       7.964  24.992  56.555  1.00  0.00    -0.358 N 
HETATM   22  H   UNL     1       8.836  25.463  56.337  1.00  0.00     0.162 HD
HETATM   23  O   UNL     1       5.869  25.237  57.431  1.00  0.00    -0.273 OA
BRANCH  21  24
HETATM   24  C   UNL     1       8.098  23.603  56.959  1.00  0.00     0.154 C 
BRANCH  24  25
HETATM   25  C   UNL     1       8.553  22.735  55.786  1.00  0.00     0.139 C 
HETATM   26  O   UNL     1       8.474  21.337  56.146  1.00  0.00    -0.384 OA
HETATM   27  C   UNL     1       7.929  20.614  55.032  1.00  0.00     0.168 C 
HETATM   28  C   UNL     1       7.893  21.571  53.859  1.00  0.00     0.029 C 
HETATM   29  C   UNL     1       7.693  22.900  54.546  1.00  0.00     0.035 C 
ENDBRANCH  24  25
ENDBRANCH  21  24
ENDBRANCH  16  20
ENDBRANCH   2  14
BRANCH   1  30
HETATM   30  C   UNL     1       5.095  31.220  57.534  1.00  0.00    -0.023 A 
HETATM   31  C   UNL     1       5.241  31.957  56.351  1.00  0.00     0.012 A 
HETATM   32  C   UNL     1       4.279  31.866  55.343  1.00  0.00     0.001 A 
HETATM   33  C   UNL     1       3.169  31.039  55.510  1.00  0.00     0.000 A 
HETATM   34  C   UNL     1       3.015  30.303  56.684  1.00  0.00     0.001 A 
HETATM   35  C   UNL     1       3.975  30.392  57.694  1.00  0.00     0.012 A 
ENDBRANCH   1  30
TORSDOF 5
ENDMDL
MODEL 6
REMARK VINA RESULT:      -8.9      3.298      5.417
REMARK  5 active torsions:
REMARK  status: ('A' for Active; 'I' for Inactive)
REMARK    1  A    between atoms: C_4  and  C_5 
REMARK    2  A    between atoms: C_6  and  N_7 
REMARK    3  A    between atoms: C_9  and  C_10 
REMARK       I    between atoms: C_10  and  N_11 
REMARK    4  A    between atoms: N_11  and  C_12 
REMARK    5  A    between atoms: C_12  and  C_13 
ROOT
HETATM    1  C   UNL     1       5.233  27.900  53.042  1.00  0.00     0.019 A 
HETATM    2  C   UNL     1       6.315  27.166  53.417  1.00  0.00     0.111 A 
HETATM    3  C   UNL     1       6.922  26.183  52.422  1.00  0.00     0.273 A 
HETATM    4  O   UNL     1       7.874  25.456  52.705  1.00  0.00    -0.266 OA
HETATM    5  N   UNL     1       6.366  26.107  51.179  1.00  0.00    -0.321 N 
HETATM    6  C   UNL     1       5.265  26.854  50.774  1.00  0.00     0.046 A 
HETATM    7  C   UNL     1       4.676  27.753  51.670  1.00  0.00     0.006 A 
HETATM    8  C   UNL     1       4.770  26.685  49.478  1.00  0.00     0.032 A 
HETATM    9  C   UNL     1       3.666  27.424  49.060  1.00  0.00     0.026 A 
HETATM   10  C   UNL     1       3.070  28.327  49.937  1.00  0.00     0.035 A 
HETATM   11 CL   UNL     1       1.706  29.240  49.421  1.00  0.00    -0.084 Cl
HETATM   12  C   UNL     1       3.568  28.496  51.230  1.00  0.00     0.038 A 
HETATM   13  H   UNL     1       6.801  25.443  50.552  1.00  0.00     0.169 HD
ENDROOT
BRANCH   2  14
HETATM   14  N   UNL     1       6.903  27.231  54.705  1.00  0.00    -0.375 N 
HETATM   15  C   UNL     1       7.988  28.208  54.947  1.00  0.00     0.137 C 
HETATM   16  C   UNL     1       8.100  28.503  56.445  1.00  0.00     0.096 C 
HETATM   17  C   UNL     1       8.294  27.213  57.251  1.00  0.00     0.017 C 
HETATM   18  C   UNL     1       7.201  26.201  56.913  1.00  0.00     0.021 C 
HETATM   19  C   UNL     1       7.126  25.954  55.408  1.00  0.00     0.123 C 
BRANCH  16  20
HETATM   20  C   UNL     1       9.211  29.512  56.698  1.00  0.00     0.223 C 
HETATM   21  N   UNL     1       8.994  30.400  57.724  1.00  0.00    -0.358 N 
HETATM   22  H   UNL     1       8.262  30.217  58.404  1.00  0.00     0.162 HD
HETATM   23  O   UNL     1      10.238  29.518  56.024  1.00  0.00    -0.273 OA
BRANCH  21  24
HETATM   24  C   UNL     1      10.035  31.311  58.171  1.00  0.00     0.154 C 
BRANCH  24  25
HETATM   25  C   UNL     1       9.825  31.704  59.633  1.00  0.00     0.139 C 
HETATM   26  O   UNL     1       8.924  32.832  59.717  1.00  0.00    -0.384 OA
HETATM   27  C   UNL     1       8.012  32.601  60.802  1.00  0.00     0.168 C 
HETATM   28  C   UNL     1       8.526  31.396  61.561  1.00  0.00     0.029 C 
HETATM   29  C   UNL     1       9.201  30.603  60.470  1.00  0.00     0.035 C 
ENDBRANCH  24  25
ENDBRANCH  21  24
ENDBRANCH  16  20
ENDBRANCH   2  14
BRANCH   1  30
HETATM   30  C   UNL     1       4.662  28.843  54.040  1.00  0.00    -0.023 A 
HETATM   31  C   UNL     1       4.218  28.376  55.284  1.00  0.00     0.012 A 
HETATM   32  C   UNL     1       3.712  29.269  56.231  1.00  0.00     0.001 A 
HETATM   33  C   UNL     1       3.648  30.632  55.941  1.00  0.00     0.000 A 
HETATM   34  C   UNL     1       4.088  31.105  54.705  1.00  0.00     0.001 A 
HETATM   35  C   UNL     1       4.595  30.215  53.757  1.00  0.00     0.012 A 
ENDBRANCH   1  30
TORSDOF 5
ENDMDL
MODEL 7
REMARK VINA RESULT:      -8.9      3.331      4.966
REMARK  5 active torsions:
REMARK  status: ('A' for Active; 'I' for Inactive)
REMARK    1  A    between atoms: C_4  and  C_5 
REMARK    2  A    between atoms: C_6  and  N_7 
REMARK    3  A    between atoms: C_9  and  C_10 
REMARK       I    between atoms: C_10  and  N_11 
REMARK    4  A    between atoms: N_11  and  C_12 
REMARK    5  A    between atoms: C_12  and  C_13 
ROOT
HETATM    1  C   UNL     1       6.136  27.957  55.059  1.00  0.00     0.019 A 
HETATM    2  C   UNL     1       5.082  28.784  54.826  1.00  0.00     0.111 A 
HETATM    3  C   UNL     1       3.969  28.317  53.893  1.00  0.00     0.273 A 
HETATM    4  O   UNL     1       3.006  29.026  53.602  1.00  0.00    -0.266 OA
HETATM    5  N   UNL     1       4.069  27.068  53.355  1.00  0.00    -0.321 N 
HETATM    6  C   UNL     1       5.135  26.206  53.587  1.00  0.00     0.046 A 
HETATM    7  C   UNL     1       6.179  26.611  54.426  1.00  0.00     0.006 A 
HETATM    8  C   UNL     1       5.139  24.951  52.972  1.00  0.00     0.032 A 
HETATM    9  C   UNL     1       6.202  24.078  53.193  1.00  0.00     0.026 A 
HETATM   10  C   UNL     1       7.247  24.464  54.028  1.00  0.00     0.035 A 
HETATM   11 CL   UNL     1       8.561  23.386  54.300  1.00  0.00    -0.084 Cl
HETATM   12  C   UNL     1       7.239  25.717  54.644  1.00  0.00     0.038 A 
HETATM   13  H   UNL     1       3.309  26.800  52.744  1.00  0.00     0.169 HD
ENDROOT
BRANCH   2  14
HETATM   14  N   UNL     1       4.964  30.085  55.374  1.00  0.00    -0.375 N 
HETATM   15  C   UNL     1       4.458  30.236  56.757  1.00  0.00     0.137 C 
HETATM   16  C   UNL     1       4.907  31.581  57.333  1.00  0.00     0.096 C 
HETATM   17  C   UNL     1       4.475  32.743  56.430  1.00  0.00     0.017 C 
HETATM   18  C   UNL     1       4.947  32.511  54.996  1.00  0.00     0.021 C 
HETATM   19  C   UNL     1       4.482  31.152  54.477  1.00  0.00     0.123 C 
BRANCH  16  20
HETATM   20  C   UNL     1       4.395  31.737  58.757  1.00  0.00     0.223 C 
HETATM   21  N   UNL     1       5.355  31.881  59.730  1.00  0.00    -0.358 N 
HETATM   22  H   UNL     1       6.307  32.115  59.467  1.00  0.00     0.162 HD
HETATM   23  O   UNL     1       3.193  31.740  59.010  1.00  0.00    -0.273 OA
BRANCH  21  24
HETATM   24  C   UNL     1       5.001  32.195  61.104  1.00  0.00     0.154 C 
BRANCH  24  25
HETATM   25  C   UNL     1       6.172  32.851  61.834  1.00  0.00     0.139 C 
HETATM   26  O   UNL     1       5.718  33.431  63.078  1.00  0.00    -0.384 OA
HETATM   27  C   UNL     1       6.688  33.137  64.094  1.00  0.00     0.168 C 
HETATM   28  C   UNL     1       7.899  32.558  63.394  1.00  0.00     0.029 C 
HETATM   29  C   UNL     1       7.275  31.875  62.203  1.00  0.00     0.035 C 
ENDBRANCH  24  25
ENDBRANCH  21  24
ENDBRANCH  16  20
ENDBRANCH   2  14
BRANCH   1  30
HETATM   30  C   UNL     1       7.207  28.448  55.967  1.00  0.00    -0.023 A 
HETATM   31  C   UNL     1       8.381  29.006  55.444  1.00  0.00     0.012 A 
HETATM   32  C   UNL     1       9.370  29.495  56.300  1.00  0.00     0.001 A 
HETATM   33  C   UNL     1       9.191  29.431  57.681  1.00  0.00     0.000 A 
HETATM   34  C   UNL     1       8.026  28.877  58.211  1.00  0.00     0.001 A 
HETATM   35  C   UNL     1       7.035  28.387  57.357  1.00  0.00     0.012 A 
ENDBRANCH   1  30
TORSDOF 5
ENDMDL
MODEL 8
REMARK VINA RESULT:      -8.9      2.849      5.241
REMARK  5 active torsions:
REMARK  status: ('A' for Active; 'I' for Inactive)
REMARK    1  A    between atoms: C_4  and  C_5 
REMARK    2  A    between atoms: C_6  and  N_7 
REMARK    3  A    between atoms: C_9  and  C_10 
REMARK       I    between atoms: C_10  and  N_11 
REMARK    4  A    between atoms: N_11  and  C_12 
REMARK    5  A    between atoms: C_12  and  C_13 
ROOT
HETATM    1  C   UNL     1       5.204  27.102  52.728  1.00  0.00     0.019 A 
HETATM    2  C   UNL     1       4.998  27.811  53.870  1.00  0.00     0.111 A 
HETATM    3  C   UNL     1       4.054  29.009  53.837  1.00  0.00     0.273 A 
HETATM    4  O   UNL     1       3.852  29.721  54.819  1.00  0.00    -0.266 OA
HETATM    5  N   UNL     1       3.430  29.297  52.659  1.00  0.00    -0.321 N 
HETATM    6  C   UNL     1       3.622  28.580  51.483  1.00  0.00     0.046 A 
HETATM    7  C   UNL     1       4.494  27.486  51.478  1.00  0.00     0.006 A 
HETATM    8  C   UNL     1       2.938  28.974  50.329  1.00  0.00     0.032 A 
HETATM    9  C   UNL     1       3.123  28.267  49.143  1.00  0.00     0.026 A 
HETATM   10  C   UNL     1       3.984  27.173  49.121  1.00  0.00     0.035 A 
HETATM   11 CL   UNL     1       4.213  26.300  47.656  1.00  0.00    -0.084 Cl
HETATM   12  C   UNL     1       4.664  26.780  50.276  1.00  0.00     0.038 A 
HETATM   13  H   UNL     1       2.813  30.098  52.683  1.00  0.00     0.169 HD
ENDROOT
BRANCH   2  14
HETATM   14  N   UNL     1       5.640  27.527  55.102  1.00  0.00    -0.375 N 
HETATM   15  C   UNL     1       6.953  28.148  55.385  1.00  0.00     0.137 C 
HETATM   16  C   UNL     1       7.204  28.173  56.893  1.00  0.00     0.096 C 
HETATM   17  C   UNL     1       7.088  26.768  57.499  1.00  0.00     0.017 C 
HETATM   18  C   UNL     1       5.753  26.130  57.118  1.00  0.00     0.021 C 
HETATM   19  C   UNL     1       5.549  26.143  55.604  1.00  0.00     0.123 C 
BRANCH  16  20
HETATM   20  C   UNL     1       8.551  28.817  57.189  1.00  0.00     0.223 C 
HETATM   21  N   UNL     1       8.512  30.005  57.880  1.00  0.00    -0.358 N 
HETATM   22  H   UNL     1       7.661  30.279  58.362  1.00  0.00     0.162 HD
HETATM   23  O   UNL     1       9.604  28.293  56.834  1.00  0.00    -0.273 OA
BRANCH  21  24
HETATM   24  C   UNL     1       9.726  30.642  58.362  1.00  0.00     0.154 C 
BRANCH  24  25
HETATM   25  C   UNL     1       9.414  31.636  59.479  1.00  0.00     0.139 C 
HETATM   26  O   UNL     1       8.155  32.297  59.215  1.00  0.00    -0.384 OA
HETATM   27  C   UNL     1       7.422  32.379  60.447  1.00  0.00     0.168 C 
HETATM   28  C   UNL     1       8.369  31.964  61.553  1.00  0.00     0.029 C 
HETATM   29  C   UNL     1       9.271  30.985  60.843  1.00  0.00     0.035 C 
ENDBRANCH  24  25
ENDBRANCH  21  24
ENDBRANCH  16  20
ENDBRANCH   2  14
BRANCH   1  30
HETATM   30  C   UNL     1       6.137  25.946  52.796  1.00  0.00    -0.023 A 
HETATM   31  C   UNL     1       5.659  24.666  53.107  1.00  0.00     0.012 A 
HETATM   32  C   UNL     1       6.533  23.578  53.138  1.00  0.00     0.001 A 
HETATM   33  C   UNL     1       7.886  23.761  52.857  1.00  0.00     0.000 A 
HETATM   34  C   UNL     1       8.370  25.031  52.546  1.00  0.00     0.001 A 
HETATM   35  C   UNL     1       7.499  26.122  52.514  1.00  0.00     0.012 A 
ENDBRANCH   1  30
TORSDOF 5
ENDMDL
MODEL 9
REMARK VINA RESULT:      -8.4      3.112      5.615
REMARK  5 active torsions:
REMARK  status: ('A' for Active; 'I' for Inactive)
REMARK    1  A    between atoms: C_4  and  C_5 
REMARK    2  A    between atoms: C_6  and  N_7 
REMARK    3  A    between atoms: C_9  and  C_10 
REMARK       I    between atoms: C_10  and  N_11 
REMARK    4  A    between atoms: N_11  and  C_12 
REMARK    5  A    between atoms: C_12  and  C_13 
ROOT
HETATM    1  C   UNL     1       5.196  27.210  51.968  1.00  0.00     0.019 A 
HETATM    2  C   UNL     1       5.258  28.309  52.767  1.00  0.00     0.111 A 
HETATM    3  C   UNL     1       4.527  29.577  52.336  1.00  0.00     0.273 A 
HETATM    4  O   UNL     1       4.572  30.621  52.986  1.00  0.00    -0.266 OA
HETATM    5  N   UNL     1       3.815  29.540  51.174  1.00  0.00    -0.321 N 
HETATM    6  C   UNL     1       3.734  28.425  50.348  1.00  0.00     0.046 A 
HETATM    7  C   UNL     1       4.406  27.251  50.708  1.00  0.00     0.006 A 
HETATM    8  C   UNL     1       2.984  28.505  49.172  1.00  0.00     0.032 A 
HETATM    9  C   UNL     1       2.897  27.396  48.332  1.00  0.00     0.026 A 
HETATM   10  C   UNL     1       3.556  26.218  48.678  1.00  0.00     0.035 A 
HETATM   11 CL   UNL     1       3.449  24.849  47.641  1.00  0.00    -0.084 Cl
HETATM   12  C   UNL     1       4.302  26.140  49.855  1.00  0.00     0.038 A 
HETATM   13  H   UNL     1       3.346  30.402  50.928  1.00  0.00     0.169 HD
ENDROOT
BRANCH   2  14
HETATM   14  N   UNL     1       5.995  28.366  53.976  1.00  0.00    -0.375 N 
HETATM   15  C   UNL     1       5.551  29.290  55.042  1.00  0.00     0.137 C 
HETATM   16  C   UNL     1       6.098  28.830  56.394  1.00  0.00     0.096 C 
HETATM   17  C   UNL     1       7.625  28.685  56.355  1.00  0.00     0.017 C 
HETATM   18  C   UNL     1       8.047  27.788  55.193  1.00  0.00     0.021 C 
HETATM   19  C   UNL     1       7.464  28.286  53.873  1.00  0.00     0.123 C 
BRANCH  16  20
HETATM   20  C   UNL     1       5.639  29.775  57.495  1.00  0.00     0.223 C 
HETATM   21  N   UNL     1       6.635  30.416  58.192  1.00  0.00    -0.358 N 
HETATM   22  H   UNL     1       7.579  30.436  57.819  1.00  0.00     0.162 HD
HETATM   23  O   UNL     1       4.447  29.952  57.732  1.00  0.00    -0.273 OA
BRANCH  21  24
HETATM   24  C   UNL     1       6.333  31.459  59.159  1.00  0.00     0.154 C 
BRANCH  24  25
HETATM   25  C   UNL     1       7.522  31.705  60.086  1.00  0.00     0.139 C 
HETATM   26  O   UNL     1       7.067  31.825  61.453  1.00  0.00    -0.384 OA
HETATM   27  C   UNL     1       7.977  31.103  62.297  1.00  0.00     0.168 C 
HETATM   28  C   UNL     1       9.167  30.723  61.440  1.00  0.00     0.029 C 
HETATM   29  C   UNL     1       8.537  30.576  60.077  1.00  0.00     0.035 C 
ENDBRANCH  24  25
ENDBRANCH  21  24
ENDBRANCH  16  20
ENDBRANCH   2  14
BRANCH   1  30
HETATM   30  C   UNL     1       5.927  25.994  52.415  1.00  0.00    -0.023 A 
HETATM   31  C   UNL     1       7.118  25.610  51.785  1.00  0.00     0.012 A 
HETATM   32  C   UNL     1       7.817  24.486  52.228  1.00  0.00     0.001 A 
HETATM   33  C   UNL     1       7.332  23.741  53.302  1.00  0.00     0.000 A 
HETATM   34  C   UNL     1       6.147  24.116  53.935  1.00  0.00     0.001 A 
HETATM   35  C   UNL     1       5.446  25.239  53.494  1.00  0.00     0.012 A 
ENDBRANCH   1  30
TORSDOF 5
ENDMDL
MODEL 10
REMARK VINA RESULT:      -8.3      2.582      3.643
REMARK  5 active torsions:
REMARK  status: ('A' for Active; 'I' for Inactive)
REMARK    1  A    between atoms: C_4  and  C_5 
REMARK    2  A    between atoms: C_6  and  N_7 
REMARK    3  A    between atoms: C_9  and  C_10 
REMARK       I    between atoms: C_10  and  N_11 
REMARK    4  A    between atoms: N_11  and  C_12 
REMARK    5  A    between atoms: C_12  and  C_13 
ROOT
HETATM    1  C   UNL     1       7.409  24.721  55.436  1.00  0.00     0.019 A 
HETATM    2  C   UNL     1       7.617  25.401  56.595  1.00  0.00     0.111 A 
HETATM    3  C   UNL     1       8.193  24.656  57.795  1.00  0.00     0.273 A 
HETATM    4  O   UNL     1       8.370  25.195  58.888  1.00  0.00    -0.266 OA
HETATM    5  N   UNL     1       8.504  23.337  57.640  1.00  0.00    -0.321 N 
HETATM    6  C   UNL     1       8.305  22.627  56.461  1.00  0.00     0.046 A 
HETATM    7  C   UNL     1       7.763  23.279  55.347  1.00  0.00     0.006 A 
HETATM    8  C   UNL     1       8.648  21.273  56.419  1.00  0.00     0.032 A 
HETATM    9  C   UNL     1       8.451  20.548  55.246  1.00  0.00     0.026 A 
HETATM   10  C   UNL     1       7.918  21.182  54.126  1.00  0.00     0.035 A 
HETATM   11 CL   UNL     1       7.674  20.286  52.677  1.00  0.00    -0.084 Cl
HETATM   12  C   UNL     1       7.578  22.536  54.170  1.00  0.00     0.038 A 
HETATM   13  H   UNL     1       8.883  22.885  58.460  1.00  0.00     0.169 HD
ENDROOT
BRANCH   2  14
HETATM   14  N   UNL     1       7.298  26.770  56.775  1.00  0.00    -0.375 N 
HETATM   15  C   UNL     1       6.048  27.297  56.184  1.00  0.00     0.137 C 
HETATM   16  C   UNL     1       5.622  28.572  56.915  1.00  0.00     0.096 C 
HETATM   17  C   UNL     1       6.746  29.615  56.914  1.00  0.00     0.017 C 
HETATM   18  C   UNL     1       8.039  29.010  57.456  1.00  0.00     0.021 C 
HETATM   19  C   UNL     1       8.410  27.736  56.699  1.00  0.00     0.123 C 
BRANCH  16  20
HETATM   20  C   UNL     1       4.333  29.114  56.314  1.00  0.00     0.223 C 
HETATM   21  N   UNL     1       3.894  30.317  56.816  1.00  0.00    -0.358 N 
HETATM   22  H   UNL     1       4.527  30.897  57.358  1.00  0.00     0.162 HD
HETATM   23  O   UNL     1       3.733  28.508  55.430  1.00  0.00    -0.273 OA
BRANCH  21  24
HETATM   24  C   UNL     1       2.768  31.019  56.224  1.00  0.00     0.154 C 
BRANCH  24  25
HETATM   25  C   UNL     1       3.128  32.473  55.925  1.00  0.00     0.139 C 
HETATM   26  O   UNL     1       2.620  33.333  56.970  1.00  0.00    -0.384 OA
HETATM   27  C   UNL     1       3.627  34.308  57.282  1.00  0.00     0.168 C 
HETATM   28  C   UNL     1       4.702  34.187  56.223  1.00  0.00     0.029 C 
HETATM   29  C   UNL     1       4.624  32.724  55.863  1.00  0.00     0.035 C 
ENDBRANCH  24  25
ENDBRANCH  21  24
ENDBRANCH  16  20
ENDBRANCH   2  14
BRANCH   1  30
HETATM   30  C   UNL     1       6.839  25.477  54.289  1.00  0.00    -0.023 A 
HETATM   31  C   UNL     1       5.479  25.364  53.970  1.00  0.00     0.012 A 
HETATM   32  C   UNL     1       4.941  26.100  52.913  1.00  0.00     0.001 A 
HETATM   33  C   UNL     1       5.757  26.952  52.169  1.00  0.00     0.000 A 
HETATM   34  C   UNL     1       7.112  27.070  52.479  1.00  0.00     0.001 A 
HETATM   35  C   UNL     1       7.652  26.336  53.536  1.00  0.00     0.012 A 
ENDBRANCH   1  30
TORSDOF 5
ENDMDL
