MODEL 1
REMARK VINA RESULT:      -9.5      0.000      0.000
REMARK  6 active torsions:
REMARK  status: ('A' for Active; 'I' for Inactive)
REMARK    1  A    between atoms: CG_8  and  CB_9 
REMARK    2  A    between atoms: CB_9  and  CA_10 
REMARK    3  A    between atoms: CA_10  and  N_11 
REMARK    4  A    between atoms: CA_10  and  C_12 
REMARK       I    between atoms: N_11  and  C_18 
REMARK    5  A    between atoms: C_12  and  O_13 
REMARK       I    between atoms: C_18  and  N_19 
REMARK    6  A    between atoms: N_19  and  C_20 
ROOT
ATOM      1  CA  TRP A   1       6.251  25.574  52.037  1.00  0.00     0.114 C 
ENDROOT
BRANCH   1   2
ATOM      2  CB  TRP A   1       7.636  24.914  52.216  1.00  0.00     0.068 C 
BRANCH   2   3
ATOM      3  CG  TRP A   1       7.794  24.242  53.552  1.00  0.00    -0.028 A 
ATOM      4  CD2 TRP A   1       7.931  22.836  53.788  1.00  0.00    -0.002 A 
ATOM      5  CE3 TRP A   1       7.958  21.700  52.954  1.00  0.00     0.014 A 
ATOM      6  CE2 TRP A   1       8.072  22.655  55.165  1.00  0.00     0.042 A 
ATOM      7  CZ3 TRP A   1       8.131  20.432  53.520  1.00  0.00     0.001 A 
ATOM      8  CH2 TRP A   1       8.272  20.284  54.898  1.00  0.00     0.002 A 
ATOM      9  CZ2 TRP A   1       8.241  21.393  55.749  1.00  0.00     0.030 A 
ATOM     10  NE1 TRP A   1       8.022  23.900  55.744  1.00  0.00    -0.365 N 
ATOM     11  HE1 TRP A   1       8.112  24.073  56.735  1.00  0.00     0.165 HD
ATOM     12  CD1 TRP A   1       7.857  24.863  54.786  1.00  0.00     0.096 A 
ENDBRANCH   2   3
ENDBRANCH   1   2
BRANCH   1  13
ATOM     13  N   TRP A   1       5.991  25.975  50.647  1.00  0.00    -0.336 N 
HETATM   14  C   UNK A   0       5.036  26.919  50.331  1.00  0.00     0.321 C 
HETATM   15  N   UNK A   0       4.885  27.023  48.965  1.00  0.00    -0.309 N 
HETATM   16  O   UNK A   0       4.439  27.566  51.180  1.00  0.00    -0.247 OA
HETATM   17  H   UNK A   0       5.636  26.628  48.420  1.00  0.00     0.170 HD
ATOM     18  H   TRP A   1       6.062  25.214  49.985  1.00  0.00     0.164 HD
BRANCH  15  19
HETATM   19  C   UNK A   0       3.915  27.772  48.269  1.00  0.00     0.036 A 
HETATM   20  C   UNK A   0       2.693  27.242  47.844  1.00  0.00     0.039 A 
HETATM   21  C   UNK A   0       1.818  28.060  47.145  1.00  0.00    -0.024 A 
HETATM   22  C   UNK A   0       2.129  29.380  46.865  1.00  0.00    -0.026 A 
HETATM   23  C   UNK A   0       0.470  27.748  46.610  1.00  0.00     0.207 C 
HETATM   24  C   UNK A   0       0.999  30.005  46.135  1.00  0.00     0.207 C 
HETATM   25  C   UNK A   0       3.330  29.929  47.273  1.00  0.00     0.012 A 
HETATM   26  O   UNK A   0       0.116  28.906  45.815  1.00  0.00    -0.382 OA
HETATM   27  C   UNK A   0       4.228  29.114  47.973  1.00  0.00     0.030 A 
ENDBRANCH  15  19
ENDBRANCH   1  13
BRANCH   1  28
ATOM     28  C   TRP A   1       5.138  24.682  52.619  1.00  0.00     0.189 C 
BRANCH  28  29
ATOM     29  O   TRP A   1       4.155  25.484  53.275  1.00  0.00    -0.399 OA
ATOM     30  H   TRP A   1       4.315  25.389  54.230  1.00  0.00     0.209 HD
ENDBRANCH  28  29
ENDBRANCH   1  28
TORSDOF 6
ENDMDL
MODEL 2
REMARK VINA RESULT:      -9.5      4.878      8.447
REMARK  6 active torsions:
REMARK  status: ('A' for Active; 'I' for Inactive)
REMARK    1  A    between atoms: CG_8  and  CB_9 
REMARK    2  A    between atoms: CB_9  and  CA_10 
REMARK    3  A    between atoms: CA_10  and  N_11 
REMARK    4  A    between atoms: CA_10  and  C_12 
REMARK       I    between atoms: N_11  and  C_18 
REMARK    5  A    between atoms: C_12  and  O_13 
REMARK       I    between atoms: C_18  and  N_19 
REMARK    6  A    between atoms: N_19  and  C_20 
ROOT
ATOM      1  CA  TRP A   1       6.165  26.057  54.255  1.00  0.00     0.114 C 
ENDROOT
BRANCH   1   2
ATOM      2  CB  TRP A   1       6.828  24.853  53.551  1.00  0.00     0.068 C 
BRANCH   2   3
ATOM      3  CG  TRP A   1       7.276  23.788  54.513  1.00  0.00    -0.028 A 
ATOM      4  CD2 TRP A   1       7.752  22.480  54.175  1.00  0.00    -0.002 A 
ATOM      5  CE3 TRP A   1       7.947  21.791  52.961  1.00  0.00     0.014 A 
ATOM      6  CE2 TRP A   1       8.078  21.832  55.367  1.00  0.00     0.042 A 
ATOM      7  CZ3 TRP A   1       8.462  20.490  52.980  1.00  0.00     0.001 A 
ATOM      8  CH2 TRP A   1       8.780  19.871  54.187  1.00  0.00     0.002 A 
ATOM      9  CZ2 TRP A   1       8.591  20.529  55.406  1.00  0.00     0.030 A 
ATOM     10  NE1 TRP A   1       7.810  22.710  56.391  1.00  0.00    -0.365 N 
ATOM     11  HE1 TRP A   1       7.964  22.511  57.369  1.00  0.00     0.165 HD
ATOM     12  CD1 TRP A   1       7.329  23.889  55.890  1.00  0.00     0.096 A 
ENDBRANCH   2   3
ENDBRANCH   1   2
BRANCH   1  13
ATOM     13  N   TRP A   1       7.110  27.156  54.503  1.00  0.00    -0.336 N 
HETATM   14  C   UNK A   0       7.356  27.626  55.778  1.00  0.00     0.321 C 
HETATM   15  N   UNK A   0       8.167  28.739  55.738  1.00  0.00    -0.309 N 
HETATM   16  O   UNK A   0       6.909  27.087  56.780  1.00  0.00    -0.247 OA
HETATM   17  H   UNK A   0       8.661  28.879  54.870  1.00  0.00     0.170 HD
ATOM     18  H   TRP A   1       7.098  27.870  53.789  1.00  0.00     0.164 HD
BRANCH  15  19
HETATM   19  C   UNK A   0       8.522  29.575  56.816  1.00  0.00     0.036 A 
HETATM   20  C   UNK A   0       7.585  30.188  57.655  1.00  0.00     0.039 A 
HETATM   21  C   UNK A   0       8.041  31.011  58.674  1.00  0.00    -0.024 A 
HETATM   22  C   UNK A   0       9.392  31.232  58.876  1.00  0.00    -0.026 A 
HETATM   23  C   UNK A   0       7.262  31.751  59.697  1.00  0.00     0.207 C 
HETATM   24  C   UNK A   0       9.572  32.126  60.046  1.00  0.00     0.207 C 
HETATM   25  C   UNK A   0      10.339  30.639  58.062  1.00  0.00     0.012 A 
HETATM   26  O   UNK A   0       8.239  32.586  60.365  1.00  0.00    -0.382 OA
HETATM   27  C   UNK A   0       9.895  29.812  57.024  1.00  0.00     0.030 A 
ENDBRANCH  15  19
ENDBRANCH   1  13
BRANCH   1  28
ATOM     28  C   TRP A   1       4.905  26.513  53.495  1.00  0.00     0.189 C 
BRANCH  28  29
ATOM     29  O   TRP A   1       4.042  25.400  53.259  1.00  0.00    -0.399 OA
ATOM     30  H   TRP A   1       3.906  24.970  54.121  1.00  0.00     0.209 HD
ENDBRANCH  28  29
ENDBRANCH   1  28
TORSDOF 6
ENDMDL
MODEL 3
REMARK VINA RESULT:      -9.2      4.879      8.290
REMARK  6 active torsions:
REMARK  status: ('A' for Active; 'I' for Inactive)
REMARK    1  A    between atoms: CG_8  and  CB_9 
REMARK    2  A    between atoms: CB_9  and  CA_10 
REMARK    3  A    between atoms: CA_10  and  N_11 
REMARK    4  A    between atoms: CA_10  and  C_12 
REMARK       I    between atoms: N_11  and  C_18 
REMARK    5  A    between atoms: C_12  and  O_13 
REMARK       I    between atoms: C_18  and  N_19 
REMARK    6  A    between atoms: N_19  and  C_20 
ROOT
ATOM      1  CA  TRP A   1       6.116  24.952  54.150  1.00  0.00     0.114 C 
ENDROOT
BRANCH   1   2
ATOM      2  CB  TRP A   1       7.490  24.578  53.552  1.00  0.00     0.068 C 
BRANCH   2   3
ATOM      3  CG  TRP A   1       7.798  23.111  53.672  1.00  0.00    -0.028 A 
ATOM      4  CD2 TRP A   1       8.059  22.391  54.882  1.00  0.00    -0.002 A 
ATOM      5  CE3 TRP A   1       8.123  22.752  56.243  1.00  0.00     0.014 A 
ATOM      6  CE2 TRP A   1       8.274  21.056  54.537  1.00  0.00     0.042 A 
ATOM      7  CZ3 TRP A   1       8.390  21.772  57.205  1.00  0.00     0.001 A 
ATOM      8  CH2 TRP A   1       8.597  20.447  56.830  1.00  0.00     0.002 A 
ATOM      9  CZ2 TRP A   1       8.546  20.063  55.486  1.00  0.00     0.030 A 
ATOM     10  NE1 TRP A   1       8.149  20.966  53.171  1.00  0.00    -0.365 N 
ATOM     11  HE1 TRP A   1       8.240  20.109  52.644  1.00  0.00     0.165 HD
ATOM     12  CD1 TRP A   1       7.861  22.194  52.639  1.00  0.00     0.096 A 
ENDBRANCH   2   3
ENDBRANCH   1   2
BRANCH   1  13
ATOM     13  N   TRP A   1       6.233  25.699  55.411  1.00  0.00    -0.336 N 
HETATM   14  C   UNK A   0       6.942  26.881  55.490  1.00  0.00     0.321 C 
HETATM   15  N   UNK A   0       7.020  27.317  56.795  1.00  0.00    -0.309 N 
HETATM   16  O   UNK A   0       7.406  27.441  54.507  1.00  0.00    -0.247 OA
HETATM   17  H   UNK A   0       6.359  26.894  57.428  1.00  0.00     0.170 HD
ATOM     18  H   TRP A   1       6.312  25.109  56.227  1.00  0.00     0.164 HD
BRANCH  15  19
HETATM   19  C   UNK A   0       7.774  28.400  57.289  1.00  0.00     0.036 A 
HETATM   20  C   UNK A   0       7.220  29.448  58.031  1.00  0.00     0.039 A 
HETATM   21  C   UNK A   0       8.048  30.479  58.450  1.00  0.00    -0.024 A 
HETATM   22  C   UNK A   0       9.400  30.487  58.152  1.00  0.00    -0.026 A 
HETATM   23  C   UNK A   0       7.714  31.678  59.257  1.00  0.00     0.207 C 
HETATM   24  C   UNK A   0      10.025  31.692  58.751  1.00  0.00     0.207 C 
HETATM   25  C   UNK A   0       9.974  29.465  57.420  1.00  0.00     0.012 A 
HETATM   26  O   UNK A   0       8.913  32.490  59.218  1.00  0.00    -0.382 OA
HETATM   27  C   UNK A   0       9.149  28.421  56.982  1.00  0.00     0.030 A 
ENDBRANCH  15  19
ENDBRANCH   1  13
BRANCH   1  28
ATOM     28  C   TRP A   1       5.242  25.676  53.107  1.00  0.00     0.189 C 
BRANCH  28  29
ATOM     29  O   TRP A   1       3.879  25.274  53.244  1.00  0.00    -0.399 OA
ATOM     30  H   TRP A   1       3.397  25.678  52.500  1.00  0.00     0.209 HD
ENDBRANCH  28  29
ENDBRANCH   1  28
TORSDOF 6
ENDMDL
MODEL 4
REMARK VINA RESULT:      -9.2      2.670      9.112
REMARK  6 active torsions:
REMARK  status: ('A' for Active; 'I' for Inactive)
REMARK    1  A    between atoms: CG_8  and  CB_9 
REMARK    2  A    between atoms: CB_9  and  CA_10 
REMARK    3  A    between atoms: CA_10  and  N_11 
REMARK    4  A    between atoms: CA_10  and  C_12 
REMARK       I    between atoms: N_11  and  C_18 
REMARK    5  A    between atoms: C_12  and  O_13 
REMARK       I    between atoms: C_18  and  N_19 
REMARK    6  A    between atoms: N_19  and  C_20 
ROOT
ATOM      1  CA  TRP A   1       4.774  27.963  52.521  1.00  0.00     0.114 C 
ENDROOT
BRANCH   1   2
ATOM      2  CB  TRP A   1       4.705  28.930  51.318  1.00  0.00     0.068 C 
BRANCH   2   3
ATOM      3  CG  TRP A   1       3.530  28.660  50.420  1.00  0.00    -0.028 A 
ATOM      4  CD2 TRP A   1       3.480  27.717  49.342  1.00  0.00    -0.002 A 
ATOM      5  CE3 TRP A   1       4.407  26.809  48.791  1.00  0.00     0.014 A 
ATOM      6  CE2 TRP A   1       2.199  27.777  48.792  1.00  0.00     0.042 A 
ATOM      7  CZ3 TRP A   1       4.020  25.994  47.721  1.00  0.00     0.001 A 
ATOM      8  CH2 TRP A   1       2.733  26.075  47.195  1.00  0.00     0.002 A 
ATOM      9  CZ2 TRP A   1       1.797  26.972  47.719  1.00  0.00     0.030 A 
ATOM     10  NE1 TRP A   1       1.497  28.720  49.505  1.00  0.00    -0.365 N 
ATOM     11  HE1 TRP A   1       0.532  28.963  49.334  1.00  0.00     0.165 HD
ATOM     12  CD1 TRP A   1       2.285  29.256  50.487  1.00  0.00     0.096 A 
ENDBRANCH   2   3
ENDBRANCH   1   2
BRANCH   1  13
ATOM     13  N   TRP A   1       6.008  27.164  52.534  1.00  0.00    -0.336 N 
HETATM   14  C   UNK A   0       6.026  25.867  53.004  1.00  0.00     0.321 C 
HETATM   15  N   UNK A   0       7.315  25.380  53.040  1.00  0.00    -0.309 N 
HETATM   16  O   UNK A   0       5.011  25.262  53.319  1.00  0.00    -0.247 OA
HETATM   17  H   UNK A   0       7.985  25.899  52.494  1.00  0.00     0.170 HD
ATOM     18  H   TRP A   1       6.836  27.700  52.752  1.00  0.00     0.164 HD
BRANCH  15  19
HETATM   19  C   UNK A   0       7.749  24.155  53.587  1.00  0.00     0.036 A 
HETATM   20  C   UNK A   0       7.844  22.973  52.847  1.00  0.00     0.039 A 
HETATM   21  C   UNK A   0       8.261  21.816  53.489  1.00  0.00    -0.024 A 
HETATM   22  C   UNK A   0       8.585  21.812  54.834  1.00  0.00    -0.026 A 
HETATM   23  C   UNK A   0       8.461  20.457  52.930  1.00  0.00     0.207 C 
HETATM   24  C   UNK A   0       9.019  20.449  55.229  1.00  0.00     0.207 C 
HETATM   25  C   UNK A   0       8.500  22.966  55.590  1.00  0.00     0.012 A 
HETATM   26  O   UNK A   0       8.710  19.620  54.086  1.00  0.00    -0.382 OA
HETATM   27  C   UNK A   0       8.072  24.140  54.958  1.00  0.00     0.030 A 
ENDBRANCH  15  19
ENDBRANCH   1  13
BRANCH   1  28
ATOM     28  C   TRP A   1       4.536  28.715  53.844  1.00  0.00     0.189 C 
BRANCH  28  29
ATOM     29  O   TRP A   1       3.977  27.834  54.819  1.00  0.00    -0.399 OA
ATOM     30  H   TRP A   1       3.935  26.954  54.403  1.00  0.00     0.209 HD
ENDBRANCH  28  29
ENDBRANCH   1  28
TORSDOF 6
ENDMDL
MODEL 5
REMARK VINA RESULT:      -9.1      2.201      9.561
REMARK  6 active torsions:
REMARK  status: ('A' for Active; 'I' for Inactive)
REMARK    1  A    between atoms: CG_8  and  CB_9 
REMARK    2  A    between atoms: CB_9  and  CA_10 
REMARK    3  A    between atoms: CA_10  and  N_11 
REMARK    4  A    between atoms: CA_10  and  C_12 
REMARK       I    between atoms: N_11  and  C_18 
REMARK    5  A    between atoms: C_12  and  O_13 
REMARK       I    between atoms: C_18  and  N_19 
REMARK    6  A    between atoms: N_19  and  C_20 
ROOT
ATOM      1  CA  TRP A   1       5.263  27.755  50.711  1.00  0.00     0.114 C 
ENDROOT
BRANCH   1   2
ATOM      2  CB  TRP A   1       5.137  27.880  49.177  1.00  0.00     0.068 C 
BRANCH   2   3
ATOM      3  CG  TRP A   1       3.893  27.230  48.639  1.00  0.00    -0.028 A 
ATOM      4  CD2 TRP A   1       2.850  27.871  47.895  1.00  0.00    -0.002 A 
ATOM      5  CE3 TRP A   1       2.632  29.191  47.452  1.00  0.00     0.014 A 
ATOM      6  CE2 TRP A   1       1.903  26.897  47.578  1.00  0.00     0.042 A 
ATOM      7  CZ3 TRP A   1       1.484  29.487  46.707  1.00  0.00     0.001 A 
ATOM      8  CH2 TRP A   1       0.558  28.493  46.405  1.00  0.00     0.002 A 
ATOM      9  CZ2 TRP A   1       0.747  27.177  46.838  1.00  0.00     0.030 A 
ATOM     10  NE1 TRP A   1       2.349  25.710  48.109  1.00  0.00    -0.365 N 
ATOM     11  HE1 TRP A   1       1.866  24.827  48.021  1.00  0.00     0.165 HD
ATOM     12  CD1 TRP A   1       3.545  25.896  48.748  1.00  0.00     0.096 A 
ENDBRANCH   2   3
ENDBRANCH   1   2
BRANCH   1  13
ATOM     13  N   TRP A   1       6.368  26.874  51.118  1.00  0.00    -0.336 N 
HETATM   14  C   UNK A   0       6.145  25.721  51.844  1.00  0.00     0.321 C 
HETATM   15  N   UNK A   0       7.339  25.143  52.218  1.00  0.00    -0.309 N 
HETATM   16  O   UNK A   0       5.024  25.297  52.085  1.00  0.00    -0.247 OA
HETATM   17  H   UNK A   0       8.149  25.463  51.709  1.00  0.00     0.170 HD
ATOM     18  H   TRP A   1       7.211  27.370  51.369  1.00  0.00     0.164 HD
BRANCH  15  19
HETATM   19  C   UNK A   0       7.521  24.042  53.078  1.00  0.00     0.036 A 
HETATM   20  C   UNK A   0       8.034  22.811  52.656  1.00  0.00     0.039 A 
HETATM   21  C   UNK A   0       8.150  21.785  53.581  1.00  0.00    -0.024 A 
HETATM   22  C   UNK A   0       7.774  21.955  54.902  1.00  0.00    -0.026 A 
HETATM   23  C   UNK A   0       8.677  20.411  53.392  1.00  0.00     0.207 C 
HETATM   24  C   UNK A   0       8.037  20.702  55.651  1.00  0.00     0.207 C 
HETATM   25  C   UNK A   0       7.263  23.160  55.347  1.00  0.00     0.012 A 
HETATM   26  O   UNK A   0       8.377  19.730  54.635  1.00  0.00    -0.382 OA
HETATM   27  C   UNK A   0       7.132  24.204  54.423  1.00  0.00     0.030 A 
ENDBRANCH  15  19
ENDBRANCH   1  13
BRANCH   1  28
ATOM     28  C   TRP A   1       5.336  29.146  51.371  1.00  0.00     0.189 C 
BRANCH  28  29
ATOM     29  O   TRP A   1       6.342  29.158  52.385  1.00  0.00    -0.399 OA
ATOM     30  H   TRP A   1       5.969  28.683  53.148  1.00  0.00     0.209 HD
ENDBRANCH  28  29
ENDBRANCH   1  28
TORSDOF 6
ENDMDL
MODEL 6
REMARK VINA RESULT:      -8.9      1.553      2.180
REMARK  6 active torsions:
REMARK  status: ('A' for Active; 'I' for Inactive)
REMARK    1  A    between atoms: CG_8  and  CB_9 
REMARK    2  A    between atoms: CB_9  and  CA_10 
REMARK    3  A    between atoms: CA_10  and  N_11 
REMARK    4  A    between atoms: CA_10  and  C_12 
REMARK       I    between atoms: N_11  and  C_18 
REMARK    5  A    between atoms: C_12  and  O_13 
REMARK       I    between atoms: C_18  and  N_19 
REMARK    6  A    between atoms: N_19  and  C_20 
ROOT
ATOM      1  CA  TRP A   1       7.071  26.027  53.433  1.00  0.00     0.114 C 
ENDROOT
BRANCH   1   2
ATOM      2  CB  TRP A   1       6.218  24.900  54.055  1.00  0.00     0.068 C 
BRANCH   2   3
ATOM      3  CG  TRP A   1       7.036  23.921  54.851  1.00  0.00    -0.028 A 
ATOM      4  CD2 TRP A   1       7.582  22.684  54.377  1.00  0.00    -0.002 A 
ATOM      5  CE3 TRP A   1       7.551  22.008  53.141  1.00  0.00     0.014 A 
ATOM      6  CE2 TRP A   1       8.285  22.105  55.435  1.00  0.00     0.042 A 
ATOM      7  CZ3 TRP A   1       8.224  20.790  53.003  1.00  0.00     0.001 A 
ATOM      8  CH2 TRP A   1       8.920  20.238  54.077  1.00  0.00     0.002 A 
ATOM      9  CZ2 TRP A   1       8.961  20.884  55.316  1.00  0.00     0.030 A 
ATOM     10  NE1 TRP A   1       8.171  22.954  56.509  1.00  0.00    -0.365 N 
ATOM     11  HE1 TRP A   1       8.596  22.794  57.412  1.00  0.00     0.165 HD
ATOM     12  CD1 TRP A   1       7.424  24.050  56.171  1.00  0.00     0.096 A 
ENDBRANCH   2   3
ENDBRANCH   1   2
BRANCH   1  13
ATOM     13  N   TRP A   1       6.793  26.222  52.002  1.00  0.00    -0.336 N 
HETATM   14  C   UNK A   0       5.540  26.584  51.550  1.00  0.00     0.321 C 
HETATM   15  N   UNK A   0       5.497  26.571  50.173  1.00  0.00    -0.309 N 
HETATM   16  O   UNK A   0       4.626  26.884  52.304  1.00  0.00    -0.247 OA
HETATM   17  H   UNK A   0       6.395  26.573  49.715  1.00  0.00     0.170 HD
ATOM     18  H   TRP A   1       7.283  25.574  51.402  1.00  0.00     0.164 HD
BRANCH  15  19
HETATM   19  C   UNK A   0       4.363  26.746  49.354  1.00  0.00     0.036 A 
HETATM   20  C   UNK A   0       3.700  27.969  49.208  1.00  0.00     0.039 A 
HETATM   21  C   UNK A   0       2.579  28.026  48.394  1.00  0.00    -0.024 A 
HETATM   22  C   UNK A   0       2.111  26.907  47.727  1.00  0.00    -0.026 A 
HETATM   23  C   UNK A   0       1.723  29.192  48.063  1.00  0.00     0.207 C 
HETATM   24  C   UNK A   0       0.923  27.280  46.919  1.00  0.00     0.207 C 
HETATM   25  C   UNK A   0       2.746  25.687  47.853  1.00  0.00     0.012 A 
HETATM   26  O   UNK A   0       0.603  28.627  47.337  1.00  0.00    -0.382 OA
HETATM   27  C   UNK A   0       3.875  25.610  48.678  1.00  0.00     0.030 A 
ENDBRANCH  15  19
ENDBRANCH   1  13
BRANCH   1  28
ATOM     28  C   TRP A   1       6.941  27.328  54.248  1.00  0.00     0.189 C 
BRANCH  28  29
ATOM     29  O   TRP A   1       7.714  28.366  53.645  1.00  0.00    -0.399 OA
ATOM     30  H   TRP A   1       8.545  28.420  54.150  1.00  0.00     0.209 HD
ENDBRANCH  28  29
ENDBRANCH   1  28
TORSDOF 6
ENDMDL
MODEL 7
REMARK VINA RESULT:      -8.6      6.124      9.603
REMARK  6 active torsions:
REMARK  status: ('A' for Active; 'I' for Inactive)
REMARK    1  A    between atoms: CG_8  and  CB_9 
REMARK    2  A    between atoms: CB_9  and  CA_10 
REMARK    3  A    between atoms: CA_10  and  N_11 
REMARK    4  A    between atoms: CA_10  and  C_12 
REMARK       I    between atoms: N_11  and  C_18 
REMARK    5  A    between atoms: C_12  and  O_13 
REMARK       I    between atoms: C_18  and  N_19 
REMARK    6  A    between atoms: N_19  and  C_20 
ROOT
ATOM      1  CA  TRP A   1       5.989  28.068  54.732  1.00  0.00     0.114 C 
ENDROOT
BRANCH   1   2
ATOM      2  CB  TRP A   1       6.844  26.986  54.038  1.00  0.00     0.068 C 
BRANCH   2   3
ATOM      3  CG  TRP A   1       6.908  25.703  54.819  1.00  0.00    -0.028 A 
ATOM      4  CD2 TRP A   1       7.276  24.414  54.313  1.00  0.00    -0.002 A 
ATOM      5  CE3 TRP A   1       7.662  23.933  53.045  1.00  0.00     0.014 A 
ATOM      6  CE2 TRP A   1       7.220  23.515  55.378  1.00  0.00     0.042 A 
ATOM      7  CZ3 TRP A   1       7.984  22.580  52.890  1.00  0.00     0.001 A 
ATOM      8  CH2 TRP A   1       7.921  21.706  53.973  1.00  0.00     0.002 A 
ATOM      9  CZ2 TRP A   1       7.535  22.156  55.239  1.00  0.00     0.030 A 
ATOM     10  NE1 TRP A   1       6.833  24.226  56.488  1.00  0.00    -0.365 N 
ATOM     11  HE1 TRP A   1       6.723  23.830  57.411  1.00  0.00     0.165 HD
ATOM     12  CD1 TRP A   1       6.644  25.542  56.166  1.00  0.00     0.096 A 
ENDBRANCH   2   3
ENDBRANCH   1   2
BRANCH   1  13
ATOM     13  N   TRP A   1       6.802  29.032  55.488  1.00  0.00    -0.336 N 
HETATM   14  C   UNK A   0       6.622  29.227  56.842  1.00  0.00     0.321 C 
HETATM   15  N   UNK A   0       7.402  30.270  57.293  1.00  0.00    -0.309 N 
HETATM   16  O   UNK A   0       5.873  28.534  57.517  1.00  0.00    -0.247 OA
HETATM   17  H   UNK A   0       8.151  30.543  56.675  1.00  0.00     0.170 HD
ATOM     18  H   TRP A   1       7.023  29.871  54.970  1.00  0.00     0.164 HD
BRANCH  15  19
HETATM   19  C   UNK A   0       7.388  30.854  58.575  1.00  0.00     0.036 A 
HETATM   20  C   UNK A   0       8.223  30.442  59.618  1.00  0.00     0.039 A 
HETATM   21  C   UNK A   0       8.111  31.070  60.850  1.00  0.00    -0.024 A 
HETATM   22  C   UNK A   0       7.199  32.089  61.062  1.00  0.00    -0.026 A 
HETATM   23  C   UNK A   0       8.885  30.834  62.093  1.00  0.00     0.207 C 
HETATM   24  C   UNK A   0       7.329  32.579  62.457  1.00  0.00     0.207 C 
HETATM   25  C   UNK A   0       6.361  32.516  60.050  1.00  0.00     0.012 A 
HETATM   26  O   UNK A   0       8.212  31.631  63.099  1.00  0.00    -0.382 OA
HETATM   27  C   UNK A   0       6.456  31.887  58.802  1.00  0.00     0.030 A 
ENDBRANCH  15  19
ENDBRANCH   1  13
BRANCH   1  28
ATOM     28  C   TRP A   1       5.041  28.748  53.726  1.00  0.00     0.189 C 
BRANCH  28  29
ATOM     29  O   TRP A   1       5.152  30.168  53.826  1.00  0.00    -0.399 OA
ATOM     30  H   TRP A   1       5.337  30.494  52.928  1.00  0.00     0.209 HD
ENDBRANCH  28  29
ENDBRANCH   1  28
TORSDOF 6
ENDMDL
MODEL 8
REMARK VINA RESULT:      -8.4      2.626      9.595
REMARK  6 active torsions:
REMARK  status: ('A' for Active; 'I' for Inactive)
REMARK    1  A    between atoms: CG_8  and  CB_9 
REMARK    2  A    between atoms: CB_9  and  CA_10 
REMARK    3  A    between atoms: CA_10  and  N_11 
REMARK    4  A    between atoms: CA_10  and  C_12 
REMARK       I    between atoms: N_11  and  C_18 
REMARK    5  A    between atoms: C_12  and  O_13 
REMARK       I    between atoms: C_18  and  N_19 
REMARK    6  A    between atoms: N_19  and  C_20 
ROOT
ATOM      1  CA  TRP A   1       4.727  27.097  49.395  1.00  0.00     0.114 C 
ENDROOT
BRANCH   1   2
ATOM      2  CB  TRP A   1       3.821  28.313  49.689  1.00  0.00     0.068 C 
BRANCH   2   3
ATOM      3  CG  TRP A   1       4.588  29.602  49.787  1.00  0.00    -0.028 A 
ATOM      4  CD2 TRP A   1       4.821  30.538  48.728  1.00  0.00    -0.002 A 
ATOM      5  CE3 TRP A   1       4.465  30.583  47.365  1.00  0.00     0.014 A 
ATOM      6  CE2 TRP A   1       5.555  31.598  49.260  1.00  0.00     0.042 A 
ATOM      7  CZ3 TRP A   1       4.847  31.684  46.589  1.00  0.00     0.001 A 
ATOM      8  CH2 TRP A   1       5.577  32.728  47.149  1.00  0.00     0.002 A 
ATOM      9  CZ2 TRP A   1       5.949  32.705  48.497  1.00  0.00     0.030 A 
ATOM     10  NE1 TRP A   1       5.762  31.320  50.590  1.00  0.00    -0.365 N 
ATOM     11  HE1 TRP A   1       6.256  31.925  51.230  1.00  0.00     0.165 HD
ATOM     12  CD1 TRP A   1       5.184  30.124  50.920  1.00  0.00     0.096 A 
ENDBRANCH   2   3
ENDBRANCH   1   2
BRANCH   1  13
ATOM     13  N   TRP A   1       4.633  26.058  50.430  1.00  0.00    -0.336 N 
HETATM   14  C   UNK A   0       5.531  25.994  51.477  1.00  0.00     0.321 C 
HETATM   15  N   UNK A   0       5.318  24.862  52.233  1.00  0.00    -0.309 N 
HETATM   16  O   UNK A   0       6.374  26.856  51.679  1.00  0.00    -0.247 OA
HETATM   17  H   UNK A   0       4.424  24.416  52.095  1.00  0.00     0.170 HD
ATOM     18  H   TRP A   1       4.338  25.159  50.077  1.00  0.00     0.164 HD
BRANCH  15  19
HETATM   19  C   UNK A   0       6.115  24.381  53.292  1.00  0.00     0.036 A 
HETATM   20  C   UNK A   0       7.106  23.409  53.129  1.00  0.00     0.039 A 
HETATM   21  C   UNK A   0       7.818  22.990  54.243  1.00  0.00    -0.024 A 
HETATM   22  C   UNK A   0       7.569  23.513  55.500  1.00  0.00    -0.026 A 
HETATM   23  C   UNK A   0       8.919  21.999  54.331  1.00  0.00     0.207 C 
HETATM   24  C   UNK A   0       8.497  22.896  56.479  1.00  0.00     0.207 C 
HETATM   25  C   UNK A   0       6.595  24.475  55.690  1.00  0.00     0.012 A 
HETATM   26  O   UNK A   0       9.141  21.825  55.752  1.00  0.00    -0.382 OA
HETATM   27  C   UNK A   0       5.862  24.903  54.576  1.00  0.00     0.030 A 
ENDBRANCH  15  19
ENDBRANCH   1  13
BRANCH   1  28
ATOM     28  C   TRP A   1       4.471  26.552  47.977  1.00  0.00     0.189 C 
BRANCH  28  29
ATOM     29  O   TRP A   1       5.639  26.706  47.171  1.00  0.00    -0.399 OA
ATOM     30  H   TRP A   1       6.284  26.052  47.493  1.00  0.00     0.209 HD
ENDBRANCH  28  29
ENDBRANCH   1  28
TORSDOF 6
ENDMDL
MODEL 9
REMARK VINA RESULT:      -8.4      3.405      4.429
REMARK  6 active torsions:
REMARK  status: ('A' for Active; 'I' for Inactive)
REMARK    1  A    between atoms: CG_8  and  CB_9 
REMARK    2  A    between atoms: CB_9  and  CA_10 
REMARK    3  A    between atoms: CA_10  and  N_11 
REMARK    4  A    between atoms: CA_10  and  C_12 
REMARK       I    between atoms: N_11  and  C_18 
REMARK    5  A    between atoms: C_12  and  O_13 
REMARK       I    between atoms: C_18  and  N_19 
REMARK    6  A    between atoms: N_19  and  C_20 
ROOT
ATOM      1  CA  TRP A   1       6.962  25.996  56.167  1.00  0.00     0.114 C 
ENDROOT
BRANCH   1   2
ATOM      2  CB  TRP A   1       6.855  24.460  56.294  1.00  0.00     0.068 C 
BRANCH   2   3
ATOM      3  CG  TRP A   1       7.363  23.738  55.077  1.00  0.00    -0.028 A 
ATOM      4  CD2 TRP A   1       7.827  22.384  55.021  1.00  0.00    -0.002 A 
ATOM      5  CE3 TRP A   1       7.968  21.356  55.976  1.00  0.00     0.014 A 
ATOM      6  CE2 TRP A   1       8.182  22.117  53.699  1.00  0.00     0.042 A 
ATOM      7  CZ3 TRP A   1       8.449  20.105  55.576  1.00  0.00     0.001 A 
ATOM      8  CH2 TRP A   1       8.793  19.868  54.247  1.00  0.00     0.002 A 
ATOM      9  CZ2 TRP A   1       8.669  20.871  53.282  1.00  0.00     0.030 A 
ATOM     10  NE1 TRP A   1       7.945  23.262  52.977  1.00  0.00    -0.365 N 
ATOM     11  HE1 TRP A   1       8.099  23.354  51.983  1.00  0.00     0.165 HD
ATOM     12  CD1 TRP A   1       7.450  24.243  53.793  1.00  0.00     0.096 A 
ENDBRANCH   2   3
ENDBRANCH   1   2
BRANCH   1  13
ATOM     13  N   TRP A   1       5.677  26.626  55.833  1.00  0.00    -0.336 N 
HETATM   14  C   UNK A   0       5.533  27.433  54.722  1.00  0.00     0.321 C 
HETATM   15  N   UNK A   0       4.282  28.011  54.698  1.00  0.00    -0.309 N 
HETATM   16  O   UNK A   0       6.415  27.573  53.887  1.00  0.00    -0.247 OA
HETATM   17  H   UNK A   0       3.598  27.577  55.299  1.00  0.00     0.170 HD
ATOM     18  H   TRP A   1       5.151  26.929  56.640  1.00  0.00     0.164 HD
BRANCH  15  19
HETATM   19  C   UNK A   0       3.814  28.996  53.805  1.00  0.00     0.036 A 
HETATM   20  C   UNK A   0       3.325  28.707  52.528  1.00  0.00     0.039 A 
HETATM   21  C   UNK A   0       2.910  29.755  51.719  1.00  0.00    -0.024 A 
HETATM   22  C   UNK A   0       2.969  31.068  52.151  1.00  0.00    -0.026 A 
HETATM   23  C   UNK A   0       2.340  29.711  50.350  1.00  0.00     0.207 C 
HETATM   24  C   UNK A   0       2.437  31.957  51.088  1.00  0.00     0.207 C 
HETATM   25  C   UNK A   0       3.449  31.383  53.408  1.00  0.00     0.012 A 
HETATM   26  O   UNK A   0       2.279  31.097  49.936  1.00  0.00    -0.382 OA
HETATM   27  C   UNK A   0       3.879  30.337  54.234  1.00  0.00     0.030 A 
ENDBRANCH  15  19
ENDBRANCH   1  13
BRANCH   1  28
ATOM     28  C   TRP A   1       7.618  26.606  57.421  1.00  0.00     0.189 C 
BRANCH  28  29
ATOM     29  O   TRP A   1       7.810  25.600  58.416  1.00  0.00    -0.399 OA
ATOM     30  H   TRP A   1       8.424  25.974  59.071  1.00  0.00     0.209 HD
ENDBRANCH  28  29
ENDBRANCH   1  28
TORSDOF 6
ENDMDL
MODEL 10
REMARK VINA RESULT:      -8.2      2.977      8.974
REMARK  6 active torsions:
REMARK  status: ('A' for Active; 'I' for Inactive)
REMARK    1  A    between atoms: CG_8  and  CB_9 
REMARK    2  A    between atoms: CB_9  and  CA_10 
REMARK    3  A    between atoms: CA_10  and  N_11 
REMARK    4  A    between atoms: CA_10  and  C_12 
REMARK       I    between atoms: N_11  and  C_18 
REMARK    5  A    between atoms: C_12  and  O_13 
REMARK       I    between atoms: C_18  and  N_19 
REMARK    6  A    between atoms: N_19  and  C_20 
ROOT
ATOM      1  CA  TRP A   1       4.301  27.017  49.181  1.00  0.00     0.114 C 
ENDROOT
BRANCH   1   2
ATOM      2  CB  TRP A   1       3.087  27.972  49.201  1.00  0.00     0.068 C 
BRANCH   2   3
ATOM      3  CG  TRP A   1       3.414  29.320  49.781  1.00  0.00    -0.028 A 
ATOM      4  CD2 TRP A   1       3.494  29.652  51.172  1.00  0.00    -0.002 A 
ATOM      5  CE3 TRP A   1       3.310  28.925  52.366  1.00  0.00     0.014 A 
ATOM      6  CE2 TRP A   1       3.843  31.000  51.260  1.00  0.00     0.042 A 
ATOM      7  CZ3 TRP A   1       3.488  29.565  53.597  1.00  0.00     0.001 A 
ATOM      8  CH2 TRP A   1       3.840  30.912  53.653  1.00  0.00     0.002 A 
ATOM      9  CZ2 TRP A   1       4.021  31.658  52.485  1.00  0.00     0.030 A 
ATOM     10  NE1 TRP A   1       3.970  31.471  49.975  1.00  0.00    -0.365 N 
ATOM     11  HE1 TRP A   1       4.231  32.417  49.736  1.00  0.00     0.165 HD
ATOM     12  CD1 TRP A   1       3.717  30.470  49.077  1.00  0.00     0.096 A 
ENDBRANCH   2   3
ENDBRANCH   1   2
BRANCH   1  13
ATOM     13  N   TRP A   1       4.266  26.035  50.274  1.00  0.00    -0.336 N 
HETATM   14  C   UNK A   0       5.238  26.006  51.253  1.00  0.00     0.321 C 
HETATM   15  N   UNK A   0       5.062  24.919  52.082  1.00  0.00    -0.309 N 
HETATM   16  O   UNK A   0       6.109  26.859  51.347  1.00  0.00    -0.247 OA
HETATM   17  H   UNK A   0       4.153  24.485  52.034  1.00  0.00     0.170 HD
ATOM     18  H   TRP A   1       3.929  25.125  49.991  1.00  0.00     0.164 HD
BRANCH  15  19
HETATM   19  C   UNK A   0       5.927  24.476  53.103  1.00  0.00     0.036 A 
HETATM   20  C   UNK A   0       6.941  23.536  52.899  1.00  0.00     0.039 A 
HETATM   21  C   UNK A   0       7.722  23.152  53.979  1.00  0.00    -0.024 A 
HETATM   22  C   UNK A   0       7.519  23.680  55.242  1.00  0.00    -0.026 A 
HETATM   23  C   UNK A   0       8.859  22.200  54.020  1.00  0.00     0.207 C 
HETATM   24  C   UNK A   0       8.516  23.105  56.179  1.00  0.00     0.207 C 
HETATM   25  C   UNK A   0       6.524  24.611  55.473  1.00  0.00     0.012 A 
HETATM   26  O   UNK A   0       9.157  22.048  55.429  1.00  0.00    -0.382 OA
HETATM   27  C   UNK A   0       5.722  25.003  54.394  1.00  0.00     0.030 A 
ENDBRANCH  15  19
ENDBRANCH   1  13
BRANCH   1  28
ATOM     28  C   TRP A   1       4.462  26.363  47.795  1.00  0.00     0.189 C 
BRANCH  28  29
ATOM     29  O   TRP A   1       5.732  26.699  47.236  1.00  0.00    -0.399 OA
ATOM     30  H   TRP A   1       6.316  26.911  47.985  1.00  0.00     0.209 HD
ENDBRANCH  28  29
ENDBRANCH   1  28
TORSDOF 6
ENDMDL
