MODEL 1
REMARK VINA RESULT:      -9.9      0.000      0.000
REMARK  5 active torsions:
REMARK  status: ('A' for Active; 'I' for Inactive)
REMARK    1  A    between atoms: C_12  and  C_13 
REMARK    2  A    between atoms: C_13  and  N_14 
REMARK    3  A    between atoms: N_14  and  C_15 
REMARK    4  A    between atoms: C_16  and  O_17 
REMARK    5  A    between atoms: C_19  and  O_20 
ROOT
HETATM    1  C   UNL     1       8.096  20.170  55.856  1.00  0.00     0.049 C 
HETATM    2  C   UNL     1       7.996  21.521  55.199  1.00  0.00    -0.055 A 
HETATM    3  C   UNL     1       8.099  21.671  53.800  1.00  0.00    -0.054 A 
HETATM    4  C   UNL     1       8.276  20.484  52.892  1.00  0.00     0.049 C 
HETATM    5  C   UNL     1       7.994  22.953  53.235  1.00  0.00     0.037 A 
HETATM    6  C   UNL     1       7.822  24.069  54.050  1.00  0.00     0.045 A 
HETATM    7  C   UNL     1       7.745  23.933  55.438  1.00  0.00    -0.008 A 
HETATM    8  C   UNL     1       7.833  22.660  56.007  1.00  0.00     0.021 A 
HETATM    9  N   UNL     1       7.725  25.345  53.483  1.00  0.00    -0.322 N 
HETATM   10  C   UNL     1       7.553  26.490  54.214  1.00  0.00     0.253 A 
HETATM   11  O   UNL     1       7.458  27.588  53.670  1.00  0.00    -0.268 OA
HETATM   12  C   UNL     1       7.483  26.347  55.697  1.00  0.00     0.024 A 
HETATM   13  C   UNL     1       7.580  25.130  56.261  1.00  0.00     0.027 A 
HETATM   14  H   UNL     1       7.770  25.460  52.479  1.00  0.00     0.169 HD
ENDROOT
BRANCH  12  15
HETATM   15  C   UNL     1       7.354  27.616  56.484  1.00  0.00     0.136 C 
BRANCH  15  16
HETATM   16  N   UNL     1       8.696  28.155  56.713  1.00  0.00    -0.286 NA
HETATM   17  H   UNL     1       9.242  27.436  57.205  1.00  0.00     0.128 HD
BRANCH  16  18
HETATM   18  C   UNL     1       8.786  29.340  57.479  1.00  0.00     0.042 A 
HETATM   19  C   UNL     1       9.955  30.108  57.335  1.00  0.00     0.089 A 
HETATM   20  C   UNL     1      10.205  31.245  58.092  1.00  0.00     0.074 A 
HETATM   21  C   UNL     1       9.261  31.624  59.036  1.00  0.00     0.068 A 
HETATM   22  C   UNL     1       8.102  30.877  59.226  1.00  0.00     0.038 A 
HETATM   23  C   UNL     1       7.870  29.729  58.460  1.00  0.00     0.029 A 
BRANCH  19  24
HETATM   24  O   UNL     1      10.873  29.729  56.388  1.00  0.00    -0.359 OA
HETATM   25  H   UNL     1      10.994  28.773  56.568  1.00  0.00     0.218 HD
ENDBRANCH  19  24
BRANCH  21  26
HETATM   26  O   UNL     1       9.437  32.731  59.812  1.00  0.00    -0.361 OA
HETATM   27  H   UNL     1       8.579  32.969  60.202  1.00  0.00     0.217 HD
ENDBRANCH  21  26
ENDBRANCH  16  18
ENDBRANCH  15  16
ENDBRANCH  12  15
TORSDOF 5
ENDMDL
MODEL 2
REMARK VINA RESULT:      -9.8      1.643      2.150
REMARK  5 active torsions:
REMARK  status: ('A' for Active; 'I' for Inactive)
REMARK    1  A    between atoms: C_12  and  C_13 
REMARK    2  A    between atoms: C_13  and  N_14 
REMARK    3  A    between atoms: N_14  and  C_15 
REMARK    4  A    between atoms: C_16  and  O_17 
REMARK    5  A    between atoms: C_19  and  O_20 
ROOT
HETATM    1  C   UNL     1       9.012  20.396  55.816  1.00  0.00     0.049 C 
HETATM    2  C   UNL     1       8.276  21.561  55.209  1.00  0.00    -0.055 A 
HETATM    3  C   UNL     1       8.012  21.626  53.824  1.00  0.00    -0.054 A 
HETATM    4  C   UNL     1       8.419  20.516  52.893  1.00  0.00     0.049 C 
HETATM    5  C   UNL     1       7.318  22.732  53.307  1.00  0.00     0.037 A 
HETATM    6  C   UNL     1       6.923  23.770  54.147  1.00  0.00     0.045 A 
HETATM    7  C   UNL     1       7.203  23.726  55.514  1.00  0.00    -0.008 A 
HETATM    8  C   UNL     1       7.879  22.623  56.040  1.00  0.00     0.021 A 
HETATM    9  N   UNL     1       6.237  24.874  53.625  1.00  0.00    -0.322 N 
HETATM   10  C   UNL     1       5.813  25.932  54.384  1.00  0.00     0.253 A 
HETATM   11  O   UNL     1       5.201  26.873  53.883  1.00  0.00    -0.268 OA
HETATM   12  C   UNL     1       6.123  25.892  55.843  1.00  0.00     0.024 A 
HETATM   13  C   UNL     1       6.785  24.843  56.362  1.00  0.00     0.027 A 
HETATM   14  H   UNL     1       6.018  24.917  52.639  1.00  0.00     0.169 HD
ENDROOT
BRANCH  12  15
HETATM   15  C   UNL     1       5.704  27.086  56.646  1.00  0.00     0.136 C 
BRANCH  15  16
HETATM   16  N   UNL     1       6.151  28.292  55.947  1.00  0.00    -0.286 NA
HETATM   17  H   UNL     1       6.131  28.095  54.939  1.00  0.00     0.128 HD
BRANCH  16  18
HETATM   18  C   UNL     1       7.449  28.762  56.253  1.00  0.00     0.042 A 
HETATM   19  C   UNL     1       8.358  28.869  55.185  1.00  0.00     0.089 A 
HETATM   20  C   UNL     1       9.686  29.235  55.361  1.00  0.00     0.074 A 
HETATM   21  C   UNL     1      10.129  29.490  56.652  1.00  0.00     0.068 A 
HETATM   22  C   UNL     1       9.267  29.371  57.739  1.00  0.00     0.038 A 
HETATM   23  C   UNL     1       7.933  28.994  57.542  1.00  0.00     0.029 A 
BRANCH  19  24
HETATM   24  O   UNL     1       7.903  28.628  53.913  1.00  0.00    -0.359 OA
HETATM   25  H   UNL     1       8.526  27.947  53.580  1.00  0.00     0.218 HD
ENDBRANCH  19  24
BRANCH  21  26
HETATM   26  O   UNL     1      11.418  29.857  56.902  1.00  0.00    -0.361 OA
HETATM   27  H   UNL     1      11.986  29.079  56.776  1.00  0.00     0.217 HD
ENDBRANCH  21  26
ENDBRANCH  16  18
ENDBRANCH  15  16
ENDBRANCH  12  15
TORSDOF 5
ENDMDL
MODEL 3
REMARK VINA RESULT:      -9.8      9.849     13.709
REMARK  5 active torsions:
REMARK  status: ('A' for Active; 'I' for Inactive)
REMARK    1  A    between atoms: C_12  and  C_13 
REMARK    2  A    between atoms: C_13  and  N_14 
REMARK    3  A    between atoms: N_14  and  C_15 
REMARK    4  A    between atoms: C_16  and  O_17 
REMARK    5  A    between atoms: C_19  and  O_20 
ROOT
HETATM    1  C   UNL     1       9.093  32.016  61.894  1.00  0.00     0.049 C 
HETATM    2  C   UNL     1       7.845  32.446  62.617  1.00  0.00    -0.055 A 
HETATM    3  C   UNL     1       6.582  32.419  61.988  1.00  0.00    -0.054 A 
HETATM    4  C   UNL     1       6.415  31.922  60.578  1.00  0.00     0.049 C 
HETATM    5  C   UNL     1       5.446  32.828  62.707  1.00  0.00     0.037 A 
HETATM    6  C   UNL     1       5.570  33.285  64.017  1.00  0.00     0.045 A 
HETATM    7  C   UNL     1       6.819  33.340  64.638  1.00  0.00    -0.008 A 
HETATM    8  C   UNL     1       7.951  32.922  63.936  1.00  0.00     0.021 A 
HETATM    9  N   UNL     1       4.435  33.697  64.727  1.00  0.00    -0.322 N 
HETATM   10  C   UNL     1       4.472  34.156  66.017  1.00  0.00     0.253 A 
HETATM   11  O   UNL     1       3.447  34.493  66.605  1.00  0.00    -0.268 OA
HETATM   12  C   UNL     1       5.808  34.227  66.677  1.00  0.00     0.024 A 
HETATM   13  C   UNL     1       6.910  33.841  66.009  1.00  0.00     0.027 A 
HETATM   14  H   UNL     1       3.522  33.655  64.295  1.00  0.00     0.169 HD
ENDROOT
BRANCH  12  15
HETATM   15  C   UNL     1       5.836  34.789  68.066  1.00  0.00     0.136 C 
BRANCH  15  16
HETATM   16  N   UNL     1       5.425  33.737  68.997  1.00  0.00    -0.286 NA
HETATM   17  H   UNL     1       4.583  34.064  69.488  1.00  0.00     0.128 HD
BRANCH  16  18
HETATM   18  C   UNL     1       6.362  33.361  69.988  1.00  0.00     0.042 A 
HETATM   19  C   UNL     1       6.052  32.230  70.764  1.00  0.00     0.089 A 
HETATM   20  C   UNL     1       6.843  31.806  71.824  1.00  0.00     0.074 A 
HETATM   21  C   UNL     1       7.978  32.544  72.130  1.00  0.00     0.068 A 
HETATM   22  C   UNL     1       8.306  33.684  71.401  1.00  0.00     0.038 A 
HETATM   23  C   UNL     1       7.492  34.101  70.341  1.00  0.00     0.029 A 
BRANCH  19  24
HETATM   24  O   UNL     1       4.934  31.502  70.442  1.00  0.00    -0.359 OA
HETATM   25  H   UNL     1       5.075  31.289  69.495  1.00  0.00     0.218 HD
ENDBRANCH  19  24
BRANCH  21  26
HETATM   26  O   UNL     1       8.804  32.186  73.154  1.00  0.00    -0.361 OA
HETATM   27  H   UNL     1       8.692  31.235  73.318  1.00  0.00     0.217 HD
ENDBRANCH  21  26
ENDBRANCH  16  18
ENDBRANCH  15  16
ENDBRANCH  12  15
TORSDOF 5
ENDMDL
MODEL 4
REMARK VINA RESULT:      -9.8      1.462      2.074
REMARK  5 active torsions:
REMARK  status: ('A' for Active; 'I' for Inactive)
REMARK    1  A    between atoms: C_12  and  C_13 
REMARK    2  A    between atoms: C_13  and  N_14 
REMARK    3  A    between atoms: N_14  and  C_15 
REMARK    4  A    between atoms: C_16  and  O_17 
REMARK    5  A    between atoms: C_19  and  O_20 
ROOT
HETATM    1  C   UNL     1       7.980  20.979  52.914  1.00  0.00     0.049 C 
HETATM    2  C   UNL     1       7.992  21.857  54.137  1.00  0.00    -0.055 A 
HETATM    3  C   UNL     1       8.156  21.319  55.431  1.00  0.00    -0.054 A 
HETATM    4  C   UNL     1       8.366  19.845  55.649  1.00  0.00     0.049 C 
HETATM    5  C   UNL     1       8.164  22.181  56.540  1.00  0.00     0.037 A 
HETATM    6  C   UNL     1       7.980  23.551  56.367  1.00  0.00     0.045 A 
HETATM    7  C   UNL     1       7.791  24.089  55.092  1.00  0.00    -0.008 A 
HETATM    8  C   UNL     1       7.796  23.241  53.983  1.00  0.00     0.021 A 
HETATM    9  N   UNL     1       7.983  24.406  57.476  1.00  0.00    -0.322 N 
HETATM   10  C   UNL     1       7.811  25.761  57.390  1.00  0.00     0.253 A 
HETATM   11  O   UNL     1       7.836  26.473  58.391  1.00  0.00    -0.268 OA
HETATM   12  C   UNL     1       7.596  26.336  56.030  1.00  0.00     0.024 A 
HETATM   13  C   UNL     1       7.585  25.531  54.953  1.00  0.00     0.027 A 
HETATM   14  H   UNL     1       8.128  24.033  58.405  1.00  0.00     0.169 HD
ENDROOT
BRANCH  12  15
HETATM   15  C   UNL     1       7.351  27.813  55.962  1.00  0.00     0.136 C 
BRANCH  15  16
HETATM   16  N   UNL     1       8.637  28.501  56.085  1.00  0.00    -0.286 NA
HETATM   17  H   UNL     1       9.330  27.813  56.406  1.00  0.00     0.128 HD
BRANCH  16  18
HETATM   18  C   UNL     1       8.693  29.594  56.980  1.00  0.00     0.042 A 
HETATM   19  C   UNL     1       9.958  30.158  57.222  1.00  0.00     0.089 A 
HETATM   20  C   UNL     1      10.163  31.178  58.142  1.00  0.00     0.074 A 
HETATM   21  C   UNL     1       9.068  31.644  58.857  1.00  0.00     0.068 A 
HETATM   22  C   UNL     1       7.803  31.096  58.664  1.00  0.00     0.038 A 
HETATM   23  C   UNL     1       7.617  30.063  57.738  1.00  0.00     0.029 A 
BRANCH  19  24
HETATM   24  O   UNL     1      11.028  29.697  56.498  1.00  0.00    -0.359 OA
HETATM   25  H   UNL     1      10.605  29.177  55.783  1.00  0.00     0.218 HD
ENDBRANCH  19  24
BRANCH  21  26
HETATM   26  O   UNL     1       9.192  32.646  59.775  1.00  0.00    -0.361 OA
HETATM   27  H   UNL     1       8.434  32.599  60.381  1.00  0.00     0.217 HD
ENDBRANCH  21  26
ENDBRANCH  16  18
ENDBRANCH  15  16
ENDBRANCH  12  15
TORSDOF 5
ENDMDL
MODEL 5
REMARK VINA RESULT:      -9.4      3.566      6.431
REMARK  5 active torsions:
REMARK  status: ('A' for Active; 'I' for Inactive)
REMARK    1  A    between atoms: C_12  and  C_13 
REMARK    2  A    between atoms: C_13  and  N_14 
REMARK    3  A    between atoms: N_14  and  C_15 
REMARK    4  A    between atoms: C_16  and  O_17 
REMARK    5  A    between atoms: C_19  and  O_20 
ROOT
HETATM    1  C   UNL     1       8.349  20.390  52.877  1.00  0.00     0.049 C 
HETATM    2  C   UNL     1       8.061  21.624  53.689  1.00  0.00    -0.055 A 
HETATM    3  C   UNL     1       7.885  21.563  55.088  1.00  0.00    -0.054 A 
HETATM    4  C   UNL     1       8.015  20.266  55.841  1.00  0.00     0.049 C 
HETATM    5  C   UNL     1       7.622  22.744  55.801  1.00  0.00     0.037 A 
HETATM    6  C   UNL     1       7.503  23.959  55.130  1.00  0.00     0.045 A 
HETATM    7  C   UNL     1       7.650  24.025  53.743  1.00  0.00    -0.008 A 
HETATM    8  C   UNL     1       7.926  22.858  53.028  1.00  0.00     0.021 A 
HETATM    9  N   UNL     1       7.234  25.133  55.846  1.00  0.00    -0.322 N 
HETATM   10  C   UNL     1       7.106  26.364  55.262  1.00  0.00     0.253 A 
HETATM   11  O   UNL     1       6.884  27.369  55.933  1.00  0.00    -0.268 OA
HETATM   12  C   UNL     1       7.250  26.434  53.778  1.00  0.00     0.024 A 
HETATM   13  C   UNL     1       7.503  25.317  53.074  1.00  0.00     0.027 A 
HETATM   14  H   UNL     1       7.135  25.104  56.851  1.00  0.00     0.169 HD
ENDROOT
BRANCH  12  15
HETATM   15  C   UNL     1       7.047  27.780  53.152  1.00  0.00     0.136 C 
BRANCH  15  16
HETATM   16  N   UNL     1       5.661  27.870  52.690  1.00  0.00    -0.286 NA
HETATM   17  H   UNL     1       5.119  27.150  53.185  1.00  0.00     0.128 HD
BRANCH  16  18
HETATM   18  C   UNL     1       5.435  27.680  51.307  1.00  0.00     0.042 A 
HETATM   19  C   UNL     1       5.544  28.813  50.480  1.00  0.00     0.089 A 
HETATM   20  C   UNL     1       5.265  28.780  49.120  1.00  0.00     0.074 A 
HETATM   21  C   UNL     1       4.849  27.578  48.566  1.00  0.00     0.068 A 
HETATM   22  C   UNL     1       4.705  26.440  49.355  1.00  0.00     0.038 A 
HETATM   23  C   UNL     1       4.984  26.493  50.726  1.00  0.00     0.029 A 
BRANCH  19  24
HETATM   24  O   UNL     1       5.970  29.991  51.039  1.00  0.00    -0.359 OA
HETATM   25  H   UNL     1       5.684  29.910  51.974  1.00  0.00     0.218 HD
ENDBRANCH  19  24
BRANCH  21  26
HETATM   26  O   UNL     1       4.560  27.469  47.238  1.00  0.00    -0.361 OA
HETATM   27  H   UNL     1       3.755  26.933  47.144  1.00  0.00     0.217 HD
ENDBRANCH  21  26
ENDBRANCH  16  18
ENDBRANCH  15  16
ENDBRANCH  12  15
TORSDOF 5
ENDMDL
MODEL 6
REMARK VINA RESULT:      -9.2      1.868      2.459
REMARK  5 active torsions:
REMARK  status: ('A' for Active; 'I' for Inactive)
REMARK    1  A    between atoms: C_12  and  C_13 
REMARK    2  A    between atoms: C_13  and  N_14 
REMARK    3  A    between atoms: N_14  and  C_15 
REMARK    4  A    between atoms: C_16  and  O_17 
REMARK    5  A    between atoms: C_19  and  O_20 
ROOT
HETATM    1  C   UNL     1       8.106  20.871  56.163  1.00  0.00     0.049 C 
HETATM    2  C   UNL     1       7.796  21.907  55.115  1.00  0.00    -0.055 A 
HETATM    3  C   UNL     1       8.121  21.704  53.758  1.00  0.00    -0.054 A 
HETATM    4  C   UNL     1       8.758  20.426  53.283  1.00  0.00     0.049 C 
HETATM    5  C   UNL     1       7.808  22.701  52.818  1.00  0.00     0.037 A 
HETATM    6  C   UNL     1       7.211  23.891  53.228  1.00  0.00     0.045 A 
HETATM    7  C   UNL     1       6.910  24.111  54.573  1.00  0.00    -0.008 A 
HETATM    8  C   UNL     1       7.204  23.119  55.512  1.00  0.00     0.021 A 
HETATM    9  N   UNL     1       6.906  24.884  52.288  1.00  0.00    -0.322 N 
HETATM   10  C   UNL     1       6.318  26.078  52.610  1.00  0.00     0.253 A 
HETATM   11  O   UNL     1       6.056  26.913  51.748  1.00  0.00    -0.268 OA
HETATM   12  C   UNL     1       6.007  26.319  54.049  1.00  0.00     0.024 A 
HETATM   13  C   UNL     1       6.298  25.380  54.966  1.00  0.00     0.027 A 
HETATM   14  H   UNL     1       7.110  24.736  51.309  1.00  0.00     0.169 HD
ENDROOT
BRANCH  12  15
HETATM   15  C   UNL     1       5.420  27.655  54.388  1.00  0.00     0.136 C 
BRANCH  15  16
HETATM   16  N   UNL     1       6.513  28.617  54.534  1.00  0.00    -0.286 NA
HETATM   17  H   UNL     1       7.300  28.285  53.962  1.00  0.00     0.128 HD
BRANCH  16  18
HETATM   18  C   UNL     1       7.011  28.824  55.842  1.00  0.00     0.042 A 
HETATM   19  C   UNL     1       6.364  29.797  56.625  1.00  0.00     0.089 A 
HETATM   20  C   UNL     1       6.806  30.157  57.891  1.00  0.00     0.074 A 
HETATM   21  C   UNL     1       7.940  29.533  58.391  1.00  0.00     0.068 A 
HETATM   22  C   UNL     1       8.622  28.582  57.637  1.00  0.00     0.038 A 
HETATM   23  C   UNL     1       8.168  28.237  56.359  1.00  0.00     0.029 A 
BRANCH  19  24
HETATM   24  O   UNL     1       5.236  30.395  56.124  1.00  0.00    -0.359 OA
HETATM   25  H   UNL     1       5.592  31.010  55.447  1.00  0.00     0.218 HD
ENDBRANCH  19  24
BRANCH  21  26
HETATM   26  O   UNL     1       8.430  29.833  59.628  1.00  0.00    -0.361 OA
HETATM   27  H   UNL     1       7.681  30.055  60.207  1.00  0.00     0.217 HD
ENDBRANCH  21  26
ENDBRANCH  16  18
ENDBRANCH  15  16
ENDBRANCH  12  15
TORSDOF 5
ENDMDL
MODEL 7
REMARK VINA RESULT:      -9.1      4.821     10.440
REMARK  5 active torsions:
REMARK  status: ('A' for Active; 'I' for Inactive)
REMARK    1  A    between atoms: C_12  and  C_13 
REMARK    2  A    between atoms: C_13  and  N_14 
REMARK    3  A    between atoms: N_14  and  C_15 
REMARK    4  A    between atoms: C_16  and  O_17 
REMARK    5  A    between atoms: C_19  and  O_20 
ROOT
HETATM    1  C   UNL     1       6.887  34.080  66.574  1.00  0.00     0.049 C 
HETATM    2  C   UNL     1       6.719  33.905  65.089  1.00  0.00    -0.055 A 
HETATM    3  C   UNL     1       5.689  34.560  64.380  1.00  0.00    -0.054 A 
HETATM    4  C   UNL     1       4.732  35.495  65.069  1.00  0.00     0.049 C 
HETATM    5  C   UNL     1       5.577  34.368  62.993  1.00  0.00     0.037 A 
HETATM    6  C   UNL     1       6.455  33.514  62.329  1.00  0.00     0.045 A 
HETATM    7  C   UNL     1       7.460  32.841  63.026  1.00  0.00    -0.008 A 
HETATM    8  C   UNL     1       7.588  33.039  64.402  1.00  0.00     0.021 A 
HETATM    9  N   UNL     1       6.335  33.320  60.947  1.00  0.00    -0.322 N 
HETATM   10  C   UNL     1       7.158  32.501  60.221  1.00  0.00     0.253 A 
HETATM   11  O   UNL     1       7.023  32.374  59.006  1.00  0.00    -0.268 OA
HETATM   12  C   UNL     1       8.225  31.773  60.967  1.00  0.00     0.024 A 
HETATM   13  C   UNL     1       8.352  31.941  62.295  1.00  0.00     0.027 A 
HETATM   14  H   UNL     1       5.618  33.807  60.425  1.00  0.00     0.169 HD
ENDROOT
BRANCH  12  15
HETATM   15  C   UNL     1       9.076  30.835  60.166  1.00  0.00     0.136 C 
BRANCH  15  16
HETATM   16  N   UNL     1       8.210  29.811  59.580  1.00  0.00    -0.286 NA
HETATM   17  H   UNL     1       8.423  28.918  60.044  1.00  0.00     0.128 HD
BRANCH  16  18
HETATM   18  C   UNL     1       8.331  29.593  58.189  1.00  0.00     0.042 A 
HETATM   19  C   UNL     1       7.138  29.423  57.463  1.00  0.00     0.089 A 
HETATM   20  C   UNL     1       7.120  29.118  56.108  1.00  0.00     0.074 A 
HETATM   21  C   UNL     1       8.335  28.964  55.455  1.00  0.00     0.068 A 
HETATM   22  C   UNL     1       9.538  29.100  56.144  1.00  0.00     0.038 A 
HETATM   23  C   UNL     1       9.537  29.400  57.511  1.00  0.00     0.029 A 
BRANCH  19  24
HETATM   24  O   UNL     1       5.945  29.591  58.118  1.00  0.00    -0.359 OA
HETATM   25  H   UNL     1       6.150  29.301  59.032  1.00  0.00     0.218 HD
ENDBRANCH  19  24
BRANCH  21  26
HETATM   26  O   UNL     1       8.396  28.668  54.125  1.00  0.00    -0.361 OA
HETATM   27  H   UNL     1       8.497  29.499  53.633  1.00  0.00     0.217 HD
ENDBRANCH  21  26
ENDBRANCH  16  18
ENDBRANCH  15  16
ENDBRANCH  12  15
TORSDOF 5
ENDMDL
MODEL 8
REMARK VINA RESULT:      -8.8      4.036      7.837
REMARK  5 active torsions:
REMARK  status: ('A' for Active; 'I' for Inactive)
REMARK    1  A    between atoms: C_12  and  C_13 
REMARK    2  A    between atoms: C_13  and  N_14 
REMARK    3  A    between atoms: N_14  and  C_15 
REMARK    4  A    between atoms: C_16  and  O_17 
REMARK    5  A    between atoms: C_19  and  O_20 
ROOT
HETATM    1  C   UNL     1       4.489  26.714  47.876  1.00  0.00     0.049 C 
HETATM    2  C   UNL     1       4.865  27.142  49.269  1.00  0.00    -0.055 A 
HETATM    3  C   UNL     1       5.188  28.482  49.568  1.00  0.00    -0.054 A 
HETATM    4  C   UNL     1       5.134  29.558  48.518  1.00  0.00     0.049 C 
HETATM    5  C   UNL     1       5.529  28.831  50.886  1.00  0.00     0.037 A 
HETATM    6  C   UNL     1       5.579  27.857  51.881  1.00  0.00     0.045 A 
HETATM    7  C   UNL     1       5.287  26.523  51.587  1.00  0.00    -0.008 A 
HETATM    8  C   UNL     1       4.933  26.171  50.284  1.00  0.00     0.021 A 
HETATM    9  N   UNL     1       5.926  28.209  53.191  1.00  0.00    -0.322 N 
HETATM   10  C   UNL     1       5.995  27.313  54.224  1.00  0.00     0.253 A 
HETATM   11  O   UNL     1       6.290  27.671  55.362  1.00  0.00    -0.268 OA
HETATM   12  C   UNL     1       5.696  25.885  53.910  1.00  0.00     0.024 A 
HETATM   13  C   UNL     1       5.366  25.527  52.656  1.00  0.00     0.027 A 
HETATM   14  H   UNL     1       6.131  29.171  53.422  1.00  0.00     0.169 HD
ENDROOT
BRANCH  12  15
HETATM   15  C   UNL     1       5.835  24.910  55.039  1.00  0.00     0.136 C 
BRANCH  15  16
HETATM   16  N   UNL     1       7.255  24.589  55.198  1.00  0.00    -0.286 NA
HETATM   17  H   UNL     1       7.783  25.164  54.530  1.00  0.00     0.128 HD
BRANCH  16  18
HETATM   18  C   UNL     1       7.632  23.244  54.977  1.00  0.00     0.042 A 
HETATM   19  C   UNL     1       8.134  22.531  56.080  1.00  0.00     0.089 A 
HETATM   20  C   UNL     1       8.619  21.234  55.979  1.00  0.00     0.074 A 
HETATM   21  C   UNL     1       8.616  20.629  54.730  1.00  0.00     0.068 A 
HETATM   22  C   UNL     1       8.150  21.310  53.609  1.00  0.00     0.038 A 
HETATM   23  C   UNL     1       7.672  22.620  53.728  1.00  0.00     0.029 A 
BRANCH  19  24
HETATM   24  O   UNL     1       8.119  23.136  57.311  1.00  0.00    -0.359 OA
HETATM   25  H   UNL     1       8.109  22.377  57.932  1.00  0.00     0.218 HD
ENDBRANCH  19  24
BRANCH  21  26
HETATM   26  O   UNL     1       9.073  19.356  54.555  1.00  0.00    -0.361 OA
HETATM   27  H   UNL     1       9.998  19.403  54.262  1.00  0.00     0.217 HD
ENDBRANCH  21  26
ENDBRANCH  16  18
ENDBRANCH  15  16
ENDBRANCH  12  15
TORSDOF 5
ENDMDL
MODEL 9
REMARK VINA RESULT:      -8.7      2.912      7.652
REMARK  5 active torsions:
REMARK  status: ('A' for Active; 'I' for Inactive)
REMARK    1  A    between atoms: C_12  and  C_13 
REMARK    2  A    between atoms: C_13  and  N_14 
REMARK    3  A    between atoms: N_14  and  C_15 
REMARK    4  A    between atoms: C_16  and  O_17 
REMARK    5  A    between atoms: C_19  and  O_20 
ROOT
HETATM    1  C   UNL     1      11.282  30.077  57.403  1.00  0.00     0.049 C 
HETATM    2  C   UNL     1       9.802  29.808  57.347  1.00  0.00    -0.055 A 
HETATM    3  C   UNL     1       8.943  30.184  58.402  1.00  0.00    -0.054 A 
HETATM    4  C   UNL     1       9.459  30.907  59.617  1.00  0.00     0.049 C 
HETATM    5  C   UNL     1       7.568  29.913  58.300  1.00  0.00     0.037 A 
HETATM    6  C   UNL     1       7.062  29.252  57.183  1.00  0.00     0.045 A 
HETATM    7  C   UNL     1       7.909  28.854  56.147  1.00  0.00    -0.008 A 
HETATM    8  C   UNL     1       9.274  29.131  56.233  1.00  0.00     0.021 A 
HETATM    9  N   UNL     1       5.692  28.979  57.090  1.00  0.00    -0.322 N 
HETATM   10  C   UNL     1       5.117  28.337  56.026  1.00  0.00     0.253 A 
HETATM   11  O   UNL     1       3.906  28.133  55.981  1.00  0.00    -0.268 OA
HETATM   12  C   UNL     1       6.022  27.900  54.924  1.00  0.00     0.024 A 
HETATM   13  C   UNL     1       7.342  28.148  54.998  1.00  0.00     0.027 A 
HETATM   14  H   UNL     1       5.064  29.270  57.828  1.00  0.00     0.169 HD
ENDROOT
BRANCH  12  15
HETATM   15  C   UNL     1       5.383  27.146  53.797  1.00  0.00     0.136 C 
BRANCH  15  16
HETATM   16  N   UNL     1       5.047  25.803  54.272  1.00  0.00    -0.286 NA
HETATM   17  H   UNL     1       4.832  25.871  55.275  1.00  0.00     0.128 HD
BRANCH  16  18
HETATM   18  C   UNL     1       6.040  24.808  54.127  1.00  0.00     0.042 A 
HETATM   19  C   UNL     1       6.632  24.318  55.305  1.00  0.00     0.089 A 
HETATM   20  C   UNL     1       7.677  23.403  55.298  1.00  0.00     0.074 A 
HETATM   21  C   UNL     1       8.159  22.970  54.071  1.00  0.00     0.068 A 
HETATM   22  C   UNL     1       7.617  23.449  52.881  1.00  0.00     0.038 A 
HETATM   23  C   UNL     1       6.569  24.377  52.908  1.00  0.00     0.029 A 
BRANCH  19  24
HETATM   24  O   UNL     1       6.135  24.744  56.511  1.00  0.00    -0.359 OA
HETATM   25  H   UNL     1       5.465  25.412  56.252  1.00  0.00     0.218 HD
ENDBRANCH  19  24
BRANCH  21  26
HETATM   26  O   UNL     1       9.180  22.071  53.985  1.00  0.00    -0.361 OA
HETATM   27  H   UNL     1       9.513  22.074  53.072  1.00  0.00     0.217 HD
ENDBRANCH  21  26
ENDBRANCH  16  18
ENDBRANCH  15  16
ENDBRANCH  12  15
TORSDOF 5
ENDMDL
MODEL 10
REMARK VINA RESULT:      -8.6      2.951      8.228
REMARK  5 active torsions:
REMARK  status: ('A' for Active; 'I' for Inactive)
REMARK    1  A    between atoms: C_12  and  C_13 
REMARK    2  A    between atoms: C_13  and  N_14 
REMARK    3  A    between atoms: N_14  and  C_15 
REMARK    4  A    between atoms: C_16  and  O_17 
REMARK    5  A    between atoms: C_19  and  O_20 
ROOT
HETATM    1  C   UNL     1       8.032  31.537  59.206  1.00  0.00     0.049 C 
HETATM    2  C   UNL     1       7.361  30.455  58.403  1.00  0.00    -0.055 A 
HETATM    3  C   UNL     1       6.179  30.703  57.673  1.00  0.00    -0.054 A 
HETATM    4  C   UNL     1       5.552  32.070  57.631  1.00  0.00     0.049 C 
HETATM    5  C   UNL     1       5.594  29.660  56.936  1.00  0.00     0.037 A 
HETATM    6  C   UNL     1       6.157  28.386  56.951  1.00  0.00     0.045 A 
HETATM    7  C   UNL     1       7.312  28.126  57.691  1.00  0.00    -0.008 A 
HETATM    8  C   UNL     1       7.908  29.160  58.415  1.00  0.00     0.021 A 
HETATM    9  N   UNL     1       5.566  27.349  56.219  1.00  0.00    -0.322 N 
HETATM   10  C   UNL     1       6.058  26.072  56.180  1.00  0.00     0.253 A 
HETATM   11  O   UNL     1       5.513  25.197  55.511  1.00  0.00    -0.268 OA
HETATM   12  C   UNL     1       7.285  25.789  56.980  1.00  0.00     0.024 A 
HETATM   13  C   UNL     1       7.864  26.772  57.694  1.00  0.00     0.027 A 
HETATM   14  H   UNL     1       4.734  27.523  55.670  1.00  0.00     0.169 HD
ENDROOT
BRANCH  12  15
HETATM   15  C   UNL     1       7.774  24.373  56.973  1.00  0.00     0.136 C 
BRANCH  15  16
HETATM   16  N   UNL     1       8.798  24.244  55.934  1.00  0.00    -0.286 NA
HETATM   17  H   UNL     1       8.745  25.079  55.337  1.00  0.00     0.128 HD
BRANCH  16  18
HETATM   18  C   UNL     1       8.704  23.119  55.083  1.00  0.00     0.042 A 
HETATM   19  C   UNL     1       8.112  23.319  53.823  1.00  0.00     0.089 A 
HETATM   20  C   UNL     1       7.882  22.282  52.927  1.00  0.00     0.074 A 
HETATM   21  C   UNL     1       8.244  20.997  53.306  1.00  0.00     0.068 A 
HETATM   22  C   UNL     1       8.811  20.754  54.554  1.00  0.00     0.038 A 
HETATM   23  C   UNL     1       9.029  21.811  55.447  1.00  0.00     0.029 A 
BRANCH  19  24
HETATM   24  O   UNL     1       7.771  24.596  53.456  1.00  0.00    -0.359 OA
HETATM   25  H   UNL     1       8.508  24.861  52.865  1.00  0.00     0.218 HD
ENDBRANCH  19  24
BRANCH  21  26
HETATM   26  O   UNL     1       8.052  19.931  52.478  1.00  0.00    -0.361 OA
HETATM   27  H   UNL     1       7.960  20.263  51.570  1.00  0.00     0.217 HD
ENDBRANCH  21  26
ENDBRANCH  16  18
ENDBRANCH  15  16
ENDBRANCH  12  15
TORSDOF 5
ENDMDL
