MODEL 1
REMARK VINA RESULT:      -9.8      0.000      0.000
REMARK  6 active torsions:
REMARK  status: ('A' for Active; 'I' for Inactive)
REMARK    1  A    between atoms: C_2  and  C_3 
REMARK    2  A    between atoms: C_7  and  C_8 
REMARK       I    between atoms: C_8  and  N_9 
REMARK    3  A    between atoms: N_9  and  C_10 
REMARK    4  A    between atoms: C_10  and  C_11 
REMARK    5  A    between atoms: C_11  and  N_12 
REMARK    6  A    between atoms: C_15  and  C_16 
ROOT
HETATM    1  C   UNL     1       7.067  27.954  57.423  1.00  0.00     0.150 C 
ENDROOT
BRANCH   1   2
HETATM    2  N   UNL     1       7.148  28.926  58.484  1.00  0.00    -0.354 N 
HETATM    3  C   UNL     1       8.144  29.884  58.530  1.00  0.00     0.272 C 
HETATM    4  O   UNL     1       8.911  30.062  57.585  1.00  0.00    -0.266 OA
HETATM    5  H   UNL     1       6.668  28.796  59.378  1.00  0.00     0.162 HD
BRANCH   3   6
HETATM    6  C   UNL     1       8.165  30.636  59.796  1.00  0.00     0.152 A 
HETATM    7  N   UNL     1       9.066  30.315  60.749  1.00  0.00    -0.169 NA
HETATM    8  N   UNL     1       8.819  31.183  61.742  1.00  0.00    -0.281 N 
HETATM    9  C   UNL     1       7.792  32.044  61.477  1.00  0.00     0.036 A 
HETATM   10  H   UNL     1       9.389  31.137  62.582  1.00  0.00     0.189 HD
HETATM   11  C   UNL     1       7.336  31.721  60.212  1.00  0.00    -0.002 A 
HETATM   12  C   UNL     1       6.230  32.375  59.466  1.00  0.00     0.053 C 
BRANCH   9  13
HETATM   13  C   UNL     1       7.363  33.081  62.459  1.00  0.00     0.055 C 
HETATM   14  C   UNL     1       7.891  32.781  63.854  1.00  0.00     0.011 C 
ENDBRANCH   9  13
ENDBRANCH   3   6
ENDBRANCH   1   2
BRANCH   1  15
HETATM   15  C   UNL     1       8.172  26.882  57.504  1.00  0.00     0.254 C 
BRANCH  15  16
HETATM   16  N   UNL     1       7.586  25.492  57.678  1.00  0.00    -0.069 N 
HETATM   17  H   UNL     1       7.556  25.283  58.685  1.00  0.00     0.280 HD
HETATM   18  C   UNL     1       8.347  24.395  56.961  1.00  0.00     0.244 C 
HETATM   19  C   UNL     1       7.763  24.377  55.545  1.00  0.00     0.046 C 
HETATM   20  C   UNL     1       6.361  24.989  55.667  1.00  0.00     0.039 C 
HETATM   21  C   UNL     1       6.184  25.364  57.127  1.00  0.00     0.235 C 
BRANCH  19  22
HETATM   22  C   UNL     1       7.813  22.994  54.927  1.00  0.00    -0.046 A 
HETATM   23  C   UNL     1       7.907  22.810  53.528  1.00  0.00    -0.055 A 
HETATM   24  C   UNL     1       7.922  23.961  52.556  1.00  0.00     0.049 C 
HETATM   25  C   UNL     1       7.978  21.506  53.007  1.00  0.00     0.007 A 
HETATM   26  C   UNL     1       7.962  20.395  53.847  1.00  0.00     0.001 A 
HETATM   27  C   UNL     1       7.873  20.568  55.220  1.00  0.00     0.001 A 
HETATM   28  C   UNL     1       7.798  21.854  55.756  1.00  0.00     0.008 A 
ENDBRANCH  19  22
ENDBRANCH  15  16
ENDBRANCH   1  15
TORSDOF 6
ENDMDL
MODEL 2
REMARK VINA RESULT:      -9.7      2.139      3.499
REMARK  6 active torsions:
REMARK  status: ('A' for Active; 'I' for Inactive)
REMARK    1  A    between atoms: C_2  and  C_3 
REMARK    2  A    between atoms: C_7  and  C_8 
REMARK       I    between atoms: C_8  and  N_9 
REMARK    3  A    between atoms: N_9  and  C_10 
REMARK    4  A    between atoms: C_10  and  C_11 
REMARK    5  A    between atoms: C_11  and  N_12 
REMARK    6  A    between atoms: C_15  and  C_16 
ROOT
HETATM    1  C   UNL     1       5.570  27.174  55.119  1.00  0.00     0.150 C 
ENDROOT
BRANCH   1   2
HETATM    2  N   UNL     1       6.244  28.228  55.837  1.00  0.00    -0.354 N 
HETATM    3  C   UNL     1       7.422  28.011  56.527  1.00  0.00     0.272 C 
HETATM    4  O   UNL     1       8.042  26.954  56.427  1.00  0.00    -0.266 OA
HETATM    5  H   UNL     1       5.767  29.091  56.107  1.00  0.00     0.162 HD
BRANCH   3   6
HETATM    6  C   UNL     1       7.825  29.160  57.356  1.00  0.00     0.152 A 
HETATM    7  N   UNL     1       6.895  29.828  58.071  1.00  0.00    -0.169 NA
HETATM    8  N   UNL     1       7.590  30.786  58.702  1.00  0.00    -0.281 N 
HETATM    9  C   UNL     1       8.926  30.773  58.421  1.00  0.00     0.036 A 
HETATM   10  H   UNL     1       7.091  31.424  59.316  1.00  0.00     0.189 HD
HETATM   11  C   UNL     1       9.124  29.722  57.543  1.00  0.00    -0.002 A 
HETATM   12  C   UNL     1      10.412  29.287  56.945  1.00  0.00     0.053 C 
BRANCH   9  13
HETATM   13  C   UNL     1       9.866  31.761  59.023  1.00  0.00     0.055 C 
HETATM   14  C   UNL     1       9.476  32.103  60.453  1.00  0.00     0.011 C 
ENDBRANCH   9  13
ENDBRANCH   3   6
ENDBRANCH   1   2
BRANCH   1  15
HETATM   15  C   UNL     1       5.946  27.128  53.625  1.00  0.00     0.254 C 
BRANCH  15  16
HETATM   16  N   UNL     1       5.725  25.744  53.039  1.00  0.00    -0.069 N 
HETATM   17  H   UNL     1       4.732  25.662  52.785  1.00  0.00     0.280 HD
HETATM   18  C   UNL     1       6.102  24.603  53.963  1.00  0.00     0.244 C 
HETATM   19  C   UNL     1       7.598  24.381  53.716  1.00  0.00     0.046 C 
HETATM   20  C   UNL     1       7.874  24.937  52.313  1.00  0.00     0.039 C 
HETATM   21  C   UNL     1       6.553  25.482  51.802  1.00  0.00     0.235 C 
BRANCH  19  22
HETATM   22  C   UNL     1       8.001  22.936  53.930  1.00  0.00    -0.046 A 
HETATM   23  C   UNL     1       8.493  22.479  55.174  1.00  0.00    -0.055 A 
HETATM   24  C   UNL     1       8.690  23.393  56.355  1.00  0.00     0.049 C 
HETATM   25  C   UNL     1       8.828  21.122  55.328  1.00  0.00     0.007 A 
HETATM   26  C   UNL     1       8.676  20.221  54.277  1.00  0.00     0.001 A 
HETATM   27  C   UNL     1       8.191  20.662  53.054  1.00  0.00     0.001 A 
HETATM   28  C   UNL     1       7.857  22.005  52.881  1.00  0.00     0.008 A 
ENDBRANCH  19  22
ENDBRANCH  15  16
ENDBRANCH   1  15
TORSDOF 6
ENDMDL
MODEL 3
REMARK VINA RESULT:      -9.5      1.229      1.554
REMARK  6 active torsions:
REMARK  status: ('A' for Active; 'I' for Inactive)
REMARK    1  A    between atoms: C_2  and  C_3 
REMARK    2  A    between atoms: C_7  and  C_8 
REMARK       I    between atoms: C_8  and  N_9 
REMARK    3  A    between atoms: N_9  and  C_10 
REMARK    4  A    between atoms: C_10  and  C_11 
REMARK    5  A    between atoms: C_11  and  N_12 
REMARK    6  A    between atoms: C_15  and  C_16 
ROOT
HETATM    1  C   UNL     1       8.054  28.261  57.781  1.00  0.00     0.150 C 
ENDROOT
BRANCH   1   2
HETATM    2  N   UNL     1       7.767  29.329  58.705  1.00  0.00    -0.354 N 
HETATM    3  C   UNL     1       8.629  30.395  58.888  1.00  0.00     0.272 C 
HETATM    4  O   UNL     1       9.599  30.572  58.153  1.00  0.00    -0.266 OA
HETATM    5  H   UNL     1       7.082  29.227  59.457  1.00  0.00     0.162 HD
BRANCH   3   6
HETATM    6  C   UNL     1       8.250  31.257  60.020  1.00  0.00     0.152 A 
HETATM    7  N   UNL     1       7.421  32.304  59.815  1.00  0.00    -0.169 NA
HETATM    8  N   UNL     1       7.281  32.856  61.029  1.00  0.00    -0.281 N 
HETATM    9  C   UNL     1       7.988  32.218  62.009  1.00  0.00     0.036 A 
HETATM   10  H   UNL     1       6.685  33.673  61.126  1.00  0.00     0.189 HD
HETATM   11  C   UNL     1       8.637  31.164  61.390  1.00  0.00    -0.002 A 
HETATM   12  C   UNL     1       9.530  30.164  62.031  1.00  0.00     0.053 C 
BRANCH   9  13
HETATM   13  C   UNL     1       7.965  32.684  63.425  1.00  0.00     0.055 C 
HETATM   14  C   UNL     1       6.549  32.997  63.886  1.00  0.00     0.011 C 
ENDBRANCH   9  13
ENDBRANCH   3   6
ENDBRANCH   1   2
BRANCH   1  15
HETATM   15  C   UNL     1       6.791  27.704  57.094  1.00  0.00     0.254 C 
BRANCH  15  16
HETATM   16  N   UNL     1       6.627  26.216  57.354  1.00  0.00    -0.069 N 
HETATM   17  H   UNL     1       6.707  26.061  58.368  1.00  0.00     0.280 HD
HETATM   18  C   UNL     1       7.628  25.338  56.631  1.00  0.00     0.244 C 
HETATM   19  C   UNL     1       7.002  25.085  55.257  1.00  0.00     0.046 C 
HETATM   20  C   UNL     1       5.492  25.289  55.443  1.00  0.00     0.039 C 
HETATM   21  C   UNL     1       5.292  25.676  56.898  1.00  0.00     0.235 C 
BRANCH  19  22
HETATM   22  C   UNL     1       7.406  23.740  54.686  1.00  0.00    -0.046 A 
HETATM   23  C   UNL     1       7.760  23.587  53.326  1.00  0.00    -0.055 A 
HETATM   24  C   UNL     1       7.723  24.728  52.343  1.00  0.00     0.049 C 
HETATM   25  C   UNL     1       8.154  22.323  52.854  1.00  0.00     0.007 A 
HETATM   26  C   UNL     1       8.206  21.221  53.705  1.00  0.00     0.001 A 
HETATM   27  C   UNL     1       7.863  21.365  55.042  1.00  0.00     0.001 A 
HETATM   28  C   UNL     1       7.465  22.610  55.529  1.00  0.00     0.008 A 
ENDBRANCH  19  22
ENDBRANCH  15  16
ENDBRANCH   1  15
TORSDOF 6
ENDMDL
MODEL 4
REMARK VINA RESULT:      -9.2      6.144      9.226
REMARK  6 active torsions:
REMARK  status: ('A' for Active; 'I' for Inactive)
REMARK    1  A    between atoms: C_2  and  C_3 
REMARK    2  A    between atoms: C_7  and  C_8 
REMARK       I    between atoms: C_8  and  N_9 
REMARK    3  A    between atoms: N_9  and  C_10 
REMARK    4  A    between atoms: C_10  and  C_11 
REMARK    5  A    between atoms: C_11  and  N_12 
REMARK    6  A    between atoms: C_15  and  C_16 
ROOT
HETATM    1  C   UNL     1       4.914  28.109  53.339  1.00  0.00     0.150 C 
ENDROOT
BRANCH   1   2
HETATM    2  N   UNL     1       4.143  27.787  52.165  1.00  0.00    -0.354 N 
HETATM    3  C   UNL     1       4.361  28.407  50.949  1.00  0.00     0.272 C 
HETATM    4  O   UNL     1       5.330  29.141  50.765  1.00  0.00    -0.266 OA
HETATM    5  H   UNL     1       3.240  27.311  52.222  1.00  0.00     0.162 HD
BRANCH   3   6
HETATM    6  C   UNL     1       3.334  28.086  49.944  1.00  0.00     0.152 A 
HETATM    7  N   UNL     1       2.083  28.574  50.087  1.00  0.00    -0.169 NA
HETATM    8  N   UNL     1       1.423  28.106  49.017  1.00  0.00    -0.281 N 
HETATM    9  C   UNL     1       2.188  27.330  48.193  1.00  0.00     0.036 A 
HETATM   10  H   UNL     1       0.443  28.352  48.904  1.00  0.00     0.189 HD
HETATM   11  C   UNL     1       3.448  27.291  48.763  1.00  0.00    -0.002 A 
HETATM   12  C   UNL     1       4.644  26.581  48.242  1.00  0.00     0.053 C 
BRANCH   9  13
HETATM   13  C   UNL     1       1.634  26.715  46.954  1.00  0.00     0.055 C 
HETATM   14  C   UNL     1       0.462  27.517  46.408  1.00  0.00     0.011 C 
ENDBRANCH   9  13
ENDBRANCH   3   6
ENDBRANCH   1   2
BRANCH   1  15
HETATM   15  C   UNL     1       6.135  27.187  53.529  1.00  0.00     0.254 C 
BRANCH  15  16
HETATM   16  N   UNL     1       5.871  25.795  52.981  1.00  0.00    -0.069 N 
HETATM   17  H   UNL     1       4.882  25.747  52.701  1.00  0.00     0.280 HD
HETATM   18  C   UNL     1       6.174  24.670  53.950  1.00  0.00     0.244 C 
HETATM   19  C   UNL     1       7.664  24.378  53.753  1.00  0.00     0.046 C 
HETATM   20  C   UNL     1       8.003  24.876  52.342  1.00  0.00     0.039 C 
HETATM   21  C   UNL     1       6.720  25.460  51.777  1.00  0.00     0.235 C 
BRANCH  19  22
HETATM   22  C   UNL     1       7.999  22.925  54.024  1.00  0.00    -0.046 A 
HETATM   23  C   UNL     1       8.435  22.488  55.296  1.00  0.00    -0.055 A 
HETATM   24  C   UNL     1       8.637  23.431  56.454  1.00  0.00     0.049 C 
HETATM   25  C   UNL     1       8.708  21.124  55.501  1.00  0.00     0.007 A 
HETATM   26  C   UNL     1       8.549  20.197  54.474  1.00  0.00     0.001 A 
HETATM   27  C   UNL     1       8.119  20.618  53.224  1.00  0.00     0.001 A 
HETATM   28  C   UNL     1       7.848  21.968  52.999  1.00  0.00     0.008 A 
ENDBRANCH  19  22
ENDBRANCH  15  16
ENDBRANCH   1  15
TORSDOF 6
ENDMDL
MODEL 5
REMARK VINA RESULT:      -8.9      1.423      2.141
REMARK  6 active torsions:
REMARK  status: ('A' for Active; 'I' for Inactive)
REMARK    1  A    between atoms: C_2  and  C_3 
REMARK    2  A    between atoms: C_7  and  C_8 
REMARK       I    between atoms: C_8  and  N_9 
REMARK    3  A    between atoms: N_9  and  C_10 
REMARK    4  A    between atoms: C_10  and  C_11 
REMARK    5  A    between atoms: C_11  and  N_12 
REMARK    6  A    between atoms: C_15  and  C_16 
ROOT
HETATM    1  C   UNL     1       5.078  28.419  56.514  1.00  0.00     0.150 C 
ENDROOT
BRANCH   1   2
HETATM    2  N   UNL     1       5.633  29.245  57.557  1.00  0.00    -0.354 N 
HETATM    3  C   UNL     1       6.912  29.765  57.482  1.00  0.00     0.272 C 
HETATM    4  O   UNL     1       7.578  29.690  56.452  1.00  0.00    -0.266 OA
HETATM    5  H   UNL     1       5.242  29.260  58.502  1.00  0.00     0.162 HD
BRANCH   3   6
HETATM    6  C   UNL     1       7.352  30.398  58.737  1.00  0.00     0.152 A 
HETATM    7  N   UNL     1       8.333  29.824  59.466  1.00  0.00    -0.169 NA
HETATM    8  N   UNL     1       8.488  30.648  60.514  1.00  0.00    -0.281 N 
HETATM    9  C   UNL     1       7.646  31.723  60.499  1.00  0.00     0.036 A 
HETATM   10  H   UNL     1       9.190  30.419  61.212  1.00  0.00     0.189 HD
HETATM   11  C   UNL     1       6.884  31.599  59.350  1.00  0.00    -0.002 A 
HETATM   12  C   UNL     1       5.824  32.525  58.876  1.00  0.00     0.053 C 
BRANCH   9  13
HETATM   13  C   UNL     1       7.663  32.750  61.579  1.00  0.00     0.055 C 
HETATM   14  C   UNL     1       8.264  32.200  62.863  1.00  0.00     0.011 C 
ENDBRANCH   9  13
ENDBRANCH   3   6
ENDBRANCH   1   2
BRANCH   1  15
HETATM   15  C   UNL     1       5.318  26.914  56.746  1.00  0.00     0.254 C 
BRANCH  15  16
HETATM   16  N   UNL     1       5.233  26.131  55.446  1.00  0.00    -0.069 N 
HETATM   17  H   UNL     1       4.272  26.212  55.089  1.00  0.00     0.280 HD
HETATM   18  C   UNL     1       5.601  24.667  55.570  1.00  0.00     0.244 C 
HETATM   19  C   UNL     1       7.123  24.632  55.398  1.00  0.00     0.046 C 
HETATM   20  C   UNL     1       7.482  25.903  54.616  1.00  0.00     0.039 C 
HETATM   21  C   UNL     1       6.177  26.642  54.382  1.00  0.00     0.235 C 
BRANCH  19  22
HETATM   22  C   UNL     1       7.596  23.334  54.776  1.00  0.00    -0.046 A 
HETATM   23  C   UNL     1       8.155  22.297  55.556  1.00  0.00    -0.055 A 
HETATM   24  C   UNL     1       8.357  22.418  57.044  1.00  0.00     0.049 C 
HETATM   25  C   UNL     1       8.553  21.101  54.932  1.00  0.00     0.007 A 
HETATM   26  C   UNL     1       8.400  20.922  53.559  1.00  0.00     0.001 A 
HETATM   27  C   UNL     1       7.850  21.935  52.787  1.00  0.00     0.001 A 
HETATM   28  C   UNL     1       7.453  23.130  53.387  1.00  0.00     0.008 A 
ENDBRANCH  19  22
ENDBRANCH  15  16
ENDBRANCH   1  15
TORSDOF 6
ENDMDL
MODEL 6
REMARK VINA RESULT:      -8.9      1.827      2.915
REMARK  6 active torsions:
REMARK  status: ('A' for Active; 'I' for Inactive)
REMARK    1  A    between atoms: C_2  and  C_3 
REMARK    2  A    between atoms: C_7  and  C_8 
REMARK       I    between atoms: C_8  and  N_9 
REMARK    3  A    between atoms: N_9  and  C_10 
REMARK    4  A    between atoms: C_10  and  C_11 
REMARK    5  A    between atoms: C_11  and  N_12 
REMARK    6  A    between atoms: C_15  and  C_16 
ROOT
HETATM    1  C   UNL     1       6.589  29.942  57.451  1.00  0.00     0.150 C 
ENDROOT
BRANCH   1   2
HETATM    2  N   UNL     1       6.486  30.658  58.698  1.00  0.00    -0.354 N 
HETATM    3  C   UNL     1       7.511  31.452  59.178  1.00  0.00     0.272 C 
HETATM    4  O   UNL     1       8.493  31.722  58.489  1.00  0.00    -0.266 OA
HETATM    5  H   UNL     1       5.797  30.409  59.411  1.00  0.00     0.162 HD
BRANCH   3   6
HETATM    6  C   UNL     1       7.284  31.919  60.556  1.00  0.00     0.152 A 
HETATM    7  N   UNL     1       6.040  32.272  60.945  1.00  0.00    -0.169 NA
HETATM    8  N   UNL     1       6.186  32.630  62.230  1.00  0.00    -0.281 N 
HETATM    9  C   UNL     1       7.471  32.534  62.686  1.00  0.00     0.036 A 
HETATM   10  H   UNL     1       5.366  32.936  62.746  1.00  0.00     0.189 HD
HETATM   11  C   UNL     1       8.223  32.071  61.621  1.00  0.00    -0.002 A 
HETATM   12  C   UNL     1       9.682  31.793  61.611  1.00  0.00     0.053 C 
BRANCH   9  13
HETATM   13  C   UNL     1       7.837  32.891  64.086  1.00  0.00     0.055 C 
HETATM   14  C   UNL     1       6.903  33.950  64.654  1.00  0.00     0.011 C 
ENDBRANCH   9  13
ENDBRANCH   3   6
ENDBRANCH   1   2
BRANCH   1  15
HETATM   15  C   UNL     1       5.833  28.599  57.464  1.00  0.00     0.254 C 
BRANCH  15  16
HETATM   16  N   UNL     1       5.574  28.094  56.055  1.00  0.00    -0.069 N 
HETATM   17  H   UNL     1       4.602  28.324  55.809  1.00  0.00     0.280 HD
HETATM   18  C   UNL     1       5.801  26.608  55.869  1.00  0.00     0.244 C 
HETATM   19  C   UNL     1       7.295  26.479  55.554  1.00  0.00     0.046 C 
HETATM   20  C   UNL     1       7.720  27.842  54.993  1.00  0.00     0.039 C 
HETATM   21  C   UNL     1       6.482  28.720  55.022  1.00  0.00     0.235 C 
BRANCH  19  22
HETATM   22  C   UNL     1       7.587  25.291  54.659  1.00  0.00    -0.046 A 
HETATM   23  C   UNL     1       8.031  24.057  55.185  1.00  0.00    -0.055 A 
HETATM   24  C   UNL     1       8.283  23.843  56.655  1.00  0.00     0.049 C 
HETATM   25  C   UNL     1       8.262  22.978  54.313  1.00  0.00     0.007 A 
HETATM   26  C   UNL     1       8.055  23.105  52.942  1.00  0.00     0.001 A 
HETATM   27  C   UNL     1       7.617  24.313  52.419  1.00  0.00     0.001 A 
HETATM   28  C   UNL     1       7.386  25.396  53.267  1.00  0.00     0.008 A 
ENDBRANCH  19  22
ENDBRANCH  15  16
ENDBRANCH   1  15
TORSDOF 6
ENDMDL
MODEL 7
REMARK VINA RESULT:      -8.6      2.572      3.603
REMARK  6 active torsions:
REMARK  status: ('A' for Active; 'I' for Inactive)
REMARK    1  A    between atoms: C_2  and  C_3 
REMARK    2  A    between atoms: C_7  and  C_8 
REMARK       I    between atoms: C_8  and  N_9 
REMARK    3  A    between atoms: N_9  and  C_10 
REMARK    4  A    between atoms: C_10  and  C_11 
REMARK    5  A    between atoms: C_11  and  N_12 
REMARK    6  A    between atoms: C_15  and  C_16 
ROOT
HETATM    1  C   UNL     1       4.957  27.548  54.430  1.00  0.00     0.150 C 
ENDROOT
BRANCH   1   2
HETATM    2  N   UNL     1       5.413  28.587  55.320  1.00  0.00    -0.354 N 
HETATM    3  C   UNL     1       5.517  28.393  56.685  1.00  0.00     0.272 C 
HETATM    4  O   UNL     1       5.387  27.279  57.189  1.00  0.00    -0.266 OA
HETATM    5  H   UNL     1       5.414  29.572  55.048  1.00  0.00     0.162 HD
BRANCH   3   6
HETATM    6  C   UNL     1       5.799  29.635  57.425  1.00  0.00     0.152 A 
HETATM    7  N   UNL     1       7.060  29.904  57.823  1.00  0.00    -0.169 NA
HETATM    8  N   UNL     1       6.963  31.088  58.446  1.00  0.00    -0.281 N 
HETATM    9  C   UNL     1       5.694  31.592  58.476  1.00  0.00     0.036 A 
HETATM   10  H   UNL     1       7.805  31.504  58.834  1.00  0.00     0.189 HD
HETATM   11  C   UNL     1       4.899  30.671  57.817  1.00  0.00    -0.002 A 
HETATM   12  C   UNL     1       3.436  30.763  57.575  1.00  0.00     0.053 C 
BRANCH   9  13
HETATM   13  C   UNL     1       5.381  32.896  59.127  1.00  0.00     0.055 C 
HETATM   14  C   UNL     1       4.703  32.700  60.474  1.00  0.00     0.011 C 
ENDBRANCH   9  13
ENDBRANCH   3   6
ENDBRANCH   1   2
BRANCH   1  15
HETATM   15  C   UNL     1       6.023  27.128  53.399  1.00  0.00     0.254 C 
BRANCH  15  16
HETATM   16  N   UNL     1       5.779  25.716  52.892  1.00  0.00    -0.069 N 
HETATM   17  H   UNL     1       4.793  25.647  52.607  1.00  0.00     0.280 HD
HETATM   18  C   UNL     1       6.089  24.626  53.898  1.00  0.00     0.244 C 
HETATM   19  C   UNL     1       7.584  24.345  53.720  1.00  0.00     0.046 C 
HETATM   20  C   UNL     1       7.926  24.804  52.296  1.00  0.00     0.039 C 
HETATM   21  C   UNL     1       6.640  25.354  51.705  1.00  0.00     0.235 C 
BRANCH  19  22
HETATM   22  C   UNL     1       7.934  22.906  54.038  1.00  0.00    -0.046 A 
HETATM   23  C   UNL     1       8.334  22.508  55.334  1.00  0.00    -0.055 A 
HETATM   24  C   UNL     1       8.479  23.482  56.474  1.00  0.00     0.049 C 
HETATM   25  C   UNL     1       8.622  21.154  55.582  1.00  0.00     0.007 A 
HETATM   26  C   UNL     1       8.515  20.200  54.574  1.00  0.00     0.001 A 
HETATM   27  C   UNL     1       8.121  20.583  53.300  1.00  0.00     0.001 A 
HETATM   28  C   UNL     1       7.834  21.921  53.033  1.00  0.00     0.008 A 
ENDBRANCH  19  22
ENDBRANCH  15  16
ENDBRANCH   1  15
TORSDOF 6
ENDMDL
MODEL 8
REMARK VINA RESULT:      -8.2      4.586      7.445
REMARK  6 active torsions:
REMARK  status: ('A' for Active; 'I' for Inactive)
REMARK    1  A    between atoms: C_2  and  C_3 
REMARK    2  A    between atoms: C_7  and  C_8 
REMARK       I    between atoms: C_8  and  N_9 
REMARK    3  A    between atoms: N_9  and  C_10 
REMARK    4  A    between atoms: C_10  and  C_11 
REMARK    5  A    between atoms: C_11  and  N_12 
REMARK    6  A    between atoms: C_15  and  C_16 
ROOT
HETATM    1  C   UNL     1       7.153  27.763  54.286  1.00  0.00     0.150 C 
ENDROOT
BRANCH   1   2
HETATM    2  N   UNL     1       5.961  28.188  53.596  1.00  0.00    -0.354 N 
HETATM    3  C   UNL     1       5.174  27.308  52.877  1.00  0.00     0.272 C 
HETATM    4  O   UNL     1       5.356  26.093  52.927  1.00  0.00    -0.266 OA
HETATM    5  H   UNL     1       5.787  29.169  53.367  1.00  0.00     0.162 HD
BRANCH   3   6
HETATM    6  C   UNL     1       4.131  27.981  52.085  1.00  0.00     0.152 A 
HETATM    7  N   UNL     1       3.085  28.561  52.712  1.00  0.00    -0.169 NA
HETATM    8  N   UNL     1       2.348  29.076  51.716  1.00  0.00    -0.281 N 
HETATM    9  C   UNL     1       2.866  28.847  50.473  1.00  0.00     0.036 A 
HETATM   10  H   UNL     1       1.495  29.575  51.950  1.00  0.00     0.189 HD
HETATM   11  C   UNL     1       4.035  28.133  50.668  1.00  0.00    -0.002 A 
HETATM   12  C   UNL     1       4.972  27.648  49.623  1.00  0.00     0.053 C 
BRANCH   9  13
HETATM   13  C   UNL     1       2.190  29.337  49.237  1.00  0.00     0.055 C 
HETATM   14  C   UNL     1       1.483  28.208  48.502  1.00  0.00     0.011 C 
ENDBRANCH   9  13
ENDBRANCH   3   6
ENDBRANCH   1   2
BRANCH   1  15
HETATM   15  C   UNL     1       6.936  27.565  55.799  1.00  0.00     0.254 C 
BRANCH  15  16
HETATM   16  N   UNL     1       7.758  26.404  56.332  1.00  0.00    -0.069 N 
HETATM   17  H   UNL     1       8.605  26.790  56.770  1.00  0.00     0.280 HD
HETATM   18  C   UNL     1       8.154  25.382  55.285  1.00  0.00     0.244 C 
HETATM   19  C   UNL     1       6.971  24.411  55.222  1.00  0.00     0.046 C 
HETATM   20  C   UNL     1       6.259  24.536  56.576  1.00  0.00     0.039 C 
HETATM   21  C   UNL     1       7.025  25.582  57.366  1.00  0.00     0.235 C 
BRANCH  19  22
HETATM   22  C   UNL     1       7.405  23.009  54.847  1.00  0.00    -0.046 A 
HETATM   23  C   UNL     1       7.789  22.679  53.527  1.00  0.00    -0.055 A 
HETATM   24  C   UNL     1       7.756  23.676  52.398  1.00  0.00     0.049 C 
HETATM   25  C   UNL     1       8.209  21.369  53.238  1.00  0.00     0.007 A 
HETATM   26  C   UNL     1       8.260  20.394  54.231  1.00  0.00     0.001 A 
HETATM   27  C   UNL     1       7.887  20.712  55.529  1.00  0.00     0.001 A 
HETATM   28  C   UNL     1       7.463  22.005  55.836  1.00  0.00     0.008 A 
ENDBRANCH  19  22
ENDBRANCH  15  16
ENDBRANCH   1  15
TORSDOF 6
ENDMDL
MODEL 9
REMARK VINA RESULT:      -8.1      6.218      8.979
REMARK  6 active torsions:
REMARK  status: ('A' for Active; 'I' for Inactive)
REMARK    1  A    between atoms: C_2  and  C_3 
REMARK    2  A    between atoms: C_7  and  C_8 
REMARK       I    between atoms: C_8  and  N_9 
REMARK    3  A    between atoms: N_9  and  C_10 
REMARK    4  A    between atoms: C_10  and  C_11 
REMARK    5  A    between atoms: C_11  and  N_12 
REMARK    6  A    between atoms: C_15  and  C_16 
ROOT
HETATM    1  C   UNL     1       5.326  26.049  52.155  1.00  0.00     0.150 C 
ENDROOT
BRANCH   1   2
HETATM    2  N   UNL     1       4.568  26.684  51.107  1.00  0.00    -0.354 N 
HETATM    3  C   UNL     1       4.498  28.059  50.978  1.00  0.00     0.272 C 
HETATM    4  O   UNL     1       5.212  28.805  51.646  1.00  0.00    -0.266 OA
HETATM    5  H   UNL     1       3.836  26.190  50.592  1.00  0.00     0.162 HD
BRANCH   3   6
HETATM    6  C   UNL     1       3.510  28.497  49.979  1.00  0.00     0.152 A 
HETATM    7  N   UNL     1       2.330  29.011  50.387  1.00  0.00    -0.169 NA
HETATM    8  N   UNL     1       1.688  29.308  49.247  1.00  0.00    -0.281 N 
HETATM    9  C   UNL     1       2.396  29.000  48.120  1.00  0.00     0.036 A 
HETATM   10  H   UNL     1       0.761  29.721  49.303  1.00  0.00     0.189 HD
HETATM   11  C   UNL     1       3.597  28.467  48.554  1.00  0.00    -0.002 A 
HETATM   12  C   UNL     1       4.718  27.982  47.709  1.00  0.00     0.053 C 
BRANCH   9  13
HETATM   13  C   UNL     1       1.851  29.251  46.755  1.00  0.00     0.055 C 
HETATM   14  C   UNL     1       2.414  30.531  46.156  1.00  0.00     0.011 C 
ENDBRANCH   9  13
ENDBRANCH   3   6
ENDBRANCH   1   2
BRANCH   1  15
HETATM   15  C   UNL     1       6.730  25.606  51.699  1.00  0.00     0.254 C 
BRANCH  15  16
HETATM   16  N   UNL     1       7.668  25.425  52.880  1.00  0.00    -0.069 N 
HETATM   17  H   UNL     1       8.455  26.077  52.762  1.00  0.00     0.280 HD
HETATM   18  C   UNL     1       8.202  24.017  53.049  1.00  0.00     0.244 C 
HETATM   19  C   UNL     1       7.140  23.295  53.884  1.00  0.00     0.046 C 
HETATM   20  C   UNL     1       6.388  24.398  54.642  1.00  0.00     0.039 C 
HETATM   21  C   UNL     1       7.011  25.713  54.210  1.00  0.00     0.235 C 
BRANCH  19  22
HETATM   22  C   UNL     1       7.741  22.208  54.752  1.00  0.00    -0.046 A 
HETATM   23  C   UNL     1       8.130  20.960  54.215  1.00  0.00    -0.055 A 
HETATM   24  C   UNL     1       7.941  20.605  52.763  1.00  0.00     0.049 C 
HETATM   25  C   UNL     1       8.708  19.995  55.059  1.00  0.00     0.007 A 
HETATM   26  C   UNL     1       8.909  20.252  56.413  1.00  0.00     0.001 A 
HETATM   27  C   UNL     1       8.532  21.476  56.946  1.00  0.00     0.001 A 
HETATM   28  C   UNL     1       7.953  22.445  56.126  1.00  0.00     0.008 A 
ENDBRANCH  19  22
ENDBRANCH  15  16
ENDBRANCH   1  15
TORSDOF 6
ENDMDL
MODEL 10
REMARK VINA RESULT:      -8.0      4.301      5.010
REMARK  6 active torsions:
REMARK  status: ('A' for Active; 'I' for Inactive)
REMARK    1  A    between atoms: C_2  and  C_3 
REMARK    2  A    between atoms: C_7  and  C_8 
REMARK       I    between atoms: C_8  and  N_9 
REMARK    3  A    between atoms: N_9  and  C_10 
REMARK    4  A    between atoms: C_10  and  C_11 
REMARK    5  A    between atoms: C_11  and  N_12 
REMARK    6  A    between atoms: C_15  and  C_16 
ROOT
HETATM    1  C   UNL     1       4.984  26.086  56.856  1.00  0.00     0.150 C 
ENDROOT
BRANCH   1   2
HETATM    2  N   UNL     1       4.304  27.342  56.659  1.00  0.00    -0.354 N 
HETATM    3  C   UNL     1       4.616  28.192  55.614  1.00  0.00     0.272 C 
HETATM    4  O   UNL     1       5.370  27.846  54.706  1.00  0.00    -0.266 OA
HETATM    5  H   UNL     1       3.773  27.795  57.406  1.00  0.00     0.162 HD
BRANCH   3   6
HETATM    6  C   UNL     1       3.955  29.504  55.718  1.00  0.00     0.152 A 
HETATM    7  N   UNL     1       3.740  30.049  56.935  1.00  0.00    -0.169 NA
HETATM    8  N   UNL     1       3.142  31.220  56.670  1.00  0.00    -0.281 N 
HETATM    9  C   UNL     1       2.952  31.452  55.337  1.00  0.00     0.036 A 
HETATM   10  H   UNL     1       2.884  31.821  57.447  1.00  0.00     0.189 HD
HETATM   11  C   UNL     1       3.471  30.352  54.677  1.00  0.00    -0.002 A 
HETATM   12  C   UNL     1       3.512  30.127  53.210  1.00  0.00     0.053 C 
BRANCH   9  13
HETATM   13  C   UNL     1       2.299  32.697  54.841  1.00  0.00     0.055 C 
HETATM   14  C   UNL     1       2.898  33.937  55.489  1.00  0.00     0.011 C 
ENDBRANCH   9  13
ENDBRANCH   3   6
ENDBRANCH   1   2
BRANCH   1  15
HETATM   15  C   UNL     1       6.410  26.256  57.415  1.00  0.00     0.254 C 
BRANCH  15  16
HETATM   16  N   UNL     1       7.460  25.944  56.362  1.00  0.00    -0.069 N 
HETATM   17  H   UNL     1       7.680  26.818  55.864  1.00  0.00     0.280 HD
HETATM   18  C   UNL     1       7.050  24.885  55.359  1.00  0.00     0.244 C 
HETATM   19  C   UNL     1       7.433  23.556  56.018  1.00  0.00     0.046 C 
HETATM   20  C   UNL     1       8.538  23.896  57.027  1.00  0.00     0.039 C 
HETATM   21  C   UNL     1       8.743  25.398  56.944  1.00  0.00     0.235 C 
BRANCH  19  22
HETATM   22  C   UNL     1       7.794  22.498  54.996  1.00  0.00    -0.046 A 
HETATM   23  C   UNL     1       8.085  21.168  55.375  1.00  0.00    -0.055 A 
HETATM   24  C   UNL     1       8.097  20.717  56.813  1.00  0.00     0.049 C 
HETATM   25  C   UNL     1       8.389  20.218  54.385  1.00  0.00     0.007 A 
HETATM   26  C   UNL     1       8.402  20.565  53.036  1.00  0.00     0.001 A 
HETATM   27  C   UNL     1       8.115  21.868  52.656  1.00  0.00     0.001 A 
HETATM   28  C   UNL     1       7.815  22.826  53.624  1.00  0.00     0.008 A 
ENDBRANCH  19  22
ENDBRANCH  15  16
ENDBRANCH   1  15
TORSDOF 6
ENDMDL
