MODEL 1
REMARK VINA RESULT:      -9.5      0.000      0.000
REMARK  4 active torsions:
REMARK  status: ('A' for Active; 'I' for Inactive)
REMARK    1  A    between atoms: C_7  and  N_8 
REMARK       I    between atoms: N_8  and  C_9 
REMARK    2  A    between atoms: C_9  and  C_10 
REMARK    3  A    between atoms: C_10  and  C_11 
REMARK    4  A    between atoms: C_14  and  O_15 
ROOT
HETATM    1  N   UNL     1       7.318  25.739  56.215  1.00  0.00    -0.326 N 
HETATM    2  C   UNL     1       7.476  26.448  57.394  1.00  0.00     0.226 C 
HETATM    3  O   UNL     1       7.982  26.021  58.427  1.00  0.00    -0.273 OA
HETATM    4  H   UNL     1       6.903  26.232  55.434  1.00  0.00     0.169 HD
ENDROOT
BRANCH   1   5
HETATM    5  C   UNL     1       7.699  24.399  55.984  1.00  0.00     0.053 A 
HETATM    6  C   UNL     1       8.148  23.513  56.956  1.00  0.00     0.146 A 
HETATM    7  N   UNL     1       8.510  22.226  56.712  1.00  0.00    -0.258 NA
HETATM    8  C   UNL     1       8.427  21.772  55.452  1.00  0.00     0.066 A 
HETATM    9  C   UNL     1       7.982  22.585  54.390  1.00  0.00    -0.005 A 
HETATM   10  C   UNL     1       8.786  20.461  55.175  1.00  0.00     0.032 A 
HETATM   11  C   UNL     1       7.904  22.059  53.086  1.00  0.00     0.014 A 
HETATM   12  C   UNL     1       7.623  23.912  54.678  1.00  0.00     0.044 A 
HETATM   13  C   UNL     1       8.268  20.738  52.836  1.00  0.00     0.001 A 
HETATM   14  C   UNL     1       8.712  19.937  53.882  1.00  0.00     0.002 A 
ENDBRANCH   1   5
BRANCH   2  15
HETATM   15  C   UNL     1       6.946  27.873  57.314  1.00  0.00     0.141 C 
BRANCH  15  16
HETATM   16  C   UNL     1       7.957  28.941  57.664  1.00  0.00    -0.049 A 
HETATM   17  C   UNL     1       9.217  28.932  57.042  1.00  0.00     0.010 A 
HETATM   18  C   UNL     1      10.148  29.941  57.299  1.00  0.00     0.037 A 
HETATM   19  C   UNL     1       9.818  30.969  58.174  1.00  0.00     0.065 A 
HETATM   20  C   UNL     1       8.575  31.004  58.792  1.00  0.00     0.037 A 
HETATM   21  C   UNL     1       7.642  30.000  58.529  1.00  0.00     0.010 A 
BRANCH  19  22
HETATM   22  O   UNL     1      10.693  31.978  58.449  1.00  0.00    -0.361 OA
HETATM   23  H   UNL     1      11.598  31.633  58.382  1.00  0.00     0.217 HD
ENDBRANCH  19  22
ENDBRANCH  15  16
ENDBRANCH   2  15
TORSDOF 4
ENDMDL
MODEL 2
REMARK VINA RESULT:      -9.1      5.817      8.663
REMARK  4 active torsions:
REMARK  status: ('A' for Active; 'I' for Inactive)
REMARK    1  A    between atoms: C_7  and  N_8 
REMARK       I    between atoms: N_8  and  C_9 
REMARK    2  A    between atoms: C_9  and  C_10 
REMARK    3  A    between atoms: C_10  and  C_11 
REMARK    4  A    between atoms: C_14  and  O_15 
ROOT
HETATM    1  N   UNL     1       6.141  26.296  52.096  1.00  0.00    -0.326 N 
HETATM    2  C   UNL     1       5.913  25.326  53.058  1.00  0.00     0.226 C 
HETATM    3  O   UNL     1       4.856  24.728  53.239  1.00  0.00    -0.273 OA
HETATM    4  H   UNL     1       7.075  26.686  52.050  1.00  0.00     0.169 HD
ENDROOT
BRANCH   1   5
HETATM    5  C   UNL     1       5.207  26.782  51.156  1.00  0.00     0.053 A 
HETATM    6  C   UNL     1       4.556  28.007  51.231  1.00  0.00     0.146 A 
HETATM    7  N   UNL     1       3.660  28.456  50.313  1.00  0.00    -0.258 NA
HETATM    8  C   UNL     1       3.382  27.671  49.262  1.00  0.00     0.066 A 
HETATM    9  C   UNL     1       3.987  26.410  49.086  1.00  0.00    -0.005 A 
HETATM   10  C   UNL     1       2.472  28.106  48.307  1.00  0.00     0.032 A 
HETATM   11  C   UNL     1       3.669  25.627  47.960  1.00  0.00     0.014 A 
HETATM   12  C   UNL     1       4.903  25.975  50.058  1.00  0.00     0.044 A 
HETATM   13  C   UNL     1       2.755  26.089  47.015  1.00  0.00     0.001 A 
HETATM   14  C   UNL     1       2.154  27.330  47.190  1.00  0.00     0.002 A 
ENDBRANCH   1   5
BRANCH   2  15
HETATM   15  C   UNL     1       7.131  25.039  53.924  1.00  0.00     0.141 C 
BRANCH  15  16
HETATM   16  C   UNL     1       7.474  23.573  54.061  1.00  0.00    -0.049 A 
HETATM   17  C   UNL     1       7.864  22.844  52.925  1.00  0.00     0.010 A 
HETATM   18  C   UNL     1       8.247  21.505  53.031  1.00  0.00     0.037 A 
HETATM   19  C   UNL     1       8.250  20.891  54.278  1.00  0.00     0.065 A 
HETATM   20  C   UNL     1       7.880  21.595  55.416  1.00  0.00     0.037 A 
HETATM   21  C   UNL     1       7.505  22.936  55.311  1.00  0.00     0.010 A 
BRANCH  19  22
HETATM   22  O   UNL     1       8.623  19.589  54.429  1.00  0.00    -0.361 OA
HETATM   23  H   UNL     1       7.857  19.078  54.737  1.00  0.00     0.217 HD
ENDBRANCH  19  22
ENDBRANCH  15  16
ENDBRANCH   2  15
TORSDOF 4
ENDMDL
MODEL 3
REMARK VINA RESULT:      -9.0      5.577      7.569
REMARK  4 active torsions:
REMARK  status: ('A' for Active; 'I' for Inactive)
REMARK    1  A    between atoms: C_7  and  N_8 
REMARK       I    between atoms: N_8  and  C_9 
REMARK    2  A    between atoms: C_9  and  C_10 
REMARK    3  A    between atoms: C_10  and  C_11 
REMARK    4  A    between atoms: C_14  and  O_15 
ROOT
HETATM    1  N   UNL     1       6.742  25.887  52.103  1.00  0.00    -0.326 N 
HETATM    2  C   UNL     1       5.563  26.606  52.001  1.00  0.00     0.226 C 
HETATM    3  O   UNL     1       4.597  26.514  52.753  1.00  0.00    -0.273 OA
HETATM    4  H   UNL     1       7.464  26.088  51.421  1.00  0.00     0.169 HD
ENDROOT
BRANCH   1   5
HETATM    5  C   UNL     1       7.050  24.914  53.079  1.00  0.00     0.053 A 
HETATM    6  C   UNL     1       7.070  25.132  54.450  1.00  0.00     0.146 A 
HETATM    7  N   UNL     1       7.369  24.180  55.373  1.00  0.00    -0.258 NA
HETATM    8  C   UNL     1       7.662  22.945  54.938  1.00  0.00     0.066 A 
HETATM    9  C   UNL     1       7.667  22.614  53.568  1.00  0.00    -0.005 A 
HETATM   10  C   UNL     1       7.967  21.951  55.858  1.00  0.00     0.032 A 
HETATM   11  C   UNL     1       7.972  21.301  53.161  1.00  0.00     0.014 A 
HETATM   12  C   UNL     1       7.361  23.625  52.642  1.00  0.00     0.044 A 
HETATM   13  C   UNL     1       8.271  20.322  54.107  1.00  0.00     0.001 A 
HETATM   14  C   UNL     1       8.271  20.648  55.458  1.00  0.00     0.002 A 
ENDBRANCH   1   5
BRANCH   2  15
HETATM   15  C   UNL     1       5.547  27.571  50.823  1.00  0.00     0.141 C 
BRANCH  15  16
HETATM   16  C   UNL     1       4.723  27.110  49.643  1.00  0.00    -0.049 A 
HETATM   17  C   UNL     1       4.524  27.979  48.557  1.00  0.00     0.010 A 
HETATM   18  C   UNL     1       3.820  27.560  47.425  1.00  0.00     0.037 A 
HETATM   19  C   UNL     1       3.319  26.265  47.373  1.00  0.00     0.065 A 
HETATM   20  C   UNL     1       3.513  25.385  48.429  1.00  0.00     0.037 A 
HETATM   21  C   UNL     1       4.224  25.802  49.557  1.00  0.00     0.010 A 
BRANCH  19  22
HETATM   22  O   UNL     1       2.633  25.810  46.286  1.00  0.00    -0.361 OA
HETATM   23  H   UNL     1       1.897  25.256  46.591  1.00  0.00     0.217 HD
ENDBRANCH  19  22
ENDBRANCH  15  16
ENDBRANCH   2  15
TORSDOF 4
ENDMDL
MODEL 4
REMARK VINA RESULT:      -9.0      4.861      7.078
REMARK  4 active torsions:
REMARK  status: ('A' for Active; 'I' for Inactive)
REMARK    1  A    between atoms: C_7  and  N_8 
REMARK       I    between atoms: N_8  and  C_9 
REMARK    2  A    between atoms: C_9  and  C_10 
REMARK    3  A    between atoms: C_10  and  C_11 
REMARK    4  A    between atoms: C_14  and  O_15 
ROOT
HETATM    1  N   UNL     1       9.124  30.439  59.929  1.00  0.00    -0.326 N 
HETATM    2  C   UNL     1       9.056  31.747  60.377  1.00  0.00     0.226 C 
HETATM    3  O   UNL     1       8.868  32.738  59.677  1.00  0.00    -0.273 OA
HETATM    4  H   UNL     1       9.261  29.720  60.629  1.00  0.00     0.169 HD
ENDROOT
BRANCH   1   5
HETATM    5  C   UNL     1       9.000  30.002  58.592  1.00  0.00     0.053 A 
HETATM    6  C   UNL     1       9.980  30.120  57.614  1.00  0.00     0.146 A 
HETATM    7  N   UNL     1       9.839  29.693  56.332  1.00  0.00    -0.258 NA
HETATM    8  C   UNL     1       8.681  29.114  55.980  1.00  0.00     0.066 A 
HETATM    9  C   UNL     1       7.622  28.940  56.894  1.00  0.00    -0.005 A 
HETATM   10  C   UNL     1       8.511  28.664  54.678  1.00  0.00     0.032 A 
HETATM   11  C   UNL     1       6.428  28.319  56.478  1.00  0.00     0.014 A 
HETATM   12  C   UNL     1       7.799  29.402  58.208  1.00  0.00     0.044 A 
HETATM   13  C   UNL     1       6.286  27.873  55.166  1.00  0.00     0.001 A 
HETATM   14  C   UNL     1       7.328  28.048  54.263  1.00  0.00     0.002 A 
ENDBRANCH   1   5
BRANCH   2  15
HETATM   15  C   UNL     1       9.243  31.878  61.882  1.00  0.00     0.141 C 
BRANCH  15  16
HETATM   16  C   UNL     1       7.987  32.237  62.643  1.00  0.00    -0.049 A 
HETATM   17  C   UNL     1       6.747  31.746  62.202  1.00  0.00     0.010 A 
HETATM   18  C   UNL     1       5.577  32.010  62.920  1.00  0.00     0.037 A 
HETATM   19  C   UNL     1       5.647  32.759  64.089  1.00  0.00     0.065 A 
HETATM   20  C   UNL     1       6.863  33.244  64.550  1.00  0.00     0.037 A 
HETATM   21  C   UNL     1       8.033  32.974  63.836  1.00  0.00     0.010 A 
BRANCH  19  22
HETATM   22  O   UNL     1       4.533  33.033  64.826  1.00  0.00    -0.361 OA
HETATM   23  H   UNL     1       4.327  33.978  64.738  1.00  0.00     0.217 HD
ENDBRANCH  19  22
ENDBRANCH  15  16
ENDBRANCH   2  15
TORSDOF 4
ENDMDL
MODEL 5
REMARK VINA RESULT:      -8.9      2.563      8.313
REMARK  4 active torsions:
REMARK  status: ('A' for Active; 'I' for Inactive)
REMARK    1  A    between atoms: C_7  and  N_8 
REMARK       I    between atoms: N_8  and  C_9 
REMARK    2  A    between atoms: C_9  and  C_10 
REMARK    3  A    between atoms: C_10  and  C_11 
REMARK    4  A    between atoms: C_14  and  O_15 
ROOT
HETATM    1  N   UNL     1       6.624  25.743  55.499  1.00  0.00    -0.326 N 
HETATM    2  C   UNL     1       7.116  25.447  54.239  1.00  0.00     0.226 C 
HETATM    3  O   UNL     1       7.964  26.091  53.628  1.00  0.00    -0.273 OA
HETATM    4  H   UNL     1       5.942  25.104  55.888  1.00  0.00     0.169 HD
ENDROOT
BRANCH   1   5
HETATM    5  C   UNL     1       6.995  26.839  56.308  1.00  0.00     0.053 A 
HETATM    6  C   UNL     1       8.194  26.956  57.000  1.00  0.00     0.146 A 
HETATM    7  N   UNL     1       8.531  28.022  57.774  1.00  0.00    -0.258 NA
HETATM    8  C   UNL     1       7.655  29.033  57.877  1.00  0.00     0.066 A 
HETATM    9  C   UNL     1       6.412  29.019  57.214  1.00  0.00    -0.005 A 
HETATM   10  C   UNL     1       7.974  30.136  58.658  1.00  0.00     0.032 A 
HETATM   11  C   UNL     1       5.530  30.109  57.346  1.00  0.00     0.014 A 
HETATM   12  C   UNL     1       6.093  27.898  56.429  1.00  0.00     0.044 A 
HETATM   13  C   UNL     1       5.878  31.205  58.133  1.00  0.00     0.001 A 
HETATM   14  C   UNL     1       7.101  31.218  58.792  1.00  0.00     0.002 A 
ENDBRANCH   1   5
BRANCH   2  15
HETATM   15  C   UNL     1       6.497  24.196  53.630  1.00  0.00     0.141 C 
BRANCH  15  16
HETATM   16  C   UNL     1       7.243  22.916  53.928  1.00  0.00    -0.049 A 
HETATM   17  C   UNL     1       7.383  22.490  55.259  1.00  0.00     0.010 A 
HETATM   18  C   UNL     1       8.013  21.280  55.561  1.00  0.00     0.037 A 
HETATM   19  C   UNL     1       8.497  20.486  54.528  1.00  0.00     0.065 A 
HETATM   20  C   UNL     1       8.360  20.880  53.204  1.00  0.00     0.037 A 
HETATM   21  C   UNL     1       7.724  22.087  52.903  1.00  0.00     0.010 A 
BRANCH  19  22
HETATM   22  O   UNL     1       9.111  19.294  54.775  1.00  0.00    -0.361 OA
HETATM   23  H   UNL     1      10.045  19.364  54.517  1.00  0.00     0.217 HD
ENDBRANCH  19  22
ENDBRANCH  15  16
ENDBRANCH   2  15
TORSDOF 4
ENDMDL
MODEL 6
REMARK VINA RESULT:      -8.6      2.068      2.811
REMARK  4 active torsions:
REMARK  status: ('A' for Active; 'I' for Inactive)
REMARK    1  A    between atoms: C_7  and  N_8 
REMARK       I    between atoms: N_8  and  C_9 
REMARK    2  A    between atoms: C_9  and  C_10 
REMARK    3  A    between atoms: C_10  and  C_11 
REMARK    4  A    between atoms: C_14  and  O_15 
ROOT
HETATM    1  N   UNL     1       7.580  26.222  54.168  1.00  0.00    -0.326 N 
HETATM    2  C   UNL     1       6.442  26.877  54.610  1.00  0.00     0.226 C 
HETATM    3  O   UNL     1       5.395  26.341  54.962  1.00  0.00    -0.273 OA
HETATM    4  H   UNL     1       8.379  26.798  53.934  1.00  0.00     0.169 HD
ENDROOT
BRANCH   1   5
HETATM    5  C   UNL     1       7.745  24.827  54.033  1.00  0.00     0.053 A 
HETATM    6  C   UNL     1       7.676  24.123  52.837  1.00  0.00     0.146 A 
HETATM    7  N   UNL     1       7.839  22.778  52.729  1.00  0.00    -0.258 NA
HETATM    8  C   UNL     1       8.086  22.077  53.846  1.00  0.00     0.066 A 
HETATM    9  C   UNL     1       8.180  22.692  55.111  1.00  0.00    -0.005 A 
HETATM   10  C   UNL     1       8.261  20.702  53.765  1.00  0.00     0.032 A 
HETATM   11  C   UNL     1       8.450  21.914  56.254  1.00  0.00     0.014 A 
HETATM   12  C   UNL     1       7.999  24.082  55.187  1.00  0.00     0.044 A 
HETATM   13  C   UNL     1       8.625  20.536  56.143  1.00  0.00     0.001 A 
HETATM   14  C   UNL     1       8.528  19.928  54.897  1.00  0.00     0.002 A 
ENDBRANCH   1   5
BRANCH   2  15
HETATM   15  C   UNL     1       6.589  28.392  54.628  1.00  0.00     0.141 C 
BRANCH  15  16
HETATM   16  C   UNL     1       6.944  28.974  55.976  1.00  0.00    -0.049 A 
HETATM   17  C   UNL     1       6.069  29.888  56.588  1.00  0.00     0.010 A 
HETATM   18  C   UNL     1       6.340  30.396  57.861  1.00  0.00     0.037 A 
HETATM   19  C   UNL     1       7.485  29.983  58.532  1.00  0.00     0.065 A 
HETATM   20  C   UNL     1       8.359  29.072  57.952  1.00  0.00     0.037 A 
HETATM   21  C   UNL     1       8.083  28.560  56.683  1.00  0.00     0.010 A 
BRANCH  19  22
HETATM   22  O   UNL     1       7.786  30.446  59.778  1.00  0.00    -0.361 OA
HETATM   23  H   UNL     1       8.475  29.880  60.163  1.00  0.00     0.217 HD
ENDBRANCH  19  22
ENDBRANCH  15  16
ENDBRANCH   2  15
TORSDOF 4
ENDMDL
MODEL 7
REMARK VINA RESULT:      -8.4      5.585      8.714
REMARK  4 active torsions:
REMARK  status: ('A' for Active; 'I' for Inactive)
REMARK    1  A    between atoms: C_7  and  N_8 
REMARK       I    between atoms: N_8  and  C_9 
REMARK    2  A    between atoms: C_9  and  C_10 
REMARK    3  A    between atoms: C_10  and  C_11 
REMARK    4  A    between atoms: C_14  and  O_15 
ROOT
HETATM    1  N   UNL     1       5.917  25.927  52.797  1.00  0.00    -0.326 N 
HETATM    2  C   UNL     1       7.168  25.426  53.116  1.00  0.00     0.226 C 
HETATM    3  O   UNL     1       8.169  25.487  52.408  1.00  0.00    -0.273 OA
HETATM    4  H   UNL     1       5.189  25.824  53.494  1.00  0.00     0.169 HD
ENDROOT
BRANCH   1   5
HETATM    5  C   UNL     1       5.558  26.589  51.602  1.00  0.00     0.053 A 
HETATM    6  C   UNL     1       5.041  25.974  50.469  1.00  0.00     0.146 A 
HETATM    7  N   UNL     1       4.702  26.631  49.328  1.00  0.00    -0.258 NA
HETATM    8  C   UNL     1       4.870  27.962  49.289  1.00  0.00     0.066 A 
HETATM    9  C   UNL     1       5.383  28.686  50.384  1.00  0.00    -0.005 A 
HETATM   10  C   UNL     1       4.528  28.659  48.139  1.00  0.00     0.032 A 
HETATM   11  C   UNL     1       5.532  30.083  50.297  1.00  0.00     0.014 A 
HETATM   12  C   UNL     1       5.731  27.973  51.544  1.00  0.00     0.044 A 
HETATM   13  C   UNL     1       5.177  30.758  49.132  1.00  0.00     0.001 A 
HETATM   14  C   UNL     1       4.676  30.045  48.049  1.00  0.00     0.002 A 
ENDBRANCH   1   5
BRANCH   2  15
HETATM   15  C   UNL     1       7.217  24.756  54.482  1.00  0.00     0.141 C 
BRANCH  15  16
HETATM   16  C   UNL     1       7.645  23.307  54.457  1.00  0.00    -0.049 A 
HETATM   17  C   UNL     1       7.531  22.572  53.265  1.00  0.00     0.010 A 
HETATM   18  C   UNL     1       7.976  21.249  53.196  1.00  0.00     0.037 A 
HETATM   19  C   UNL     1       8.545  20.659  54.318  1.00  0.00     0.065 A 
HETATM   20  C   UNL     1       8.679  21.370  55.503  1.00  0.00     0.037 A 
HETATM   21  C   UNL     1       8.242  22.695  55.570  1.00  0.00     0.010 A 
BRANCH  19  22
HETATM   22  O   UNL     1       9.000  19.375  54.293  1.00  0.00    -0.361 OA
HETATM   23  H   UNL     1       9.814  19.342  53.763  1.00  0.00     0.217 HD
ENDBRANCH  19  22
ENDBRANCH  15  16
ENDBRANCH   2  15
TORSDOF 4
ENDMDL
MODEL 8
REMARK VINA RESULT:      -8.2      5.071     10.498
REMARK  4 active torsions:
REMARK  status: ('A' for Active; 'I' for Inactive)
REMARK    1  A    between atoms: C_7  and  N_8 
REMARK       I    between atoms: N_8  and  C_9 
REMARK    2  A    between atoms: C_9  and  C_10 
REMARK    3  A    between atoms: C_10  and  C_11 
REMARK    4  A    between atoms: C_14  and  O_15 
ROOT
HETATM    1  N   UNL     1       7.952  30.789  60.707  1.00  0.00    -0.326 N 
HETATM    2  C   UNL     1       8.509  31.246  59.525  1.00  0.00     0.226 C 
HETATM    3  O   UNL     1       8.753  32.418  59.251  1.00  0.00    -0.273 OA
HETATM    4  H   UNL     1       7.831  29.788  60.801  1.00  0.00     0.169 HD
ENDROOT
BRANCH   1   5
HETATM    5  C   UNL     1       7.555  31.579  61.808  1.00  0.00     0.053 A 
HETATM    6  C   UNL     1       8.378  31.962  62.860  1.00  0.00     0.146 A 
HETATM    7  N   UNL     1       7.974  32.724  63.910  1.00  0.00    -0.258 NA
HETATM    8  C   UNL     1       6.699  33.140  63.939  1.00  0.00     0.066 A 
HETATM    9  C   UNL     1       5.781  32.813  62.922  1.00  0.00    -0.005 A 
HETATM   10  C   UNL     1       6.261  33.923  64.998  1.00  0.00     0.032 A 
HETATM   11  C   UNL     1       4.455  33.281  62.993  1.00  0.00     0.014 A 
HETATM   12  C   UNL     1       6.230  32.017  61.855  1.00  0.00     0.044 A 
HETATM   13  C   UNL     1       4.042  34.069  64.066  1.00  0.00     0.001 A 
HETATM   14  C   UNL     1       4.946  34.388  65.072  1.00  0.00     0.002 A 
ENDBRANCH   1   5
BRANCH   2  15
HETATM   15  C   UNL     1       8.813  30.132  58.533  1.00  0.00     0.141 C 
BRANCH  15  16
HETATM   16  C   UNL     1       7.593  29.451  57.958  1.00  0.00    -0.049 A 
HETATM   17  C   UNL     1       7.622  28.067  57.717  1.00  0.00     0.010 A 
HETATM   18  C   UNL     1       6.489  27.399  57.245  1.00  0.00     0.037 A 
HETATM   19  C   UNL     1       5.318  28.114  57.019  1.00  0.00     0.065 A 
HETATM   20  C   UNL     1       5.263  29.480  57.261  1.00  0.00     0.037 A 
HETATM   21  C   UNL     1       6.393  30.146  57.741  1.00  0.00     0.010 A 
BRANCH  19  22
HETATM   22  O   UNL     1       4.187  27.503  56.567  1.00  0.00    -0.361 OA
HETATM   23  H   UNL     1       4.407  26.594  56.304  1.00  0.00     0.217 HD
ENDBRANCH  19  22
ENDBRANCH  15  16
ENDBRANCH   2  15
TORSDOF 4
ENDMDL
MODEL 9
REMARK VINA RESULT:      -8.1      3.293      4.089
REMARK  4 active torsions:
REMARK  status: ('A' for Active; 'I' for Inactive)
REMARK    1  A    between atoms: C_7  and  N_8 
REMARK       I    between atoms: N_8  and  C_9 
REMARK    2  A    between atoms: C_9  and  C_10 
REMARK    3  A    between atoms: C_10  and  C_11 
REMARK    4  A    between atoms: C_14  and  O_15 
ROOT
HETATM    1  N   UNL     1       7.391  26.725  55.217  1.00  0.00    -0.326 N 
HETATM    2  C   UNL     1       6.292  27.182  55.924  1.00  0.00     0.226 C 
HETATM    3  O   UNL     1       5.260  26.551  56.134  1.00  0.00    -0.273 OA
HETATM    4  H   UNL     1       8.184  27.351  55.145  1.00  0.00     0.169 HD
ENDROOT
BRANCH   1   5
HETATM    5  C   UNL     1       7.527  25.462  54.601  1.00  0.00     0.053 A 
HETATM    6  C   UNL     1       7.649  25.244  53.234  1.00  0.00     0.146 A 
HETATM    7  N   UNL     1       7.779  24.018  52.663  1.00  0.00    -0.258 NA
HETATM    8  C   UNL     1       7.796  22.942  53.465  1.00  0.00     0.066 A 
HETATM    9  C   UNL     1       7.683  23.050  54.866  1.00  0.00    -0.005 A 
HETATM   10  C   UNL     1       7.931  21.678  52.909  1.00  0.00     0.032 A 
HETATM   11  C   UNL     1       7.715  21.892  55.666  1.00  0.00     0.014 A 
HETATM   12  C   UNL     1       7.542  24.332  55.422  1.00  0.00     0.044 A 
HETATM   13  C   UNL     1       7.856  20.635  55.081  1.00  0.00     0.001 A 
HETATM   14  C   UNL     1       7.962  20.527  53.699  1.00  0.00     0.002 A 
ENDBRANCH   1   5
BRANCH   2  15
HETATM   15  C   UNL     1       6.462  28.600  56.451  1.00  0.00     0.141 C 
BRANCH  15  16
HETATM   16  C   UNL     1       5.251  29.487  56.275  1.00  0.00    -0.049 A 
HETATM   17  C   UNL     1       4.809  29.805  54.980  1.00  0.00     0.010 A 
HETATM   18  C   UNL     1       3.656  30.571  54.786  1.00  0.00     0.037 A 
HETATM   19  C   UNL     1       2.937  31.014  55.889  1.00  0.00     0.065 A 
HETATM   20  C   UNL     1       3.348  30.702  57.177  1.00  0.00     0.037 A 
HETATM   21  C   UNL     1       4.496  29.930  57.371  1.00  0.00     0.010 A 
BRANCH  19  22
HETATM   22  O   UNL     1       1.802  31.757  55.747  1.00  0.00    -0.361 OA
HETATM   23  H   UNL     1       2.020  32.691  55.899  1.00  0.00     0.217 HD
ENDBRANCH  19  22
ENDBRANCH  15  16
ENDBRANCH   2  15
TORSDOF 4
ENDMDL
MODEL 10
REMARK VINA RESULT:      -8.1      1.754      2.341
REMARK  4 active torsions:
REMARK  status: ('A' for Active; 'I' for Inactive)
REMARK    1  A    between atoms: C_7  and  N_8 
REMARK       I    between atoms: N_8  and  C_9 
REMARK    2  A    between atoms: C_9  and  C_10 
REMARK    3  A    between atoms: C_10  and  C_11 
REMARK    4  A    between atoms: C_14  and  O_15 
ROOT
HETATM    1  N   UNL     1       7.709  27.400  56.295  1.00  0.00    -0.326 N 
HETATM    2  C   UNL     1       6.613  28.102  56.768  1.00  0.00     0.226 C 
HETATM    3  O   UNL     1       5.591  27.610  57.237  1.00  0.00    -0.273 OA
HETATM    4  H   UNL     1       8.493  27.945  55.958  1.00  0.00     0.169 HD
ENDROOT
BRANCH   1   5
HETATM    5  C   UNL     1       7.852  25.996  56.254  1.00  0.00     0.053 A 
HETATM    6  C   UNL     1       8.184  25.191  57.336  1.00  0.00     0.146 A 
HETATM    7  N   UNL     1       8.316  23.840  57.275  1.00  0.00    -0.258 NA
HETATM    8  C   UNL     1       8.110  23.236  56.095  1.00  0.00     0.066 A 
HETATM    9  C   UNL     1       7.764  23.956  54.934  1.00  0.00    -0.005 A 
HETATM   10  C   UNL     1       8.234  21.856  56.003  1.00  0.00     0.032 A 
HETATM   11  C   UNL     1       7.549  23.275  53.720  1.00  0.00     0.014 A 
HETATM   12  C   UNL     1       7.644  25.352  55.032  1.00  0.00     0.044 A 
HETATM   13  C   UNL     1       7.677  21.889  53.658  1.00  0.00     0.001 A 
HETATM   14  C   UNL     1       8.023  21.178  54.801  1.00  0.00     0.002 A 
ENDBRANCH   1   5
BRANCH   2  15
HETATM   15  C   UNL     1       6.774  29.612  56.659  1.00  0.00     0.141 C 
BRANCH  15  16
HETATM   16  C   UNL     1       7.146  30.301  57.952  1.00  0.00    -0.049 A 
HETATM   17  C   UNL     1       6.384  31.394  58.399  1.00  0.00     0.010 A 
HETATM   18  C   UNL     1       6.666  32.011  59.620  1.00  0.00     0.037 A 
HETATM   19  C   UNL     1       7.708  31.530  60.404  1.00  0.00     0.065 A 
HETATM   20  C   UNL     1       8.467  30.444  59.989  1.00  0.00     0.037 A 
HETATM   21  C   UNL     1       8.180  29.823  58.771  1.00  0.00     0.010 A 
BRANCH  19  22
HETATM   22  O   UNL     1       8.013  32.096  61.606  1.00  0.00    -0.361 OA
HETATM   23  H   UNL     1       8.756  32.709  61.483  1.00  0.00     0.217 HD
ENDBRANCH  19  22
ENDBRANCH  15  16
ENDBRANCH   2  15
TORSDOF 4
ENDMDL
