MODEL 1
REMARK VINA RESULT:     -10.2      0.000      0.000
REMARK  10 active torsions:
REMARK  status: ('A' for Active; 'I' for Inactive)
REMARK    1  A    between atoms: C_2  and  O_3 
REMARK    2  A    between atoms: O_3  and  C_4 
REMARK    3  A    between atoms: C_4  and  C_5 
REMARK    4  A    between atoms: C_7  and  N_8 
REMARK    5  A    between atoms: N_8  and  C_9 
REMARK    6  A    between atoms: C_9  and  N_10 
REMARK       I    between atoms: N_10  and  C_11 
REMARK    7  A    between atoms: C_11  and  C_12 
REMARK    8  A    between atoms: C_21  and  N_22 
REMARK    9  A    between atoms: N_25  and  C_27 
REMARK   10  A    between atoms: C_27  and  C_28 
ROOT
HETATM    1  C   UNL     1       7.195  29.732  57.452  1.00  0.00     0.041 A 
HETATM    2  C   UNL     1       7.446  28.461  56.919  1.00  0.00     0.049 A 
HETATM    3  C   UNL     1       6.773  28.025  55.769  1.00  0.00     0.062 A 
HETATM    4  C   UNL     1       5.872  28.891  55.099  1.00  0.00     0.057 A 
HETATM    5  C   UNL     1       5.638  30.160  55.654  1.00  0.00     0.033 A 
HETATM    6  C   UNL     1       6.285  30.579  56.818  1.00  0.00     0.020 A 
ENDROOT
BRANCH   3   7
HETATM    7  N   UNL     1       6.825  26.667  55.355  1.00  0.00    -0.331 N 
HETATM    8  H   UNL     1       6.983  26.576  54.360  1.00  0.00     0.168 HD
BRANCH   7   9
HETATM    9  C   UNL     1       6.227  25.598  55.932  1.00  0.00     0.179 C 
HETATM   10  S   UNL     1       5.003  25.847  57.042  1.00  0.00    -0.040 SA
BRANCH   9  11
HETATM   11  N   UNL     1       6.559  24.324  55.581  1.00  0.00    -0.299 N 
HETATM   12  C   UNL     1       7.835  23.764  55.657  1.00  0.00     0.258 C 
HETATM   13  O   UNL     1       8.768  24.214  56.313  1.00  0.00    -0.267 OA
HETATM   14  H   UNL     1       5.944  23.937  54.880  1.00  0.00     0.171 HD
BRANCH  12  15
HETATM   15  C   UNL     1       8.027  22.531  54.829  1.00  0.00     0.038 A 
HETATM   16  C   UNL     1       8.272  21.278  55.426  1.00  0.00    -0.046 A 
HETATM   17  C   UNL     1       8.362  21.096  56.916  1.00  0.00     0.049 C 
HETATM   18  C   UNL     1       8.465  20.159  54.598  1.00  0.00     0.007 A 
HETATM   19  C   UNL     1       8.410  20.273  53.209  1.00  0.00     0.001 A 
HETATM   20  C   UNL     1       8.181  21.513  52.621  1.00  0.00     0.001 A 
HETATM   21  C   UNL     1       8.002  22.639  53.425  1.00  0.00     0.017 A 
ENDBRANCH  12  15
ENDBRANCH   9  11
ENDBRANCH   7   9
ENDBRANCH   3   7
BRANCH   4  22
HETATM   22  N   UNL     1       5.254  28.584  53.890  1.00  0.00    -0.376 N 
HETATM   23  C   UNL     1       6.066  28.347  52.688  1.00  0.00     0.150 C 
HETATM   24  C   UNL     1       5.324  28.892  51.449  1.00  0.00     0.255 C 
HETATM   25  N   UNL     1       3.898  28.324  51.378  1.00  0.00    -0.064 N 
HETATM   26  H   UNL     1       3.996  27.306  51.292  1.00  0.00     0.280 HD
HETATM   27  C   UNL     1       3.126  28.608  52.665  1.00  0.00     0.255 C 
HETATM   28  C   UNL     1       3.883  28.074  53.898  1.00  0.00     0.150 C 
BRANCH  25  29
HETATM   29  C   UNL     1       3.144  28.804  50.165  1.00  0.00     0.273 C 
BRANCH  29  30
HETATM   30  C   UNL     1       3.018  27.750  49.101  1.00  0.00    -0.033 A 
HETATM   31  C   UNL     1       1.806  27.576  48.413  1.00  0.00     0.009 A 
HETATM   32  C   UNL     1       1.681  26.583  47.442  1.00  0.00     0.001 A 
HETATM   33  C   UNL     1       2.761  25.754  47.148  1.00  0.00     0.000 A 
HETATM   34  C   UNL     1       3.970  25.920  47.820  1.00  0.00     0.001 A 
HETATM   35  C   UNL     1       4.101  26.913  48.792  1.00  0.00     0.009 A 
ENDBRANCH  29  30
ENDBRANCH  25  29
ENDBRANCH   4  22
BRANCH   1  36
HETATM   36  C   UNL     1       7.885  30.116  58.712  1.00  0.00     0.293 C 
HETATM   37  O   UNL     1       7.355  30.771  59.593  1.00  0.00    -0.259 OA
BRANCH  36  38
HETATM   38  O   UNL     1       9.168  29.681  58.687  1.00  0.00    -0.318 OA
BRANCH  38  39
HETATM   39  C   UNL     1      10.123  30.568  58.083  1.00  0.00     0.174 C 
HETATM   40  C   UNL     1      10.946  29.815  57.057  1.00  0.00     0.034 C 
ENDBRANCH  38  39
ENDBRANCH  36  38
ENDBRANCH   1  36
TORSDOF 10
ENDMDL
MODEL 2
REMARK VINA RESULT:     -10.1      4.186      8.697
REMARK  10 active torsions:
REMARK  status: ('A' for Active; 'I' for Inactive)
REMARK    1  A    between atoms: C_2  and  O_3 
REMARK    2  A    between atoms: O_3  and  C_4 
REMARK    3  A    between atoms: C_4  and  C_5 
REMARK    4  A    between atoms: C_7  and  N_8 
REMARK    5  A    between atoms: N_8  and  C_9 
REMARK    6  A    between atoms: C_9  and  N_10 
REMARK       I    between atoms: N_10  and  C_11 
REMARK    7  A    between atoms: C_11  and  C_12 
REMARK    8  A    between atoms: C_21  and  N_22 
REMARK    9  A    between atoms: N_25  and  C_27 
REMARK   10  A    between atoms: C_27  and  C_28 
ROOT
HETATM    1  C   UNL     1       4.126  31.230  56.557  1.00  0.00     0.041 A 
HETATM    2  C   UNL     1       5.332  30.899  57.190  1.00  0.00     0.049 A 
HETATM    3  C   UNL     1       5.838  29.593  57.121  1.00  0.00     0.062 A 
HETATM    4  C   UNL     1       5.163  28.606  56.360  1.00  0.00     0.057 A 
HETATM    5  C   UNL     1       3.956  28.963  55.736  1.00  0.00     0.033 A 
HETATM    6  C   UNL     1       3.437  30.256  55.833  1.00  0.00     0.020 A 
ENDROOT
BRANCH   3   7
HETATM    7  N   UNL     1       6.917  29.177  57.946  1.00  0.00    -0.331 N 
HETATM    8  H   UNL     1       6.790  28.237  58.298  1.00  0.00     0.168 HD
BRANCH   7   9
HETATM    9  C   UNL     1       7.741  29.952  58.692  1.00  0.00     0.179 C 
HETATM   10  S   UNL     1       9.289  30.259  58.146  1.00  0.00    -0.040 SA
BRANCH   9  11
HETATM   11  N   UNL     1       7.312  30.537  59.845  1.00  0.00    -0.299 N 
HETATM   12  C   UNL     1       7.157  31.907  60.055  1.00  0.00     0.258 C 
HETATM   13  O   UNL     1       7.092  32.756  59.173  1.00  0.00    -0.267 OA
HETATM   14  H   UNL     1       7.509  29.980  60.664  1.00  0.00     0.171 HD
BRANCH  12  15
HETATM   15  C   UNL     1       7.098  32.317  61.494  1.00  0.00     0.038 A 
HETATM   16  C   UNL     1       8.250  32.307  62.307  1.00  0.00    -0.046 A 
HETATM   17  C   UNL     1       9.599  31.884  61.792  1.00  0.00     0.049 C 
HETATM   18  C   UNL     1       8.131  32.681  63.657  1.00  0.00     0.007 A 
HETATM   19  C   UNL     1       6.900  33.065  64.191  1.00  0.00     0.001 A 
HETATM   20  C   UNL     1       5.763  33.061  63.391  1.00  0.00     0.001 A 
HETATM   21  C   UNL     1       5.856  32.677  62.053  1.00  0.00     0.017 A 
ENDBRANCH  12  15
ENDBRANCH   9  11
ENDBRANCH   7   9
ENDBRANCH   3   7
BRANCH   4  22
HETATM   22  N   UNL     1       5.655  27.323  56.141  1.00  0.00    -0.376 N 
HETATM   23  C   UNL     1       5.005  26.168  56.778  1.00  0.00     0.150 C 
HETATM   24  C   UNL     1       6.074  25.119  57.154  1.00  0.00     0.255 C 
HETATM   25  N   UNL     1       6.944  24.771  55.938  1.00  0.00    -0.064 N 
HETATM   26  H   UNL     1       6.312  24.371  55.234  1.00  0.00     0.280 HD
HETATM   27  C   UNL     1       7.576  26.024  55.334  1.00  0.00     0.255 C 
HETATM   28  C   UNL     1       6.502  27.071  54.976  1.00  0.00     0.150 C 
BRANCH  25  29
HETATM   29  C   UNL     1       7.983  23.724  56.250  1.00  0.00     0.273 C 
BRANCH  29  30
HETATM   30  C   UNL     1       8.023  22.620  55.232  1.00  0.00    -0.033 A 
HETATM   31  C   UNL     1       7.889  22.909  53.864  1.00  0.00     0.009 A 
HETATM   32  C   UNL     1       7.902  21.882  52.920  1.00  0.00     0.001 A 
HETATM   33  C   UNL     1       8.049  20.559  53.330  1.00  0.00     0.000 A 
HETATM   34  C   UNL     1       8.189  20.260  54.683  1.00  0.00     0.001 A 
HETATM   35  C   UNL     1       8.176  21.283  55.632  1.00  0.00     0.009 A 
ENDBRANCH  29  30
ENDBRANCH  25  29
ENDBRANCH   4  22
BRANCH   1  36
HETATM   36  C   UNL     1       3.601  32.611  56.720  1.00  0.00     0.293 C 
HETATM   37  O   UNL     1       2.473  32.942  56.395  1.00  0.00    -0.259 OA
BRANCH  36  38
HETATM   38  O   UNL     1       4.569  33.418  57.218  1.00  0.00    -0.318 OA
BRANCH  38  39
HETATM   39  C   UNL     1       4.127  34.668  57.770  1.00  0.00     0.174 C 
HETATM   40  C   UNL     1       4.026  34.557  59.279  1.00  0.00     0.034 C 
ENDBRANCH  38  39
ENDBRANCH  36  38
ENDBRANCH   1  36
TORSDOF 10
ENDMDL
MODEL 3
REMARK VINA RESULT:     -10.0      1.776      6.431
REMARK  10 active torsions:
REMARK  status: ('A' for Active; 'I' for Inactive)
REMARK    1  A    between atoms: C_2  and  O_3 
REMARK    2  A    between atoms: O_3  and  C_4 
REMARK    3  A    between atoms: C_4  and  C_5 
REMARK    4  A    between atoms: C_7  and  N_8 
REMARK    5  A    between atoms: N_8  and  C_9 
REMARK    6  A    between atoms: C_9  and  N_10 
REMARK       I    between atoms: N_10  and  C_11 
REMARK    7  A    between atoms: C_11  and  C_12 
REMARK    8  A    between atoms: C_21  and  N_22 
REMARK    9  A    between atoms: N_25  and  C_27 
REMARK   10  A    between atoms: C_27  and  C_28 
ROOT
HETATM    1  C   UNL     1       7.754  23.919  55.005  1.00  0.00     0.041 A 
HETATM    2  C   UNL     1       7.509  25.267  55.297  1.00  0.00     0.049 A 
HETATM    3  C   UNL     1       6.764  26.064  54.416  1.00  0.00     0.062 A 
HETATM    4  C   UNL     1       6.200  25.496  53.246  1.00  0.00     0.057 A 
HETATM    5  C   UNL     1       6.460  24.142  52.976  1.00  0.00     0.033 A 
HETATM    6  C   UNL     1       7.230  23.360  53.838  1.00  0.00     0.020 A 
ENDROOT
BRANCH   3   7
HETATM    7  N   UNL     1       6.710  27.476  54.565  1.00  0.00    -0.331 N 
HETATM    8  H   UNL     1       7.330  27.952  53.924  1.00  0.00     0.168 HD
BRANCH   7   9
HETATM    9  C   UNL     1       6.394  28.183  55.677  1.00  0.00     0.179 C 
HETATM   10  S   UNL     1       4.872  28.019  56.344  1.00  0.00    -0.040 SA
BRANCH   9  11
HETATM   11  N   UNL     1       7.312  28.975  56.297  1.00  0.00    -0.299 N 
HETATM   12  C   UNL     1       8.005  28.660  57.466  1.00  0.00     0.258 C 
HETATM   13  O   UNL     1       8.120  27.535  57.939  1.00  0.00    -0.267 OA
HETATM   14  H   UNL     1       7.167  29.959  56.116  1.00  0.00     0.171 HD
BRANCH  12  15
HETATM   15  C   UNL     1       8.612  29.834  58.169  1.00  0.00     0.038 A 
HETATM   16  C   UNL     1       9.866  30.351  57.785  1.00  0.00    -0.046 A 
HETATM   17  C   UNL     1      10.673  29.762  56.661  1.00  0.00     0.049 C 
HETATM   18  C   UNL     1      10.396  31.442  58.495  1.00  0.00     0.007 A 
HETATM   19  C   UNL     1       9.699  32.016  59.558  1.00  0.00     0.001 A 
HETATM   20  C   UNL     1       8.468  31.497  59.944  1.00  0.00     0.001 A 
HETATM   21  C   UNL     1       7.931  30.404  59.263  1.00  0.00     0.017 A 
ENDBRANCH  12  15
ENDBRANCH   9  11
ENDBRANCH   7   9
ENDBRANCH   3   7
BRANCH   4  22
HETATM   22  N   UNL     1       5.351  26.182  52.381  1.00  0.00    -0.376 N 
HETATM   23  C   UNL     1       5.323  25.837  50.953  1.00  0.00     0.150 C 
HETATM   24  C   UNL     1       5.097  27.117  50.119  1.00  0.00     0.255 C 
HETATM   25  N   UNL     1       3.859  27.877  50.617  1.00  0.00    -0.064 N 
HETATM   26  H   UNL     1       3.060  27.246  50.488  1.00  0.00     0.280 HD
HETATM   27  C   UNL     1       3.966  28.191  52.108  1.00  0.00     0.255 C 
HETATM   28  C   UNL     1       4.207  26.909  52.930  1.00  0.00     0.150 C 
BRANCH  25  29
HETATM   29  C   UNL     1       3.580  29.120  49.810  1.00  0.00     0.273 C 
BRANCH  29  30
HETATM   30  C   UNL     1       2.599  28.884  48.696  1.00  0.00    -0.033 A 
HETATM   31  C   UNL     1       1.795  27.733  48.690  1.00  0.00     0.009 A 
HETATM   32  C   UNL     1       0.900  27.502  47.645  1.00  0.00     0.001 A 
HETATM   33  C   UNL     1       0.800  28.415  46.598  1.00  0.00     0.000 A 
HETATM   34  C   UNL     1       1.589  29.563  46.595  1.00  0.00     0.001 A 
HETATM   35  C   UNL     1       2.484  29.799  47.639  1.00  0.00     0.009 A 
ENDBRANCH  29  30
ENDBRANCH  25  29
ENDBRANCH   4  22
BRANCH   1  36
HETATM   36  C   UNL     1       8.608  23.139  55.940  1.00  0.00     0.293 C 
HETATM   37  O   UNL     1       8.745  23.425  57.117  1.00  0.00    -0.259 OA
BRANCH  36  38
HETATM   38  O   UNL     1       9.227  22.136  55.272  1.00  0.00    -0.318 OA
BRANCH  38  39
HETATM   39  C   UNL     1       9.154  20.835  55.880  1.00  0.00     0.174 C 
HETATM   40  C   UNL     1       7.712  20.369  55.925  1.00  0.00     0.034 C 
ENDBRANCH  38  39
ENDBRANCH  36  38
ENDBRANCH   1  36
TORSDOF 10
ENDMDL
MODEL 4
REMARK VINA RESULT:      -9.8      2.802      9.331
REMARK  10 active torsions:
REMARK  status: ('A' for Active; 'I' for Inactive)
REMARK    1  A    between atoms: C_2  and  O_3 
REMARK    2  A    between atoms: O_3  and  C_4 
REMARK    3  A    between atoms: C_4  and  C_5 
REMARK    4  A    between atoms: C_7  and  N_8 
REMARK    5  A    between atoms: N_8  and  C_9 
REMARK    6  A    between atoms: C_9  and  N_10 
REMARK       I    between atoms: N_10  and  C_11 
REMARK    7  A    between atoms: C_11  and  C_12 
REMARK    8  A    between atoms: C_21  and  N_22 
REMARK    9  A    between atoms: N_25  and  C_27 
REMARK   10  A    between atoms: C_27  and  C_28 
ROOT
HETATM    1  C   UNL     1       7.494  24.996  54.080  1.00  0.00     0.041 A 
HETATM    2  C   UNL     1       7.182  26.286  53.630  1.00  0.00     0.049 A 
HETATM    3  C   UNL     1       6.943  27.321  54.545  1.00  0.00     0.062 A 
HETATM    4  C   UNL     1       7.072  27.086  55.937  1.00  0.00     0.057 A 
HETATM    5  C   UNL     1       7.385  25.784  56.362  1.00  0.00     0.033 A 
HETATM    6  C   UNL     1       7.591  24.747  55.449  1.00  0.00     0.020 A 
ENDROOT
BRANCH   3   7
HETATM    7  N   UNL     1       6.390  28.562  54.127  1.00  0.00    -0.331 N 
HETATM    8  H   UNL     1       6.769  29.344  54.645  1.00  0.00     0.168 HD
BRANCH   7   9
HETATM    9  C   UNL     1       5.175  28.786  53.573  1.00  0.00     0.179 C 
HETATM   10  S   UNL     1       4.170  29.938  54.246  1.00  0.00    -0.040 SA
BRANCH   9  11
HETATM   11  N   UNL     1       4.781  28.136  52.442  1.00  0.00    -0.299 N 
HETATM   12  C   UNL     1       5.052  28.539  51.135  1.00  0.00     0.258 C 
HETATM   13  O   UNL     1       5.914  29.346  50.806  1.00  0.00    -0.267 OA
HETATM   14  H   UNL     1       3.941  27.590  52.575  1.00  0.00     0.171 HD
BRANCH  12  15
HETATM   15  C   UNL     1       4.168  27.922  50.094  1.00  0.00     0.038 A 
HETATM   16  C   UNL     1       2.933  28.505  49.743  1.00  0.00    -0.046 A 
HETATM   17  C   UNL     1       2.422  29.766  50.385  1.00  0.00     0.049 C 
HETATM   18  C   UNL     1       2.135  27.871  48.775  1.00  0.00     0.007 A 
HETATM   19  C   UNL     1       2.552  26.690  48.160  1.00  0.00     0.001 A 
HETATM   20  C   UNL     1       3.764  26.110  48.518  1.00  0.00     0.001 A 
HETATM   21  C   UNL     1       4.564  26.715  49.488  1.00  0.00     0.017 A 
ENDBRANCH  12  15
ENDBRANCH   9  11
ENDBRANCH   7   9
ENDBRANCH   3   7
BRANCH   4  22
HETATM   22  N   UNL     1       6.969  28.080  56.906  1.00  0.00    -0.376 N 
HETATM   23  C   UNL     1       5.646  28.512  57.379  1.00  0.00     0.150 C 
HETATM   24  C   UNL     1       5.673  30.026  57.674  1.00  0.00     0.255 C 
HETATM   25  N   UNL     1       6.833  30.374  58.619  1.00  0.00    -0.064 N 
HETATM   26  H   UNL     1       6.659  29.864  59.493  1.00  0.00     0.280 HD
HETATM   27  C   UNL     1       8.168  29.888  58.057  1.00  0.00     0.255 C 
HETATM   28  C   UNL     1       8.125  28.377  57.751  1.00  0.00     0.150 C 
BRANCH  25  29
HETATM   29  C   UNL     1       6.881  31.841  58.962  1.00  0.00     0.273 C 
BRANCH  29  30
HETATM   30  C   UNL     1       7.198  32.092  60.410  1.00  0.00    -0.033 A 
HETATM   31  C   UNL     1       6.189  32.496  61.298  1.00  0.00     0.009 A 
HETATM   32  C   UNL     1       6.487  32.751  62.637  1.00  0.00     0.001 A 
HETATM   33  C   UNL     1       7.792  32.608  63.101  1.00  0.00     0.000 A 
HETATM   34  C   UNL     1       8.801  32.203  62.230  1.00  0.00     0.001 A 
HETATM   35  C   UNL     1       8.508  31.946  60.891  1.00  0.00     0.009 A 
ENDBRANCH  29  30
ENDBRANCH  25  29
ENDBRANCH   4  22
BRANCH   1  36
HETATM   36  C   UNL     1       7.670  23.921  53.067  1.00  0.00     0.293 C 
HETATM   37  O   UNL     1       7.875  24.141  51.886  1.00  0.00    -0.259 OA
BRANCH  36  38
HETATM   38  O   UNL     1       7.513  22.708  53.650  1.00  0.00    -0.318 OA
BRANCH  38  39
HETATM   39  C   UNL     1       8.625  21.805  53.537  1.00  0.00     0.174 C 
HETATM   40  C   UNL     1       8.184  20.530  52.845  1.00  0.00     0.034 C 
ENDBRANCH  38  39
ENDBRANCH  36  38
ENDBRANCH   1  36
TORSDOF 10
ENDMDL
MODEL 5
REMARK VINA RESULT:      -9.8      1.104      2.244
REMARK  10 active torsions:
REMARK  status: ('A' for Active; 'I' for Inactive)
REMARK    1  A    between atoms: C_2  and  O_3 
REMARK    2  A    between atoms: O_3  and  C_4 
REMARK    3  A    between atoms: C_4  and  C_5 
REMARK    4  A    between atoms: C_7  and  N_8 
REMARK    5  A    between atoms: N_8  and  C_9 
REMARK    6  A    between atoms: C_9  and  N_10 
REMARK       I    between atoms: N_10  and  C_11 
REMARK    7  A    between atoms: C_11  and  C_12 
REMARK    8  A    between atoms: C_21  and  N_22 
REMARK    9  A    between atoms: N_25  and  C_27 
REMARK   10  A    between atoms: C_27  and  C_28 
ROOT
HETATM    1  C   UNL     1       7.150  29.827  57.424  1.00  0.00     0.041 A 
HETATM    2  C   UNL     1       7.560  28.551  57.015  1.00  0.00     0.049 A 
HETATM    3  C   UNL     1       6.988  27.947  55.885  1.00  0.00     0.062 A 
HETATM    4  C   UNL     1       6.030  28.648  55.110  1.00  0.00     0.057 A 
HETATM    5  C   UNL     1       5.637  29.926  55.542  1.00  0.00     0.033 A 
HETATM    6  C   UNL     1       6.183  30.511  56.686  1.00  0.00     0.020 A 
ENDROOT
BRANCH   3   7
HETATM    7  N   UNL     1       7.205  26.573  55.595  1.00  0.00    -0.331 N 
HETATM    8  H   UNL     1       7.567  26.431  54.662  1.00  0.00     0.168 HD
BRANCH   7   9
HETATM    9  C   UNL     1       6.566  25.502  56.123  1.00  0.00     0.179 C 
HETATM   10  S   UNL     1       5.299  25.747  57.184  1.00  0.00    -0.040 SA
BRANCH   9  11
HETATM   11  N   UNL     1       6.894  24.231  55.759  1.00  0.00    -0.299 N 
HETATM   12  C   UNL     1       8.180  23.690  55.754  1.00  0.00     0.258 C 
HETATM   13  O   UNL     1       9.147  24.158  56.344  1.00  0.00    -0.267 OA
HETATM   14  H   UNL     1       6.239  23.829  55.102  1.00  0.00     0.171 HD
BRANCH  12  15
HETATM   15  C   UNL     1       8.336  22.455  54.922  1.00  0.00     0.038 A 
HETATM   16  C   UNL     1       8.209  22.496  53.519  1.00  0.00    -0.046 A 
HETATM   17  C   UNL     1       7.905  23.765  52.770  1.00  0.00     0.049 C 
HETATM   18  C   UNL     1       8.344  21.300  52.791  1.00  0.00     0.007 A 
HETATM   19  C   UNL     1       8.608  20.091  53.435  1.00  0.00     0.001 A 
HETATM   20  C   UNL     1       8.720  20.051  54.820  1.00  0.00     0.001 A 
HETATM   21  C   UNL     1       8.573  21.223  55.563  1.00  0.00     0.017 A 
ENDBRANCH  12  15
ENDBRANCH   9  11
ENDBRANCH   7   9
ENDBRANCH   3   7
BRANCH   4  22
HETATM   22  N   UNL     1       5.502  28.173  53.913  1.00  0.00    -0.376 N 
HETATM   23  C   UNL     1       4.403  27.197  53.930  1.00  0.00     0.150 C 
HETATM   24  C   UNL     1       4.569  26.214  52.752  1.00  0.00     0.255 C 
HETATM   25  N   UNL     1       4.725  26.976  51.427  1.00  0.00    -0.064 N 
HETATM   26  H   UNL     1       3.861  27.513  51.298  1.00  0.00     0.280 HD
HETATM   27  C   UNL     1       5.883  27.970  51.496  1.00  0.00     0.255 C 
HETATM   28  C   UNL     1       5.716  28.938  52.685  1.00  0.00     0.150 C 
BRANCH  25  29
HETATM   29  C   UNL     1       4.859  26.054  50.242  1.00  0.00     0.273 C 
BRANCH  29  30
HETATM   30  C   UNL     1       3.930  26.413  49.116  1.00  0.00    -0.033 A 
HETATM   31  C   UNL     1       3.431  25.416  48.263  1.00  0.00     0.009 A 
HETATM   32  C   UNL     1       2.587  25.750  47.204  1.00  0.00     0.001 A 
HETATM   33  C   UNL     1       2.234  27.080  46.986  1.00  0.00     0.000 A 
HETATM   34  C   UNL     1       2.719  28.077  47.828  1.00  0.00     0.001 A 
HETATM   35  C   UNL     1       3.563  27.748  48.890  1.00  0.00     0.009 A 
ENDBRANCH  29  30
ENDBRANCH  25  29
ENDBRANCH   4  22
BRANCH   1  36
HETATM   36  C   UNL     1       7.739  30.391  58.667  1.00  0.00     0.293 C 
HETATM   37  O   UNL     1       8.390  29.730  59.459  1.00  0.00    -0.259 OA
BRANCH  36  38
HETATM   38  O   UNL     1       7.395  31.695  58.792  1.00  0.00    -0.318 OA
BRANCH  38  39
HETATM   39  C   UNL     1       6.877  32.091  60.072  1.00  0.00     0.174 C 
HETATM   40  C   UNL     1       5.587  32.866  59.888  1.00  0.00     0.034 C 
ENDBRANCH  38  39
ENDBRANCH  36  38
ENDBRANCH   1  36
TORSDOF 10
ENDMDL
MODEL 6
REMARK VINA RESULT:      -9.7      2.597      9.327
REMARK  10 active torsions:
REMARK  status: ('A' for Active; 'I' for Inactive)
REMARK    1  A    between atoms: C_2  and  O_3 
REMARK    2  A    between atoms: O_3  and  C_4 
REMARK    3  A    between atoms: C_4  and  C_5 
REMARK    4  A    between atoms: C_7  and  N_8 
REMARK    5  A    between atoms: N_8  and  C_9 
REMARK    6  A    between atoms: C_9  and  N_10 
REMARK       I    between atoms: N_10  and  C_11 
REMARK    7  A    between atoms: C_11  and  C_12 
REMARK    8  A    between atoms: C_21  and  N_22 
REMARK    9  A    between atoms: N_25  and  C_27 
REMARK   10  A    between atoms: C_27  and  C_28 
ROOT
HETATM    1  C   UNL     1       7.600  24.472  55.115  1.00  0.00     0.041 A 
HETATM    2  C   UNL     1       7.159  25.590  54.393  1.00  0.00     0.049 A 
HETATM    3  C   UNL     1       7.275  26.879  54.934  1.00  0.00     0.062 A 
HETATM    4  C   UNL     1       7.894  27.070  56.195  1.00  0.00     0.057 A 
HETATM    5  C   UNL     1       8.327  25.933  56.898  1.00  0.00     0.033 A 
HETATM    6  C   UNL     1       8.181  24.648  56.372  1.00  0.00     0.020 A 
ENDROOT
BRANCH   3   7
HETATM    7  N   UNL     1       6.621  27.989  54.336  1.00  0.00    -0.331 N 
HETATM    8  H   UNL     1       7.070  28.867  54.565  1.00  0.00     0.168 HD
BRANCH   7   9
HETATM    9  C   UNL     1       5.317  28.096  53.985  1.00  0.00     0.179 C 
HETATM   10  S   UNL     1       4.237  28.790  55.053  1.00  0.00    -0.040 SA
BRANCH   9  11
HETATM   11  N   UNL     1       4.881  27.707  52.755  1.00  0.00    -0.299 N 
HETATM   12  C   UNL     1       5.133  28.369  51.553  1.00  0.00     0.258 C 
HETATM   13  O   UNL     1       6.009  29.208  51.377  1.00  0.00    -0.267 OA
HETATM   14  H   UNL     1       4.030  27.163  52.793  1.00  0.00     0.171 HD
BRANCH  12  15
HETATM   15  C   UNL     1       4.210  28.003  50.431  1.00  0.00     0.038 A 
HETATM   16  C   UNL     1       3.026  28.729  50.192  1.00  0.00    -0.046 A 
HETATM   17  C   UNL     1       2.609  29.900  51.038  1.00  0.00     0.049 C 
HETATM   18  C   UNL     1       2.186  28.327  49.137  1.00  0.00     0.007 A 
HETATM   19  C   UNL     1       2.515  27.236  48.332  1.00  0.00     0.001 A 
HETATM   20  C   UNL     1       3.677  26.514  48.579  1.00  0.00     0.001 A 
HETATM   21  C   UNL     1       4.516  26.886  49.630  1.00  0.00     0.017 A 
ENDBRANCH  12  15
ENDBRANCH   9  11
ENDBRANCH   7   9
ENDBRANCH   3   7
BRANCH   4  22
HETATM   22  N   UNL     1       8.156  28.319  56.750  1.00  0.00    -0.376 N 
HETATM   23  C   UNL     1       9.020  29.273  56.039  1.00  0.00     0.150 C 
HETATM   24  C   UNL     1       9.850  30.076  57.063  1.00  0.00     0.255 C 
HETATM   25  N   UNL     1       8.938  30.709  58.124  1.00  0.00    -0.064 N 
HETATM   26  H   UNL     1       8.311  31.349  57.623  1.00  0.00     0.280 HD
HETATM   27  C   UNL     1       8.073  29.653  58.810  1.00  0.00     0.255 C 
HETATM   28  C   UNL     1       7.259  28.846  57.778  1.00  0.00     0.150 C 
BRANCH  25  29
HETATM   29  C   UNL     1       9.704  31.532  59.129  1.00  0.00     0.273 C 
BRANCH  29  30
HETATM   30  C   UNL     1       8.865  31.945  60.305  1.00  0.00    -0.033 A 
HETATM   31  C   UNL     1       9.314  31.710  61.615  1.00  0.00     0.009 A 
HETATM   32  C   UNL     1       8.525  32.072  62.708  1.00  0.00     0.001 A 
HETATM   33  C   UNL     1       7.284  32.670  62.505  1.00  0.00     0.000 A 
HETATM   34  C   UNL     1       6.830  32.913  61.211  1.00  0.00     0.001 A 
HETATM   35  C   UNL     1       7.615  32.553  60.114  1.00  0.00     0.009 A 
ENDBRANCH  29  30
ENDBRANCH  25  29
ENDBRANCH   4  22
BRANCH   1  36
HETATM   36  C   UNL     1       7.390  23.124  54.524  1.00  0.00     0.293 C 
HETATM   37  O   UNL     1       7.198  22.938  53.334  1.00  0.00    -0.259 OA
BRANCH  36  38
HETATM   38  O   UNL     1       7.392  22.186  55.501  1.00  0.00    -0.318 OA
BRANCH  38  39
HETATM   39  C   UNL     1       7.940  20.906  55.146  1.00  0.00     0.174 C 
HETATM   40  C   UNL     1       8.794  20.380  56.282  1.00  0.00     0.034 C 
ENDBRANCH  38  39
ENDBRANCH  36  38
ENDBRANCH   1  36
TORSDOF 10
ENDMDL
MODEL 7
REMARK VINA RESULT:      -9.7      3.665      8.488
REMARK  10 active torsions:
REMARK  status: ('A' for Active; 'I' for Inactive)
REMARK    1  A    between atoms: C_2  and  O_3 
REMARK    2  A    between atoms: O_3  and  C_4 
REMARK    3  A    between atoms: C_4  and  C_5 
REMARK    4  A    between atoms: C_7  and  N_8 
REMARK    5  A    between atoms: N_8  and  C_9 
REMARK    6  A    between atoms: C_9  and  N_10 
REMARK       I    between atoms: N_10  and  C_11 
REMARK    7  A    between atoms: C_11  and  C_12 
REMARK    8  A    between atoms: C_21  and  N_22 
REMARK    9  A    between atoms: N_25  and  C_27 
REMARK   10  A    between atoms: C_27  and  C_28 
ROOT
HETATM    1  C   UNL     1       4.338  31.357  55.411  1.00  0.00     0.041 A 
HETATM    2  C   UNL     1       5.275  30.899  56.348  1.00  0.00     0.049 A 
HETATM    3  C   UNL     1       5.830  29.617  56.233  1.00  0.00     0.062 A 
HETATM    4  C   UNL     1       5.491  28.789  55.132  1.00  0.00     0.057 A 
HETATM    5  C   UNL     1       4.549  29.272  54.208  1.00  0.00     0.033 A 
HETATM    6  C   UNL     1       3.974  30.536  54.343  1.00  0.00     0.020 A 
ENDROOT
BRANCH   3   7
HETATM    7  N   UNL     1       6.585  29.043  57.291  1.00  0.00    -0.331 N 
HETATM    8  H   UNL     1       6.100  28.275  57.735  1.00  0.00     0.168 HD
BRANCH   7   9
HETATM    9  C   UNL     1       7.522  29.644  58.063  1.00  0.00     0.179 C 
HETATM   10  S   UNL     1       9.094  29.750  57.508  1.00  0.00    -0.040 SA
BRANCH   9  11
HETATM   11  N   UNL     1       7.196  30.217  59.255  1.00  0.00    -0.299 N 
HETATM   12  C   UNL     1       7.129  31.587  59.508  1.00  0.00     0.258 C 
HETATM   13  O   UNL     1       7.059  32.463  58.654  1.00  0.00    -0.267 OA
HETATM   14  H   UNL     1       7.411  29.628  60.047  1.00  0.00     0.171 HD
BRANCH  12  15
HETATM   15  C   UNL     1       7.179  31.958  60.959  1.00  0.00     0.038 A 
HETATM   16  C   UNL     1       8.406  32.103  61.636  1.00  0.00    -0.046 A 
HETATM   17  C   UNL     1       9.733  31.892  60.960  1.00  0.00     0.049 C 
HETATM   18  C   UNL     1       8.392  32.432  63.003  1.00  0.00     0.007 A 
HETATM   19  C   UNL     1       7.189  32.621  63.685  1.00  0.00     0.001 A 
HETATM   20  C   UNL     1       5.979  32.464  63.018  1.00  0.00     0.001 A 
HETATM   21  C   UNL     1       5.972  32.123  61.665  1.00  0.00     0.017 A 
ENDBRANCH  12  15
ENDBRANCH   9  11
ENDBRANCH   7   9
ENDBRANCH   3   7
BRANCH   4  22
HETATM   22  N   UNL     1       6.082  27.555  54.878  1.00  0.00    -0.376 N 
HETATM   23  C   UNL     1       7.483  27.487  54.439  1.00  0.00     0.150 C 
HETATM   24  C   UNL     1       7.653  26.326  53.437  1.00  0.00     0.255 C 
HETATM   25  N   UNL     1       7.104  25.017  54.025  1.00  0.00    -0.064 N 
HETATM   26  H   UNL     1       7.660  24.821  54.865  1.00  0.00     0.280 HD
HETATM   27  C   UNL     1       5.648  25.175  54.459  1.00  0.00     0.255 C 
HETATM   28  C   UNL     1       5.486  26.347  55.447  1.00  0.00     0.150 C 
BRANCH  25  29
HETATM   29  C   UNL     1       7.278  23.846  53.092  1.00  0.00     0.273 C 
BRANCH  29  30
HETATM   30  C   UNL     1       7.657  22.580  53.809  1.00  0.00    -0.033 A 
HETATM   31  C   UNL     1       7.604  22.515  55.210  1.00  0.00     0.009 A 
HETATM   32  C   UNL     1       7.978  21.349  55.878  1.00  0.00     0.001 A 
HETATM   33  C   UNL     1       8.409  20.239  55.155  1.00  0.00     0.000 A 
HETATM   34  C   UNL     1       8.461  20.289  53.764  1.00  0.00     0.001 A 
HETATM   35  C   UNL     1       8.087  21.453  53.092  1.00  0.00     0.009 A 
ENDBRANCH  29  30
ENDBRANCH  25  29
ENDBRANCH   4  22
BRANCH   1  36
HETATM   36  C   UNL     1       3.731  32.698  55.620  1.00  0.00     0.293 C 
HETATM   37  O   UNL     1       4.380  33.689  55.907  1.00  0.00    -0.259 OA
BRANCH  36  38
HETATM   38  O   UNL     1       2.384  32.619  55.499  1.00  0.00    -0.318 OA
BRANCH  38  39
HETATM   39  C   UNL     1       1.751  33.691  54.780  1.00  0.00     0.174 C 
HETATM   40  C   UNL     1       1.645  33.333  53.311  1.00  0.00     0.034 C 
ENDBRANCH  38  39
ENDBRANCH  36  38
ENDBRANCH   1  36
TORSDOF 10
ENDMDL
MODEL 8
REMARK VINA RESULT:      -9.6      2.636      7.917
REMARK  10 active torsions:
REMARK  status: ('A' for Active; 'I' for Inactive)
REMARK    1  A    between atoms: C_2  and  O_3 
REMARK    2  A    between atoms: O_3  and  C_4 
REMARK    3  A    between atoms: C_4  and  C_5 
REMARK    4  A    between atoms: C_7  and  N_8 
REMARK    5  A    between atoms: N_8  and  C_9 
REMARK    6  A    between atoms: C_9  and  N_10 
REMARK       I    between atoms: N_10  and  C_11 
REMARK    7  A    between atoms: C_11  and  C_12 
REMARK    8  A    between atoms: C_21  and  N_22 
REMARK    9  A    between atoms: N_25  and  C_27 
REMARK   10  A    between atoms: C_27  and  C_28 
ROOT
HETATM    1  C   UNL     1       5.251  27.435  52.210  1.00  0.00     0.041 A 
HETATM    2  C   UNL     1       5.645  26.630  53.288  1.00  0.00     0.049 A 
HETATM    3  C   UNL     1       5.892  27.194  54.547  1.00  0.00     0.062 A 
HETATM    4  C   UNL     1       5.690  28.582  54.758  1.00  0.00     0.057 A 
HETATM    5  C   UNL     1       5.296  29.367  53.662  1.00  0.00     0.033 A 
HETATM    6  C   UNL     1       5.082  28.807  52.401  1.00  0.00     0.020 A 
ENDROOT
BRANCH   3   7
HETATM    7  N   UNL     1       6.521  26.447  55.579  1.00  0.00    -0.331 N 
HETATM    8  H   UNL     1       7.528  26.546  55.564  1.00  0.00     0.168 HD
BRANCH   7   9
HETATM    9  C   UNL     1       6.072  25.320  56.180  1.00  0.00     0.179 C 
HETATM   10  S   UNL     1       4.897  25.436  57.362  1.00  0.00    -0.040 SA
BRANCH   9  11
HETATM   11  N   UNL     1       6.513  24.089  55.798  1.00  0.00    -0.299 N 
HETATM   12  C   UNL     1       7.848  23.707  55.663  1.00  0.00     0.258 C 
HETATM   13  O   UNL     1       8.807  24.303  56.142  1.00  0.00    -0.267 OA
HETATM   14  H   UNL     1       5.848  23.596  55.220  1.00  0.00     0.171 HD
BRANCH  12  15
HETATM   15  C   UNL     1       8.067  22.479  54.834  1.00  0.00     0.038 A 
HETATM   16  C   UNL     1       8.328  21.229  55.431  1.00  0.00    -0.046 A 
HETATM   17  C   UNL     1       8.412  21.046  56.922  1.00  0.00     0.049 C 
HETATM   18  C   UNL     1       8.546  20.114  54.603  1.00  0.00     0.007 A 
HETATM   19  C   UNL     1       8.499  20.230  53.213  1.00  0.00     0.001 A 
HETATM   20  C   UNL     1       8.254  21.467  52.626  1.00  0.00     0.001 A 
HETATM   21  C   UNL     1       8.051  22.589  53.431  1.00  0.00     0.017 A 
ENDBRANCH  12  15
ENDBRANCH   9  11
ENDBRANCH   7   9
ENDBRANCH   3   7
BRANCH   4  22
HETATM   22  N   UNL     1       5.797  29.202  55.999  1.00  0.00    -0.376 N 
HETATM   23  C   UNL     1       4.651  29.207  56.920  1.00  0.00     0.150 C 
HETATM   24  C   UNL     1       4.622  30.540  57.698  1.00  0.00     0.255 C 
HETATM   25  N   UNL     1       5.978  30.808  58.366  1.00  0.00    -0.064 N 
HETATM   26  H   UNL     1       6.134  30.037  59.026  1.00  0.00     0.280 HD
HETATM   27  C   UNL     1       7.113  30.781  57.344  1.00  0.00     0.255 C 
HETATM   28  C   UNL     1       7.124  29.452  56.561  1.00  0.00     0.150 C 
BRANCH  25  29
HETATM   29  C   UNL     1       5.987  32.087  59.165  1.00  0.00     0.273 C 
BRANCH  29  30
HETATM   30  C   UNL     1       6.954  32.049  60.316  1.00  0.00    -0.033 A 
HETATM   31  C   UNL     1       6.482  31.979  61.637  1.00  0.00     0.009 A 
HETATM   32  C   UNL     1       7.378  31.967  62.706  1.00  0.00     0.001 A 
HETATM   33  C   UNL     1       8.749  32.025  62.469  1.00  0.00     0.000 A 
HETATM   34  C   UNL     1       9.229  32.089  61.163  1.00  0.00     0.001 A 
HETATM   35  C   UNL     1       8.337  32.100  60.090  1.00  0.00     0.009 A 
ENDBRANCH  29  30
ENDBRANCH  25  29
ENDBRANCH   4  22
BRANCH   1  36
HETATM   36  C   UNL     1       5.069  26.794  50.881  1.00  0.00     0.293 C 
HETATM   37  O   UNL     1       4.891  25.597  50.734  1.00  0.00    -0.259 OA
BRANCH  36  38
HETATM   38  O   UNL     1       5.189  27.721  49.901  1.00  0.00    -0.318 OA
BRANCH  38  39
HETATM   39  C   UNL     1       4.216  27.652  48.845  1.00  0.00     0.174 C 
HETATM   40  C   UNL     1       2.922  28.300  49.296  1.00  0.00     0.034 C 
ENDBRANCH  38  39
ENDBRANCH  36  38
ENDBRANCH   1  36
TORSDOF 10
ENDMDL
MODEL 9
REMARK VINA RESULT:      -9.5      1.557      2.401
REMARK  10 active torsions:
REMARK  status: ('A' for Active; 'I' for Inactive)
REMARK    1  A    between atoms: C_2  and  O_3 
REMARK    2  A    between atoms: O_3  and  C_4 
REMARK    3  A    between atoms: C_4  and  C_5 
REMARK    4  A    between atoms: C_7  and  N_8 
REMARK    5  A    between atoms: N_8  and  C_9 
REMARK    6  A    between atoms: C_9  and  N_10 
REMARK       I    between atoms: N_10  and  C_11 
REMARK    7  A    between atoms: C_11  and  C_12 
REMARK    8  A    between atoms: C_21  and  N_22 
REMARK    9  A    between atoms: N_25  and  C_27 
REMARK   10  A    between atoms: C_27  and  C_28 
ROOT
HETATM    1  C   UNL     1       5.506  31.064  57.368  1.00  0.00     0.041 A 
HETATM    2  C   UNL     1       6.476  30.227  56.799  1.00  0.00     0.049 A 
HETATM    3  C   UNL     1       6.196  29.502  55.633  1.00  0.00     0.062 A 
HETATM    4  C   UNL     1       4.945  29.652  54.983  1.00  0.00     0.057 A 
HETATM    5  C   UNL     1       3.990  30.497  55.573  1.00  0.00     0.033 A 
HETATM    6  C   UNL     1       4.260  31.193  56.753  1.00  0.00     0.020 A 
ENDROOT
BRANCH   3   7
HETATM    7  N   UNL     1       7.063  28.472  55.179  1.00  0.00    -0.331 N 
HETATM    8  H   UNL     1       7.130  28.444  54.171  1.00  0.00     0.168 HD
BRANCH   7   9
HETATM    9  C   UNL     1       7.362  27.305  55.798  1.00  0.00     0.179 C 
HETATM   10  S   UNL     1       7.439  27.261  57.467  1.00  0.00    -0.040 SA
BRANCH   9  11
HETATM   11  N   UNL     1       7.540  26.154  55.093  1.00  0.00    -0.299 N 
HETATM   12  C   UNL     1       6.643  25.086  55.034  1.00  0.00     0.258 C 
HETATM   13  O   UNL     1       5.460  25.137  55.352  1.00  0.00    -0.267 OA
HETATM   14  H   UNL     1       8.514  25.925  54.952  1.00  0.00     0.171 HD
BRANCH  12  15
HETATM   15  C   UNL     1       7.238  23.795  54.564  1.00  0.00     0.038 A 
HETATM   16  C   UNL     1       7.605  23.605  53.216  1.00  0.00    -0.046 A 
HETATM   17  C   UNL     1       7.420  24.669  52.170  1.00  0.00     0.049 C 
HETATM   18  C   UNL     1       8.139  22.364  52.827  1.00  0.00     0.007 A 
HETATM   19  C   UNL     1       8.315  21.334  53.752  1.00  0.00     0.001 A 
HETATM   20  C   UNL     1       7.941  21.520  55.079  1.00  0.00     0.001 A 
HETATM   21  C   UNL     1       7.394  22.738  55.482  1.00  0.00     0.017 A 
ENDBRANCH  12  15
ENDBRANCH   9  11
ENDBRANCH   7   9
ENDBRANCH   3   7
BRANCH   4  22
HETATM   22  N   UNL     1       4.628  29.064  53.762  1.00  0.00    -0.376 N 
HETATM   23  C   UNL     1       4.001  27.735  53.727  1.00  0.00     0.150 C 
HETATM   24  C   UNL     1       4.523  26.951  52.504  1.00  0.00     0.255 C 
HETATM   25  N   UNL     1       4.347  27.773  51.218  1.00  0.00    -0.064 N 
HETATM   26  H   UNL     1       3.339  27.932  51.111  1.00  0.00     0.280 HD
HETATM   27  C   UNL     1       5.022  29.139  51.339  1.00  0.00     0.255 C 
HETATM   28  C   UNL     1       4.506  29.906  52.573  1.00  0.00     0.150 C 
BRANCH  25  29
HETATM   29  C   UNL     1       4.815  27.034  49.990  1.00  0.00     0.273 C 
BRANCH  29  30
HETATM   30  C   UNL     1       3.745  26.909  48.942  1.00  0.00    -0.033 A 
HETATM   31  C   UNL     1       2.684  27.828  48.898  1.00  0.00     0.009 A 
HETATM   32  C   UNL     1       1.678  27.700  47.940  1.00  0.00     0.001 A 
HETATM   33  C   UNL     1       1.721  26.656  47.018  1.00  0.00     0.000 A 
HETATM   34  C   UNL     1       2.771  25.741  47.049  1.00  0.00     0.001 A 
HETATM   35  C   UNL     1       3.780  25.866  48.005  1.00  0.00     0.009 A 
ENDBRANCH  29  30
ENDBRANCH  25  29
ENDBRANCH   4  22
BRANCH   1  36
HETATM   36  C   UNL     1       5.834  31.757  58.642  1.00  0.00     0.293 C 
HETATM   37  O   UNL     1       4.992  32.079  59.464  1.00  0.00    -0.259 OA
BRANCH  36  38
HETATM   38  O   UNL     1       7.163  32.009  58.703  1.00  0.00    -0.318 OA
BRANCH  38  39
HETATM   39  C   UNL     1       7.792  31.775  59.973  1.00  0.00     0.174 C 
HETATM   40  C   UNL     1       8.603  30.495  59.918  1.00  0.00     0.034 C 
ENDBRANCH  38  39
ENDBRANCH  36  38
ENDBRANCH   1  36
TORSDOF 10
ENDMDL
MODEL 10
REMARK VINA RESULT:      -9.4      3.403      8.621
REMARK  10 active torsions:
REMARK  status: ('A' for Active; 'I' for Inactive)
REMARK    1  A    between atoms: C_2  and  O_3 
REMARK    2  A    between atoms: O_3  and  C_4 
REMARK    3  A    between atoms: C_4  and  C_5 
REMARK    4  A    between atoms: C_7  and  N_8 
REMARK    5  A    between atoms: N_8  and  C_9 
REMARK    6  A    between atoms: C_9  and  N_10 
REMARK       I    between atoms: N_10  and  C_11 
REMARK    7  A    between atoms: C_11  and  C_12 
REMARK    8  A    between atoms: C_21  and  N_22 
REMARK    9  A    between atoms: N_25  and  C_27 
REMARK   10  A    between atoms: C_27  and  C_28 
ROOT
HETATM    1  C   UNL     1       4.016  28.758  49.042  1.00  0.00     0.041 A 
HETATM    2  C   UNL     1       3.959  29.079  50.405  1.00  0.00     0.049 A 
HETATM    3  C   UNL     1       4.428  28.176  51.370  1.00  0.00     0.062 A 
HETATM    4  C   UNL     1       5.020  26.950  50.972  1.00  0.00     0.057 A 
HETATM    5  C   UNL     1       5.064  26.653  49.599  1.00  0.00     0.033 A 
HETATM    6  C   UNL     1       4.566  27.539  48.643  1.00  0.00     0.020 A 
ENDROOT
BRANCH   3   7
HETATM    7  N   UNL     1       4.160  28.369  52.752  1.00  0.00    -0.331 N 
HETATM    8  H   UNL     1       3.323  27.887  53.051  1.00  0.00     0.168 HD
BRANCH   7   9
HETATM    9  C   UNL     1       4.514  29.422  53.528  1.00  0.00     0.179 C 
HETATM   10  S   UNL     1       3.482  30.730  53.650  1.00  0.00    -0.040 SA
BRANCH   9  11
HETATM   11  N   UNL     1       5.663  29.408  54.259  1.00  0.00    -0.299 N 
HETATM   12  C   UNL     1       5.935  28.563  55.335  1.00  0.00     0.258 C 
HETATM   13  O   UNL     1       5.329  27.529  55.594  1.00  0.00    -0.267 OA
HETATM   14  H   UNL     1       6.136  30.301  54.263  1.00  0.00     0.171 HD
BRANCH  12  15
HETATM   15  C   UNL     1       7.049  29.022  56.225  1.00  0.00     0.038 A 
HETATM   16  C   UNL     1       6.811  29.896  57.305  1.00  0.00    -0.046 A 
HETATM   17  C   UNL     1       5.441  30.426  57.630  1.00  0.00     0.049 C 
HETATM   18  C   UNL     1       7.898  30.310  58.094  1.00  0.00     0.007 A 
HETATM   19  C   UNL     1       9.193  29.864  57.827  1.00  0.00     0.001 A 
HETATM   20  C   UNL     1       9.427  29.012  56.753  1.00  0.00     0.001 A 
HETATM   21  C   UNL     1       8.364  28.602  55.948  1.00  0.00     0.017 A 
ENDBRANCH  12  15
ENDBRANCH   9  11
ENDBRANCH   7   9
ENDBRANCH   3   7
BRANCH   4  22
HETATM   22  N   UNL     1       5.616  26.053  51.853  1.00  0.00    -0.376 N 
HETATM   23  C   UNL     1       4.842  24.924  52.387  1.00  0.00     0.150 C 
HETATM   24  C   UNL     1       5.274  24.646  53.843  1.00  0.00     0.255 C 
HETATM   25  N   UNL     1       6.798  24.475  53.934  1.00  0.00    -0.064 N 
HETATM   26  H   UNL     1       7.034  23.663  53.352  1.00  0.00     0.280 HD
HETATM   27  C   UNL     1       7.525  25.688  53.354  1.00  0.00     0.255 C 
HETATM   28  C   UNL     1       7.075  25.966  51.906  1.00  0.00     0.150 C 
BRANCH  25  29
HETATM   29  C   UNL     1       7.264  24.170  55.334  1.00  0.00     0.273 C 
BRANCH  29  30
HETATM   30  C   UNL     1       7.720  22.748  55.501  1.00  0.00    -0.033 A 
HETATM   31  C   UNL     1       7.719  21.869  54.405  1.00  0.00     0.009 A 
HETATM   32  C   UNL     1       8.121  20.543  54.564  1.00  0.00     0.001 A 
HETATM   33  C   UNL     1       8.525  20.080  55.814  1.00  0.00     0.000 A 
HETATM   34  C   UNL     1       8.535  20.943  56.907  1.00  0.00     0.001 A 
HETATM   35  C   UNL     1       8.135  22.272  56.754  1.00  0.00     0.009 A 
ENDBRANCH  29  30
ENDBRANCH  25  29
ENDBRANCH   4  22
BRANCH   1  36
HETATM   36  C   UNL     1       3.441  29.723  48.067  1.00  0.00     0.293 C 
HETATM   37  O   UNL     1       3.736  30.906  48.044  1.00  0.00    -0.259 OA
BRANCH  36  38
HETATM   38  O   UNL     1       2.531  29.099  47.282  1.00  0.00    -0.318 OA
BRANCH  38  39
HETATM   39  C   UNL     1       1.290  28.745  47.914  1.00  0.00     0.174 C 
HETATM   40  C   UNL     1       0.934  27.309  47.580  1.00  0.00     0.034 C 
ENDBRANCH  38  39
ENDBRANCH  36  38
ENDBRANCH   1  36
TORSDOF 10
ENDMDL
