MODEL 1
REMARK VINA RESULT:      -9.1      0.000      0.000
REMARK  9 active torsions:
REMARK  status: ('A' for Active; 'I' for Inactive)
REMARK    1  A    between atoms: C_2  and  C_3 
REMARK    2  A    between atoms: C_3  and  C_4 
REMARK    3  A    between atoms: C_4  and  N_5 
REMARK    4  A    between atoms: C_14  and  C_15 
REMARK    5  A    between atoms: C_15  and  C_16 
REMARK    6  A    between atoms: C_16  and  C_17 
REMARK       I    between atoms: C_17  and  N_18 
REMARK    7  A    between atoms: N_18  and  C_19 
REMARK    8  A    between atoms: N_32  and  C_33 
REMARK    9  A    between atoms: C_33  and  C_34 
ROOT
HETATM    1  N   UNL     1       7.916  28.082  56.275  1.00  0.00    -0.282 N 
HETATM    2  C   UNL     1       7.879  27.714  57.618  1.00  0.00     0.331 A 
HETATM    3  O   UNL     1       8.124  28.481  58.548  1.00  0.00    -0.246 OA
HETATM    4  N   UNL     1       7.524  26.410  57.904  1.00  0.00    -0.273 N 
HETATM    5  C   UNL     1       7.184  25.419  57.013  1.00  0.00     0.280 A 
HETATM    6  O   UNL     1       6.827  24.305  57.377  1.00  0.00    -0.265 OA
HETATM    7  C   UNL     1       7.257  25.854  55.659  1.00  0.00     0.151 A 
HETATM    8  C   UNL     1       7.592  27.135  55.326  1.00  0.00     0.168 A 
HETATM    9  N   UNL     1       7.534  27.334  53.985  1.00  0.00    -0.215 NA
HETATM   10  C   UNL     1       7.273  26.145  53.465  1.00  0.00     0.109 A 
HETATM   11  N   UNL     1       7.070  25.207  54.466  1.00  0.00    -0.327 N 
HETATM   12  H   UNL     1       7.505  26.166  58.884  1.00  0.00     0.173 HD
ENDROOT
BRANCH  10  13
HETATM   13  C   UNL     1       7.191  25.856  51.994  1.00  0.00     0.088 C 
BRANCH  13  14
HETATM   14  C   UNL     1       5.752  25.807  51.482  1.00  0.00     0.110 C 
BRANCH  14  15
HETATM   15  C   UNL     1       5.259  27.151  50.976  1.00  0.00     0.218 C 
HETATM   16  N   UNL     1       4.138  27.103  50.172  1.00  0.00    -0.356 N 
HETATM   17  H   UNL     1       3.629  26.219  50.280  1.00  0.00     0.162 HD
HETATM   18  O   UNL     1       5.847  28.190  51.251  1.00  0.00    -0.274 OA
BRANCH  16  19
HETATM   19  C   UNL     1       3.312  28.255  49.825  1.00  0.00     0.089 C 
HETATM   20  C   UNL     1       2.004  27.808  49.156  1.00  0.00     0.063 C 
HETATM   21  C   UNL     1       2.117  27.447  47.664  1.00  0.00     0.121 C 
HETATM   22  C   UNL     1       2.740  26.070  47.410  1.00  0.00     0.046 C 
HETATM   23  C   UNL     1       0.707  27.436  47.037  1.00  0.00     0.046 C 
HETATM   24  N   UNL     1       2.891  28.514  46.921  1.00  0.00    -0.059 N 
HETATM   25  H   UNL     1       2.252  29.311  46.781  1.00  0.00     0.279 HD
HETATM   26  H   UNL     1       3.091  28.183  45.966  1.00  0.00     0.279 HD
HETATM   27  C   UNL     1       4.167  29.081  47.513  1.00  0.00     0.121 C 
HETATM   28  C   UNL     1       4.430  30.405  46.762  1.00  0.00     0.046 C 
HETATM   29  C   UNL     1       5.344  28.150  47.213  1.00  0.00     0.046 C 
HETATM   30  C   UNL     1       3.935  29.387  48.996  1.00  0.00     0.063 C 
ENDBRANCH  16  19
ENDBRANCH  14  15
ENDBRANCH  13  14
ENDBRANCH  10  13
BRANCH  11  31
HETATM   31  C   UNL     1       6.671  23.823  54.282  1.00  0.00     0.134 C 
BRANCH  31  32
HETATM   32  C   UNL     1       7.839  22.825  54.248  1.00  0.00    -0.004 C 
HETATM   33  C   UNL     1       7.701  21.745  55.322  1.00  0.00     0.011 C 
HETATM   34  C   UNL     1       7.919  22.178  52.865  1.00  0.00     0.011 C 
ENDBRANCH  31  32
ENDBRANCH  11  31
BRANCH   1  35
HETATM   35  C   UNL     1       8.381  29.414  55.897  1.00  0.00     0.135 C 
BRANCH  35  36
HETATM   36  C   UNL     1       9.857  29.470  55.498  1.00  0.00     0.020 C 
BRANCH  36  37
HETATM   37  C   UNL     1      10.799  29.562  56.698  1.00  0.00    -0.003 C 
HETATM   38  C   UNL     1      10.500  30.794  57.537  1.00  0.00     0.005 C 
ENDBRANCH  36  37
ENDBRANCH  35  36
ENDBRANCH   1  35
TORSDOF 9
ENDMDL
MODEL 2
REMARK VINA RESULT:      -9.0      1.641      4.805
REMARK  9 active torsions:
REMARK  status: ('A' for Active; 'I' for Inactive)
REMARK    1  A    between atoms: C_2  and  C_3 
REMARK    2  A    between atoms: C_3  and  C_4 
REMARK    3  A    between atoms: C_4  and  N_5 
REMARK    4  A    between atoms: C_14  and  C_15 
REMARK    5  A    between atoms: C_15  and  C_16 
REMARK    6  A    between atoms: C_16  and  C_17 
REMARK       I    between atoms: C_17  and  N_18 
REMARK    7  A    between atoms: N_18  and  C_19 
REMARK    8  A    between atoms: N_32  and  C_33 
REMARK    9  A    between atoms: C_33  and  C_34 
ROOT
HETATM    1  N   UNL     1       7.638  24.153  55.609  1.00  0.00    -0.282 N 
HETATM    2  C   UNL     1       8.041  23.945  56.927  1.00  0.00     0.331 A 
HETATM    3  O   UNL     1       8.343  22.845  57.387  1.00  0.00    -0.246 OA
HETATM    4  N   UNL     1       8.120  25.055  57.744  1.00  0.00    -0.273 N 
HETATM    5  C   UNL     1       7.860  26.363  57.408  1.00  0.00     0.280 A 
HETATM    6  O   UNL     1       8.018  27.286  58.198  1.00  0.00    -0.265 OA
HETATM    7  C   UNL     1       7.438  26.505  56.055  1.00  0.00     0.151 A 
HETATM    8  C   UNL     1       7.354  25.441  55.206  1.00  0.00     0.168 A 
HETATM    9  N   UNL     1       6.993  25.826  53.956  1.00  0.00    -0.215 NA
HETATM   10  C   UNL     1       6.738  27.121  54.047  1.00  0.00     0.109 A 
HETATM   11  N   UNL     1       7.024  27.587  55.322  1.00  0.00    -0.327 N 
HETATM   12  H   UNL     1       8.414  24.880  58.694  1.00  0.00     0.173 HD
ENDROOT
BRANCH  10  13
HETATM   13  C   UNL     1       6.227  27.973  52.922  1.00  0.00     0.088 C 
BRANCH  13  14
HETATM   14  C   UNL     1       4.887  27.483  52.373  1.00  0.00     0.110 C 
BRANCH  14  15
HETATM   15  C   UNL     1       5.014  26.810  51.019  1.00  0.00     0.218 C 
HETATM   16  N   UNL     1       4.073  27.185  50.082  1.00  0.00    -0.356 N 
HETATM   17  H   UNL     1       3.622  28.073  50.330  1.00  0.00     0.162 HD
HETATM   18  O   UNL     1       5.883  25.972  50.802  1.00  0.00    -0.274 OA
BRANCH  16  19
HETATM   19  C   UNL     1       4.170  26.919  48.650  1.00  0.00     0.089 C 
HETATM   20  C   UNL     1       4.872  28.077  47.926  1.00  0.00     0.063 C 
HETATM   21  C   UNL     1       3.989  29.303  47.632  1.00  0.00     0.121 C 
HETATM   22  C   UNL     1       3.744  30.192  48.856  1.00  0.00     0.046 C 
HETATM   23  C   UNL     1       4.673  30.176  46.560  1.00  0.00     0.046 C 
HETATM   24  N   UNL     1       2.669  28.869  47.031  1.00  0.00    -0.059 N 
HETATM   25  H   UNL     1       2.848  28.638  46.043  1.00  0.00     0.279 HD
HETATM   26  H   UNL     1       2.036  29.680  46.987  1.00  0.00     0.279 HD
HETATM   27  C   UNL     1       1.912  27.695  47.622  1.00  0.00     0.121 C 
HETATM   28  C   UNL     1       0.902  27.256  46.539  1.00  0.00     0.046 C 
HETATM   29  C   UNL     1       1.103  28.150  48.837  1.00  0.00     0.046 C 
HETATM   30  C   UNL     1       2.895  26.548  47.880  1.00  0.00     0.063 C 
ENDBRANCH  16  19
ENDBRANCH  14  15
ENDBRANCH  13  14
ENDBRANCH  10  13
BRANCH  11  31
HETATM   31  C   UNL     1       6.959  28.967  55.770  1.00  0.00     0.134 C 
BRANCH  31  32
HETATM   32  C   UNL     1       5.682  29.322  56.547  1.00  0.00    -0.004 C 
HETATM   33  C   UNL     1       5.967  30.263  57.718  1.00  0.00     0.011 C 
HETATM   34  C   UNL     1       4.668  29.962  55.599  1.00  0.00     0.011 C 
ENDBRANCH  31  32
ENDBRANCH  11  31
BRANCH   1  35
HETATM   35  C   UNL     1       7.435  23.012  54.721  1.00  0.00     0.135 C 
BRANCH  35  36
HETATM   36  C   UNL     1       8.650  22.669  53.856  1.00  0.00     0.020 C 
BRANCH  36  37
HETATM   37  C   UNL     1       8.953  21.172  53.816  1.00  0.00    -0.003 C 
HETATM   38  C   UNL     1       8.034  20.452  52.842  1.00  0.00     0.005 C 
ENDBRANCH  36  37
ENDBRANCH  35  36
ENDBRANCH   1  35
TORSDOF 9
ENDMDL
MODEL 3
REMARK VINA RESULT:      -9.0      1.768      4.257
REMARK  9 active torsions:
REMARK  status: ('A' for Active; 'I' for Inactive)
REMARK    1  A    between atoms: C_2  and  C_3 
REMARK    2  A    between atoms: C_3  and  C_4 
REMARK    3  A    between atoms: C_4  and  N_5 
REMARK    4  A    between atoms: C_14  and  C_15 
REMARK    5  A    between atoms: C_15  and  C_16 
REMARK    6  A    between atoms: C_16  and  C_17 
REMARK       I    between atoms: C_17  and  N_18 
REMARK    7  A    between atoms: N_18  and  C_19 
REMARK    8  A    between atoms: N_32  and  C_33 
REMARK    9  A    between atoms: C_33  and  C_34 
ROOT
HETATM    1  N   UNL     1       7.740  24.047  56.035  1.00  0.00    -0.282 N 
HETATM    2  C   UNL     1       8.406  24.665  57.092  1.00  0.00     0.331 A 
HETATM    3  O   UNL     1       9.103  24.066  57.909  1.00  0.00    -0.246 OA
HETATM    4  N   UNL     1       8.280  26.036  57.200  1.00  0.00    -0.273 N 
HETATM    5  C   UNL     1       7.578  26.882  56.372  1.00  0.00     0.280 A 
HETATM    6  O   UNL     1       7.578  28.097  56.525  1.00  0.00    -0.265 OA
HETATM    7  C   UNL     1       6.909  26.187  55.324  1.00  0.00     0.151 A 
HETATM    8  C   UNL     1       7.012  24.835  55.168  1.00  0.00     0.168 A 
HETATM    9  N   UNL     1       6.344  24.406  54.068  1.00  0.00    -0.215 NA
HETATM   10  C   UNL     1       5.724  25.476  53.595  1.00  0.00     0.109 A 
HETATM   11  N   UNL     1       6.066  26.604  54.326  1.00  0.00    -0.327 N 
HETATM   12  H   UNL     1       8.770  26.462  57.974  1.00  0.00     0.173 HD
ENDROOT
BRANCH  10  13
HETATM   13  C   UNL     1       4.794  25.473  52.417  1.00  0.00     0.088 C 
BRANCH  13  14
HETATM   14  C   UNL     1       5.483  25.894  51.120  1.00  0.00     0.110 C 
BRANCH  14  15
HETATM   15  C   UNL     1       4.986  27.228  50.592  1.00  0.00     0.218 C 
HETATM   16  N   UNL     1       3.744  27.199  49.990  1.00  0.00    -0.356 N 
HETATM   17  H   UNL     1       3.213  26.363  50.254  1.00  0.00     0.162 HD
HETATM   18  O   UNL     1       5.668  28.242  50.680  1.00  0.00    -0.274 OA
BRANCH  16  19
HETATM   19  C   UNL     1       2.937  28.378  49.691  1.00  0.00     0.089 C 
HETATM   20  C   UNL     1       1.658  27.985  48.937  1.00  0.00     0.063 C 
HETATM   21  C   UNL     1       1.834  27.729  47.430  1.00  0.00     0.121 C 
HETATM   22  C   UNL     1       2.464  26.371  47.105  1.00  0.00     0.046 C 
HETATM   23  C   UNL     1       0.452  27.770  46.743  1.00  0.00     0.046 C 
HETATM   24  N   UNL     1       2.641  28.843  46.797  1.00  0.00    -0.059 N 
HETATM   25  H   UNL     1       2.010  29.650  46.686  1.00  0.00     0.279 HD
HETATM   26  H   UNL     1       2.881  28.578  45.831  1.00  0.00     0.279 HD
HETATM   27  C   UNL     1       3.892  29.359  47.482  1.00  0.00     0.121 C 
HETATM   28  C   UNL     1       4.190  30.732  46.838  1.00  0.00     0.046 C 
HETATM   29  C   UNL     1       5.078  28.446  47.168  1.00  0.00     0.046 C 
HETATM   30  C   UNL     1       3.597  29.562  48.971  1.00  0.00     0.063 C 
ENDBRANCH  16  19
ENDBRANCH  14  15
ENDBRANCH  13  14
ENDBRANCH  10  13
BRANCH  11  31
HETATM   31  C   UNL     1       5.659  27.969  54.047  1.00  0.00     0.134 C 
BRANCH  31  32
HETATM   32  C   UNL     1       4.212  28.294  54.444  1.00  0.00    -0.004 C 
HETATM   33  C   UNL     1       4.126  28.912  55.841  1.00  0.00     0.011 C 
HETATM   34  C   UNL     1       3.600  29.245  53.415  1.00  0.00     0.011 C 
ENDBRANCH  31  32
ENDBRANCH  11  31
BRANCH   1  35
HETATM   35  C   UNL     1       7.748  22.591  55.920  1.00  0.00     0.135 C 
BRANCH  35  36
HETATM   36  C   UNL     1       8.783  22.048  54.934  1.00  0.00     0.020 C 
BRANCH  36  37
HETATM   37  C   UNL     1       8.470  20.630  54.458  1.00  0.00    -0.003 C 
HETATM   38  C   UNL     1       8.118  20.613  52.979  1.00  0.00     0.005 C 
ENDBRANCH  36  37
ENDBRANCH  35  36
ENDBRANCH   1  35
TORSDOF 9
ENDMDL
MODEL 4
REMARK VINA RESULT:      -8.9      1.886      4.511
REMARK  9 active torsions:
REMARK  status: ('A' for Active; 'I' for Inactive)
REMARK    1  A    between atoms: C_2  and  C_3 
REMARK    2  A    between atoms: C_3  and  C_4 
REMARK    3  A    between atoms: C_4  and  N_5 
REMARK    4  A    between atoms: C_14  and  C_15 
REMARK    5  A    between atoms: C_15  and  C_16 
REMARK    6  A    between atoms: C_16  and  C_17 
REMARK       I    between atoms: C_17  and  N_18 
REMARK    7  A    between atoms: N_18  and  C_19 
REMARK    8  A    between atoms: N_32  and  C_33 
REMARK    9  A    between atoms: C_33  and  C_34 
ROOT
HETATM    1  N   UNL     1       7.454  24.214  55.631  1.00  0.00    -0.282 N 
HETATM    2  C   UNL     1       7.988  24.031  56.906  1.00  0.00     0.331 A 
HETATM    3  O   UNL     1       8.365  22.945  57.343  1.00  0.00    -0.246 OA
HETATM    4  N   UNL     1       8.112  25.151  57.703  1.00  0.00    -0.273 N 
HETATM    5  C   UNL     1       7.782  26.448  57.385  1.00  0.00     0.280 A 
HETATM    6  O   UNL     1       7.987  27.383  58.149  1.00  0.00    -0.265 OA
HETATM    7  C   UNL     1       7.228  26.565  56.078  1.00  0.00     0.151 A 
HETATM    8  C   UNL     1       7.095  25.490  55.248  1.00  0.00     0.168 A 
HETATM    9  N   UNL     1       6.605  25.852  54.035  1.00  0.00    -0.215 NA
HETATM   10  C   UNL     1       6.321  27.140  54.142  1.00  0.00     0.109 A 
HETATM   11  N   UNL     1       6.714  27.627  55.380  1.00  0.00    -0.327 N 
HETATM   12  H   UNL     1       8.501  24.995  58.622  1.00  0.00     0.173 HD
ENDROOT
BRANCH  10  13
HETATM   13  C   UNL     1       5.679  27.966  53.065  1.00  0.00     0.088 C 
BRANCH  13  14
HETATM   14  C   UNL     1       4.158  27.819  53.037  1.00  0.00     0.110 C 
BRANCH  14  15
HETATM   15  C   UNL     1       3.485  28.822  52.118  1.00  0.00     0.218 C 
HETATM   16  N   UNL     1       3.243  28.377  50.835  1.00  0.00    -0.356 N 
HETATM   17  H   UNL     1       3.270  27.353  50.775  1.00  0.00     0.162 HD
HETATM   18  O   UNL     1       3.210  29.953  52.501  1.00  0.00    -0.274 OA
BRANCH  16  19
HETATM   19  C   UNL     1       2.350  29.028  49.881  1.00  0.00     0.089 C 
HETATM   20  C   UNL     1       1.591  27.987  49.045  1.00  0.00     0.063 C 
HETATM   21  C   UNL     1       2.383  27.376  47.876  1.00  0.00     0.121 C 
HETATM   22  C   UNL     1       3.398  26.314  48.311  1.00  0.00     0.046 C 
HETATM   23  C   UNL     1       1.402  26.700  46.897  1.00  0.00     0.046 C 
HETATM   24  N   UNL     1       3.074  28.464  47.082  1.00  0.00    -0.059 N 
HETATM   25  H   UNL     1       2.358  28.910  46.492  1.00  0.00     0.279 HD
HETATM   26  H   UNL     1       3.720  28.030  46.407  1.00  0.00     0.279 HD
HETATM   27  C   UNL     1       3.805  29.583  47.800  1.00  0.00     0.121 C 
HETATM   28  C   UNL     1       3.983  30.708  46.756  1.00  0.00     0.046 C 
HETATM   29  C   UNL     1       5.205  29.119  48.208  1.00  0.00     0.046 C 
HETATM   30  C   UNL     1       2.926  30.098  48.943  1.00  0.00     0.063 C 
ENDBRANCH  16  19
ENDBRANCH  14  15
ENDBRANCH  13  14
ENDBRANCH  10  13
BRANCH  11  31
HETATM   31  C   UNL     1       6.651  29.009  55.823  1.00  0.00     0.134 C 
BRANCH  31  32
HETATM   32  C   UNL     1       5.526  29.303  56.826  1.00  0.00    -0.004 C 
HETATM   33  C   UNL     1       5.915  30.400  57.818  1.00  0.00     0.011 C 
HETATM   34  C   UNL     1       4.260  29.708  56.071  1.00  0.00     0.011 C 
ENDBRANCH  31  32
ENDBRANCH  11  31
BRANCH   1  35
HETATM   35  C   UNL     1       7.200  23.059  54.775  1.00  0.00     0.135 C 
BRANCH  35  36
HETATM   36  C   UNL     1       8.298  22.795  53.742  1.00  0.00     0.020 C 
BRANCH  36  37
HETATM   37  C   UNL     1       8.943  21.418  53.894  1.00  0.00    -0.003 C 
HETATM   38  C   UNL     1       8.360  20.426  52.899  1.00  0.00     0.005 C 
ENDBRANCH  36  37
ENDBRANCH  35  36
ENDBRANCH   1  35
TORSDOF 9
ENDMDL
MODEL 5
REMARK VINA RESULT:      -8.7      1.451      1.886
REMARK  9 active torsions:
REMARK  status: ('A' for Active; 'I' for Inactive)
REMARK    1  A    between atoms: C_2  and  C_3 
REMARK    2  A    between atoms: C_3  and  C_4 
REMARK    3  A    between atoms: C_4  and  N_5 
REMARK    4  A    between atoms: C_14  and  C_15 
REMARK    5  A    between atoms: C_15  and  C_16 
REMARK    6  A    between atoms: C_16  and  C_17 
REMARK       I    between atoms: C_17  and  N_18 
REMARK    7  A    between atoms: N_18  and  C_19 
REMARK    8  A    between atoms: N_32  and  C_33 
REMARK    9  A    between atoms: C_33  and  C_34 
ROOT
HETATM    1  N   UNL     1       6.950  27.981  56.369  1.00  0.00    -0.282 N 
HETATM    2  C   UNL     1       7.939  27.721  57.316  1.00  0.00     0.331 A 
HETATM    3  O   UNL     1       8.375  28.560  58.103  1.00  0.00    -0.246 OA
HETATM    4  N   UNL     1       8.433  26.433  57.374  1.00  0.00    -0.273 N 
HETATM    5  C   UNL     1       8.053  25.354  56.609  1.00  0.00     0.280 A 
HETATM    6  O   UNL     1       8.515  24.233  56.781  1.00  0.00    -0.265 OA
HETATM    7  C   UNL     1       7.053  25.690  55.652  1.00  0.00     0.151 A 
HETATM    8  C   UNL     1       6.526  26.945  55.563  1.00  0.00     0.168 A 
HETATM    9  N   UNL     1       5.547  27.012  54.625  1.00  0.00    -0.215 NA
HETATM   10  C   UNL     1       5.538  25.823  54.043  1.00  0.00     0.109 A 
HETATM   11  N   UNL     1       6.436  24.967  54.664  1.00  0.00    -0.327 N 
HETATM   12  H   UNL     1       9.148  26.267  58.067  1.00  0.00     0.173 HD
ENDROOT
BRANCH  10  13
HETATM   13  C   UNL     1       4.663  25.447  52.883  1.00  0.00     0.088 C 
BRANCH  13  14
HETATM   14  C   UNL     1       5.286  25.806  51.534  1.00  0.00     0.110 C 
BRANCH  14  15
HETATM   15  C   UNL     1       4.895  27.191  51.052  1.00  0.00     0.218 C 
HETATM   16  N   UNL     1       3.833  27.232  50.172  1.00  0.00    -0.356 N 
HETATM   17  H   UNL     1       3.275  26.373  50.209  1.00  0.00     0.162 HD
HETATM   18  O   UNL     1       5.512  28.188  51.410  1.00  0.00    -0.274 OA
BRANCH  16  19
HETATM   19  C   UNL     1       3.090  28.438  49.819  1.00  0.00     0.089 C 
HETATM   20  C   UNL     1       1.784  28.082  49.094  1.00  0.00     0.063 C 
HETATM   21  C   UNL     1       1.932  27.742  47.600  1.00  0.00     0.121 C 
HETATM   22  C   UNL     1       2.481  26.336  47.341  1.00  0.00     0.046 C 
HETATM   23  C   UNL     1       0.549  27.828  46.921  1.00  0.00     0.046 C 
HETATM   24  N   UNL     1       2.795  28.775  46.907  1.00  0.00    -0.059 N 
HETATM   25  H   UNL     1       2.210  29.610  46.761  1.00  0.00     0.279 HD
HETATM   26  H   UNL     1       3.011  28.450  45.954  1.00  0.00     0.279 HD
HETATM   27  C   UNL     1       4.080  29.253  47.558  1.00  0.00     0.121 C 
HETATM   28  C   UNL     1       4.449  30.573  46.843  1.00  0.00     0.046 C 
HETATM   29  C   UNL     1       5.209  28.259  47.282  1.00  0.00     0.046 C 
HETATM   30  C   UNL     1       3.810  29.546  49.037  1.00  0.00     0.063 C 
ENDBRANCH  16  19
ENDBRANCH  14  15
ENDBRANCH  13  14
ENDBRANCH  10  13
BRANCH  11  31
HETATM   31  C   UNL     1       6.633  23.560  54.364  1.00  0.00     0.134 C 
BRANCH  31  32
HETATM   32  C   UNL     1       7.432  23.292  53.079  1.00  0.00    -0.004 C 
HETATM   33  C   UNL     1       8.313  24.480  52.693  1.00  0.00     0.011 C 
HETATM   34  C   UNL     1       8.294  22.042  53.265  1.00  0.00     0.011 C 
ENDBRANCH  31  32
ENDBRANCH  11  31
BRANCH   1  35
HETATM   35  C   UNL     1       6.458  29.343  56.185  1.00  0.00     0.135 C 
BRANCH  35  36
HETATM   36  C   UNL     1       5.308  29.723  57.120  1.00  0.00     0.020 C 
BRANCH  36  37
HETATM   37  C   UNL     1       5.307  31.203  57.499  1.00  0.00    -0.003 C 
HETATM   38  C   UNL     1       6.407  31.513  58.503  1.00  0.00     0.005 C 
ENDBRANCH  36  37
ENDBRANCH  35  36
ENDBRANCH   1  35
TORSDOF 9
ENDMDL
MODEL 6
REMARK VINA RESULT:      -8.5      2.222      5.005
REMARK  9 active torsions:
REMARK  status: ('A' for Active; 'I' for Inactive)
REMARK    1  A    between atoms: C_2  and  C_3 
REMARK    2  A    between atoms: C_3  and  C_4 
REMARK    3  A    between atoms: C_4  and  N_5 
REMARK    4  A    between atoms: C_14  and  C_15 
REMARK    5  A    between atoms: C_15  and  C_16 
REMARK    6  A    between atoms: C_16  and  C_17 
REMARK       I    between atoms: C_17  and  N_18 
REMARK    7  A    between atoms: N_18  and  C_19 
REMARK    8  A    between atoms: N_32  and  C_33 
REMARK    9  A    between atoms: C_33  and  C_34 
ROOT
HETATM    1  N   UNL     1       7.551  23.845  55.993  1.00  0.00    -0.282 N 
HETATM    2  C   UNL     1       8.155  23.954  57.245  1.00  0.00     0.331 A 
HETATM    3  O   UNL     1       8.689  23.015  57.834  1.00  0.00    -0.246 OA
HETATM    4  N   UNL     1       8.161  25.202  57.835  1.00  0.00    -0.273 N 
HETATM    5  C   UNL     1       7.650  26.373  57.325  1.00  0.00     0.280 A 
HETATM    6  O   UNL     1       7.759  27.445  57.908  1.00  0.00    -0.265 OA
HETATM    7  C   UNL     1       7.034  26.191  56.053  1.00  0.00     0.151 A 
HETATM    8  C   UNL     1       7.012  24.980  55.425  1.00  0.00     0.168 A 
HETATM    9  N   UNL     1       6.431  25.063  54.201  1.00  0.00    -0.215 NA
HETATM   10  C   UNL     1       5.984  26.305  54.108  1.00  0.00     0.109 A 
HETATM   11  N   UNL     1       6.357  27.044  55.220  1.00  0.00    -0.327 N 
HETATM   12  H   UNL     1       8.603  25.257  58.741  1.00  0.00     0.173 HD
ENDROOT
BRANCH  10  13
HETATM   13  C   UNL     1       5.197  26.845  52.950  1.00  0.00     0.088 C 
BRANCH  13  14
HETATM   14  C   UNL     1       5.189  25.899  51.749  1.00  0.00     0.110 C 
BRANCH  14  15
HETATM   15  C   UNL     1       4.933  26.613  50.435  1.00  0.00     0.218 C 
HETATM   16  N   UNL     1       5.251  27.956  50.422  1.00  0.00    -0.356 N 
HETATM   17  H   UNL     1       5.887  28.204  51.187  1.00  0.00     0.162 HD
HETATM   18  O   UNL     1       4.452  26.026  49.473  1.00  0.00    -0.274 OA
BRANCH  16  19
HETATM   19  C   UNL     1       5.385  28.769  49.217  1.00  0.00     0.089 C 
HETATM   20  C   UNL     1       5.890  30.178  49.563  1.00  0.00     0.063 C 
HETATM   21  C   UNL     1       4.821  31.149  50.093  1.00  0.00     0.121 C 
HETATM   22  C   UNL     1       4.441  30.907  51.557  1.00  0.00     0.046 C 
HETATM   23  C   UNL     1       5.353  32.594  49.990  1.00  0.00     0.046 C 
HETATM   24  N   UNL     1       3.586  31.102  49.219  1.00  0.00    -0.059 N 
HETATM   25  H   UNL     1       3.795  31.642  48.367  1.00  0.00     0.279 HD
HETATM   26  H   UNL     1       2.830  31.634  49.673  1.00  0.00     0.279 HD
HETATM   27  C   UNL     1       3.029  29.767  48.761  1.00  0.00     0.121 C 
HETATM   28  C   UNL     1       2.097  30.085  47.569  1.00  0.00     0.046 C 
HETATM   29  C   UNL     1       2.161  29.155  49.862  1.00  0.00     0.046 C 
HETATM   30  C   UNL     1       4.183  28.888  48.270  1.00  0.00     0.063 C 
ENDBRANCH  16  19
ENDBRANCH  14  15
ENDBRANCH  13  14
ENDBRANCH  10  13
BRANCH  11  31
HETATM   31  C   UNL     1       6.129  28.463  55.429  1.00  0.00     0.134 C 
BRANCH  31  32
HETATM   32  C   UNL     1       4.781  28.800  56.084  1.00  0.00    -0.004 C 
HETATM   33  C   UNL     1       4.958  29.538  57.412  1.00  0.00     0.011 C 
HETATM   34  C   UNL     1       3.944  29.647  55.125  1.00  0.00     0.011 C 
ENDBRANCH  31  32
ENDBRANCH  11  31
BRANCH   1  35
HETATM   35  C   UNL     1       7.420  22.537  55.359  1.00  0.00     0.135 C 
BRANCH  35  36
HETATM   36  C   UNL     1       8.573  22.179  54.420  1.00  0.00     0.020 C 
BRANCH  36  37
HETATM   37  C   UNL     1       8.109  21.826  53.008  1.00  0.00    -0.003 C 
HETATM   38  C   UNL     1       8.311  20.347  52.718  1.00  0.00     0.005 C 
ENDBRANCH  36  37
ENDBRANCH  35  36
ENDBRANCH   1  35
TORSDOF 9
ENDMDL
MODEL 7
REMARK VINA RESULT:      -8.4      1.883      2.966
REMARK  9 active torsions:
REMARK  status: ('A' for Active; 'I' for Inactive)
REMARK    1  A    between atoms: C_2  and  C_3 
REMARK    2  A    between atoms: C_3  and  C_4 
REMARK    3  A    between atoms: C_4  and  N_5 
REMARK    4  A    between atoms: C_14  and  C_15 
REMARK    5  A    between atoms: C_15  and  C_16 
REMARK    6  A    between atoms: C_16  and  C_17 
REMARK       I    between atoms: C_17  and  N_18 
REMARK    7  A    between atoms: N_18  and  C_19 
REMARK    8  A    between atoms: N_32  and  C_33 
REMARK    9  A    between atoms: C_33  and  C_34 
ROOT
HETATM    1  N   UNL     1       6.919  27.476  56.328  1.00  0.00    -0.282 N 
HETATM    2  C   UNL     1       7.731  27.439  57.460  1.00  0.00     0.331 A 
HETATM    3  O   UNL     1       7.960  28.414  58.173  1.00  0.00    -0.246 OA
HETATM    4  N   UNL     1       8.286  26.220  57.797  1.00  0.00    -0.273 N 
HETATM    5  C   UNL     1       8.123  25.017  57.151  1.00  0.00     0.280 A 
HETATM    6  O   UNL     1       8.616  23.976  57.568  1.00  0.00    -0.265 OA
HETATM    7  C   UNL     1       7.297  25.126  55.995  1.00  0.00     0.151 A 
HETATM    8  C   UNL     1       6.717  26.305  55.628  1.00  0.00     0.168 A 
HETATM    9  N   UNL     1       5.925  26.154  54.535  1.00  0.00    -0.215 NA
HETATM   10  C   UNL     1       6.099  24.901  54.148  1.00  0.00     0.109 A 
HETATM   11  N   UNL     1       6.919  24.222  55.037  1.00  0.00    -0.327 N 
HETATM   12  H   UNL     1       8.871  26.217  58.621  1.00  0.00     0.173 HD
ENDROOT
BRANCH  10  13
HETATM   13  C   UNL     1       5.478  24.291  52.924  1.00  0.00     0.088 C 
BRANCH  13  14
HETATM   14  C   UNL     1       4.550  25.258  52.190  1.00  0.00     0.110 C 
BRANCH  14  15
HETATM   15  C   UNL     1       5.259  26.052  51.108  1.00  0.00     0.218 C 
HETATM   16  N   UNL     1       4.434  26.782  50.276  1.00  0.00    -0.356 N 
HETATM   17  H   UNL     1       3.507  26.926  50.689  1.00  0.00     0.162 HD
HETATM   18  O   UNL     1       6.477  26.011  50.982  1.00  0.00    -0.274 OA
BRANCH  16  19
HETATM   19  C   UNL     1       4.884  27.843  49.380  1.00  0.00     0.089 C 
HETATM   20  C   UNL     1       5.110  29.151  50.153  1.00  0.00     0.063 C 
HETATM   21  C   UNL     1       3.839  29.960  50.464  1.00  0.00     0.121 C 
HETATM   22  C   UNL     1       3.018  29.394  51.627  1.00  0.00     0.046 C 
HETATM   23  C   UNL     1       4.235  31.403  50.842  1.00  0.00     0.046 C 
HETATM   24  N   UNL     1       2.975  30.081  49.227  1.00  0.00    -0.059 N 
HETATM   25  H   UNL     1       3.404  30.800  48.626  1.00  0.00     0.279 HD
HETATM   26  H   UNL     1       2.065  30.486  49.489  1.00  0.00     0.279 HD
HETATM   27  C   UNL     1       2.731  28.869  48.347  1.00  0.00     0.121 C 
HETATM   28  C   UNL     1       2.224  29.423  46.997  1.00  0.00     0.046 C 
HETATM   29  C   UNL     1       1.608  28.012  48.934  1.00  0.00     0.046 C 
HETATM   30  C   UNL     1       4.060  28.144  48.120  1.00  0.00     0.063 C 
ENDBRANCH  16  19
ENDBRANCH  14  15
ENDBRANCH  13  14
ENDBRANCH  10  13
BRANCH  11  31
HETATM   31  C   UNL     1       7.257  22.810  54.993  1.00  0.00     0.134 C 
BRANCH  31  32
HETATM   32  C   UNL     1       8.459  22.474  54.097  1.00  0.00    -0.004 C 
HETATM   33  C   UNL     1       9.641  21.933  54.904  1.00  0.00     0.011 C 
HETATM   34  C   UNL     1       8.039  21.452  53.041  1.00  0.00     0.011 C 
ENDBRANCH  31  32
ENDBRANCH  11  31
BRANCH   1  35
HETATM   35  C   UNL     1       6.384  28.750  55.857  1.00  0.00     0.135 C 
BRANCH  35  36
HETATM   36  C   UNL     1       4.953  29.035  56.318  1.00  0.00     0.020 C 
BRANCH  36  37
HETATM   37  C   UNL     1       4.097  29.697  55.239  1.00  0.00    -0.003 C 
HETATM   38  C   UNL     1       4.407  31.181  55.126  1.00  0.00     0.005 C 
ENDBRANCH  36  37
ENDBRANCH  35  36
ENDBRANCH   1  35
TORSDOF 9
ENDMDL
MODEL 8
REMARK VINA RESULT:      -8.4      4.738      8.764
REMARK  9 active torsions:
REMARK  status: ('A' for Active; 'I' for Inactive)
REMARK    1  A    between atoms: C_2  and  C_3 
REMARK    2  A    between atoms: C_3  and  C_4 
REMARK    3  A    between atoms: C_4  and  N_5 
REMARK    4  A    between atoms: C_14  and  C_15 
REMARK    5  A    between atoms: C_15  and  C_16 
REMARK    6  A    between atoms: C_16  and  C_17 
REMARK       I    between atoms: C_17  and  N_18 
REMARK    7  A    between atoms: N_18  and  C_19 
REMARK    8  A    between atoms: N_32  and  C_33 
REMARK    9  A    between atoms: C_33  and  C_34 
ROOT
HETATM    1  N   UNL     1       4.896  33.361  57.561  1.00  0.00    -0.282 N 
HETATM    2  C   UNL     1       4.111  34.305  58.220  1.00  0.00     0.331 A 
HETATM    3  O   UNL     1       3.330  35.066  57.651  1.00  0.00    -0.246 OA
HETATM    4  N   UNL     1       4.214  34.362  59.596  1.00  0.00    -0.273 N 
HETATM    5  C   UNL     1       4.999  33.578  60.410  1.00  0.00     0.280 A 
HETATM    6  O   UNL     1       4.973  33.671  61.631  1.00  0.00    -0.265 OA
HETATM    7  C   UNL     1       5.787  32.646  59.676  1.00  0.00     0.151 A 
HETATM    8  C   UNL     1       5.712  32.545  58.317  1.00  0.00     0.168 A 
HETATM    9  N   UNL     1       6.503  31.549  57.845  1.00  0.00    -0.215 NA
HETATM   10  C   UNL     1       7.165  31.098  58.899  1.00  0.00     0.109 A 
HETATM   11  N   UNL     1       6.735  31.731  60.055  1.00  0.00    -0.327 N 
HETATM   12  H   UNL     1       3.637  35.053  60.052  1.00  0.00     0.173 HD
ENDROOT
BRANCH  10  13
HETATM   13  C   UNL     1       8.223  30.034  58.853  1.00  0.00     0.088 C 
BRANCH  13  14
HETATM   14  C   UNL     1       9.361  30.375  57.891  1.00  0.00     0.110 C 
BRANCH  14  15
HETATM   15  C   UNL     1       9.302  29.579  56.600  1.00  0.00     0.218 C 
HETATM   16  N   UNL     1       8.162  28.821  56.426  1.00  0.00    -0.356 N 
HETATM   17  H   UNL     1       7.398  29.136  57.034  1.00  0.00     0.162 HD
HETATM   18  O   UNL     1      10.226  29.601  55.795  1.00  0.00    -0.274 OA
BRANCH  16  19
HETATM   19  C   UNL     1       7.741  28.228  55.160  1.00  0.00     0.089 C 
HETATM   20  C   UNL     1       6.368  28.768  54.734  1.00  0.00     0.063 C 
HETATM   21  C   UNL     1       5.160  28.120  55.433  1.00  0.00     0.121 C 
HETATM   22  C   UNL     1       4.934  28.622  56.862  1.00  0.00     0.046 C 
HETATM   23  C   UNL     1       3.880  28.434  54.629  1.00  0.00     0.046 C 
HETATM   24  N   UNL     1       5.292  26.612  55.424  1.00  0.00    -0.059 N 
HETATM   25  H   UNL     1       5.042  26.291  54.478  1.00  0.00     0.279 HD
HETATM   26  H   UNL     1       4.563  26.206  56.027  1.00  0.00     0.279 HD
HETATM   27  C   UNL     1       6.620  25.963  55.766  1.00  0.00     0.121 C 
HETATM   28  C   UNL     1       6.531  24.515  55.234  1.00  0.00     0.046 C 
HETATM   29  C   UNL     1       6.786  25.877  57.285  1.00  0.00     0.046 C 
HETATM   30  C   UNL     1       7.740  26.699  55.025  1.00  0.00     0.063 C 
ENDBRANCH  16  19
ENDBRANCH  14  15
ENDBRANCH  13  14
ENDBRANCH  10  13
BRANCH  11  31
HETATM   31  C   UNL     1       7.161  31.434  61.411  1.00  0.00     0.134 C 
BRANCH  31  32
HETATM   32  C   UNL     1       8.226  32.392  61.966  1.00  0.00    -0.004 C 
HETATM   33  C   UNL     1       8.052  32.636  63.465  1.00  0.00     0.011 C 
HETATM   34  C   UNL     1       9.619  31.823  61.689  1.00  0.00     0.011 C 
ENDBRANCH  31  32
ENDBRANCH  11  31
BRANCH   1  35
HETATM   35  C   UNL     1       4.912  33.316  56.102  1.00  0.00     0.135 C 
BRANCH  35  36
HETATM   36  C   UNL     1       4.344  32.025  55.510  1.00  0.00     0.020 C 
BRANCH  36  37
HETATM   37  C   UNL     1       2.878  31.793  55.873  1.00  0.00    -0.003 C 
HETATM   38  C   UNL     1       1.966  32.728  55.094  1.00  0.00     0.005 C 
ENDBRANCH  36  37
ENDBRANCH  35  36
ENDBRANCH   1  35
TORSDOF 9
ENDMDL
MODEL 9
REMARK VINA RESULT:      -7.9      4.564      8.338
REMARK  9 active torsions:
REMARK  status: ('A' for Active; 'I' for Inactive)
REMARK    1  A    between atoms: C_2  and  C_3 
REMARK    2  A    between atoms: C_3  and  C_4 
REMARK    3  A    between atoms: C_4  and  N_5 
REMARK    4  A    between atoms: C_14  and  C_15 
REMARK    5  A    between atoms: C_15  and  C_16 
REMARK    6  A    between atoms: C_16  and  C_17 
REMARK       I    between atoms: C_17  and  N_18 
REMARK    7  A    between atoms: N_18  and  C_19 
REMARK    8  A    between atoms: N_32  and  C_33 
REMARK    9  A    between atoms: C_33  and  C_34 
ROOT
HETATM    1  N   UNL     1       8.401  31.308  59.927  1.00  0.00    -0.282 N 
HETATM    2  C   UNL     1       8.825  31.667  61.205  1.00  0.00     0.331 A 
HETATM    3  O   UNL     1       9.935  31.397  61.661  1.00  0.00    -0.246 OA
HETATM    4  N   UNL     1       7.939  32.385  61.984  1.00  0.00    -0.273 N 
HETATM    5  C   UNL     1       6.676  32.809  61.643  1.00  0.00     0.280 A 
HETATM    6  O   UNL     1       5.990  33.495  62.391  1.00  0.00    -0.265 OA
HETATM    7  C   UNL     1       6.297  32.397  60.333  1.00  0.00     0.151 A 
HETATM    8  C   UNL     1       7.141  31.696  59.521  1.00  0.00     0.168 A 
HETATM    9  N   UNL     1       6.589  31.471  58.301  1.00  0.00    -0.215 NA
HETATM   10  C   UNL     1       5.352  31.933  58.386  1.00  0.00     0.109 A 
HETATM   11  N   UNL     1       5.137  32.536  59.616  1.00  0.00    -0.327 N 
HETATM   12  H   UNL     1       8.268  32.634  62.906  1.00  0.00     0.173 HD
ENDROOT
BRANCH  10  13
HETATM   13  C   UNL     1       4.327  31.833  57.294  1.00  0.00     0.088 C 
BRANCH  13  14
HETATM   14  C   UNL     1       4.951  31.816  55.899  1.00  0.00     0.110 C 
BRANCH  14  15
HETATM   15  C   UNL     1       4.573  30.584  55.097  1.00  0.00     0.218 C 
HETATM   16  N   UNL     1       5.240  29.427  55.446  1.00  0.00    -0.356 N 
HETATM   17  H   UNL     1       5.659  29.495  56.379  1.00  0.00     0.162 HD
HETATM   18  O   UNL     1       3.752  30.641  54.190  1.00  0.00    -0.274 OA
BRANCH  16  19
HETATM   19  C   UNL     1       4.839  28.082  55.044  1.00  0.00     0.089 C 
HETATM   20  C   UNL     1       4.957  27.103  56.221  1.00  0.00     0.063 C 
HETATM   21  C   UNL     1       6.378  26.587  56.510  1.00  0.00     0.121 C 
HETATM   22  C   UNL     1       7.263  27.601  57.241  1.00  0.00     0.046 C 
HETATM   23  C   UNL     1       6.290  25.329  57.399  1.00  0.00     0.046 C 
HETATM   24  N   UNL     1       7.047  26.140  55.228  1.00  0.00    -0.059 N 
HETATM   25  H   UNL     1       6.655  25.218  54.987  1.00  0.00     0.279 HD
HETATM   26  H   UNL     1       8.041  25.948  55.415  1.00  0.00     0.279 HD
HETATM   27  C   UNL     1       6.946  26.995  53.979  1.00  0.00     0.121 C 
HETATM   28  C   UNL     1       7.322  26.067  52.801  1.00  0.00     0.046 C 
HETATM   29  C   UNL     1       7.988  28.114  54.023  1.00  0.00     0.046 C 
HETATM   30  C   UNL     1       5.496  27.455  53.806  1.00  0.00     0.063 C 
ENDBRANCH  16  19
ENDBRANCH  14  15
ENDBRANCH  13  14
ENDBRANCH  10  13
BRANCH  11  31
HETATM   31  C   UNL     1       3.936  33.237  60.035  1.00  0.00     0.134 C 
BRANCH  31  32
HETATM   32  C   UNL     1       3.835  34.682  59.526  1.00  0.00    -0.004 C 
HETATM   33  C   UNL     1       2.504  34.950  58.821  1.00  0.00     0.011 C 
HETATM   34  C   UNL     1       4.007  35.650  60.698  1.00  0.00     0.011 C 
ENDBRANCH  31  32
ENDBRANCH  11  31
BRANCH   1  35
HETATM   35  C   UNL     1       9.246  30.462  59.089  1.00  0.00     0.135 C 
BRANCH  35  36
HETATM   36  C   UNL     1      10.207  31.238  58.187  1.00  0.00     0.020 C 
BRANCH  36  37
HETATM   37  C   UNL     1      11.154  30.332  57.400  1.00  0.00    -0.003 C 
HETATM   38  C   UNL     1      10.380  29.324  56.565  1.00  0.00     0.005 C 
ENDBRANCH  36  37
ENDBRANCH  35  36
ENDBRANCH   1  35
TORSDOF 9
ENDMDL
MODEL 10
REMARK VINA RESULT:      -7.8      5.092      8.420
REMARK  9 active torsions:
REMARK  status: ('A' for Active; 'I' for Inactive)
REMARK    1  A    between atoms: C_2  and  C_3 
REMARK    2  A    between atoms: C_3  and  C_4 
REMARK    3  A    between atoms: C_4  and  N_5 
REMARK    4  A    between atoms: C_14  and  C_15 
REMARK    5  A    between atoms: C_15  and  C_16 
REMARK    6  A    between atoms: C_16  and  C_17 
REMARK       I    between atoms: C_17  and  N_18 
REMARK    7  A    between atoms: N_18  and  C_19 
REMARK    8  A    between atoms: N_32  and  C_33 
REMARK    9  A    between atoms: C_33  and  C_34 
ROOT
HETATM    1  N   UNL     1       5.654  33.057  61.682  1.00  0.00    -0.282 N 
HETATM    2  C   UNL     1       4.964  34.211  62.047  1.00  0.00     0.331 A 
HETATM    3  O   UNL     1       4.903  34.640  63.198  1.00  0.00    -0.246 OA
HETATM    4  N   UNL     1       4.332  34.912  61.039  1.00  0.00    -0.273 N 
HETATM    5  C   UNL     1       4.312  34.615  59.696  1.00  0.00     0.280 A 
HETATM    6  O   UNL     1       3.767  35.340  58.873  1.00  0.00    -0.265 OA
HETATM    7  C   UNL     1       5.021  33.418  59.392  1.00  0.00     0.151 A 
HETATM    8  C   UNL     1       5.671  32.696  60.351  1.00  0.00     0.168 A 
HETATM    9  N   UNL     1       6.328  31.635  59.819  1.00  0.00    -0.215 NA
HETATM   10  C   UNL     1       5.996  31.623  58.537  1.00  0.00     0.109 A 
HETATM   11  N   UNL     1       5.210  32.723  58.226  1.00  0.00    -0.327 N 
HETATM   12  H   UNL     1       3.837  35.744  61.327  1.00  0.00     0.173 HD
ENDROOT
BRANCH  10  13
HETATM   13  C   UNL     1       6.426  30.576  57.553  1.00  0.00     0.088 C 
BRANCH  13  14
HETATM   14  C   UNL     1       7.461  29.612  58.131  1.00  0.00     0.110 C 
BRANCH  14  15
HETATM   15  C   UNL     1       7.830  28.495  57.172  1.00  0.00     0.218 C 
HETATM   16  N   UNL     1       7.176  28.521  55.957  1.00  0.00    -0.356 N 
HETATM   17  H   UNL     1       6.774  29.443  55.760  1.00  0.00     0.162 HD
HETATM   18  O   UNL     1       8.634  27.625  57.486  1.00  0.00    -0.274 OA
BRANCH  16  19
HETATM   19  C   UNL     1       7.576  27.756  54.779  1.00  0.00     0.089 C 
HETATM   20  C   UNL     1       6.726  28.146  53.561  1.00  0.00     0.063 C 
HETATM   21  C   UNL     1       5.330  27.502  53.498  1.00  0.00     0.121 C 
HETATM   22  C   UNL     1       4.311  28.151  54.440  1.00  0.00     0.046 C 
HETATM   23  C   UNL     1       4.777  27.631  52.063  1.00  0.00     0.046 C 
HETATM   24  N   UNL     1       5.423  26.017  53.773  1.00  0.00    -0.059 N 
HETATM   25  H   UNL     1       5.775  25.570  52.914  1.00  0.00     0.279 HD
HETATM   26  H   UNL     1       4.472  25.634  53.882  1.00  0.00     0.279 HD
HETATM   27  C   UNL     1       6.283  25.505  54.913  1.00  0.00     0.121 C 
HETATM   28  C   UNL     1       6.507  24.003  54.631  1.00  0.00     0.046 C 
HETATM   29  C   UNL     1       5.520  25.609  56.234  1.00  0.00     0.046 C 
HETATM   30  C   UNL     1       7.635  26.226  54.878  1.00  0.00     0.063 C 
ENDBRANCH  16  19
ENDBRANCH  14  15
ENDBRANCH  13  14
ENDBRANCH  10  13
BRANCH  11  31
HETATM   31  C   UNL     1       4.735  33.097  56.905  1.00  0.00     0.134 C 
BRANCH  31  32
HETATM   32  C   UNL     1       3.264  32.745  56.637  1.00  0.00    -0.004 C 
HETATM   33  C   UNL     1       2.527  33.874  55.916  1.00  0.00     0.011 C 
HETATM   34  C   UNL     1       3.189  31.462  55.808  1.00  0.00     0.011 C 
ENDBRANCH  31  32
ENDBRANCH  11  31
BRANCH   1  35
HETATM   35  C   UNL     1       6.258  32.213  62.710  1.00  0.00     0.135 C 
BRANCH  35  36
HETATM   36  C   UNL     1       7.748  32.478  62.938  1.00  0.00     0.020 C 
BRANCH  36  37
HETATM   37  C   UNL     1       8.644  31.364  62.398  1.00  0.00    -0.003 C 
HETATM   38  C   UNL     1       9.606  31.895  61.348  1.00  0.00     0.005 C 
ENDBRANCH  36  37
ENDBRANCH  35  36
ENDBRANCH   1  35
TORSDOF 9
ENDMDL
