MODEL 1
REMARK VINA RESULT:      -9.3      0.000      0.000
REMARK  6 active torsions:
REMARK  status: ('A' for Active; 'I' for Inactive)
REMARK    1  A    between atoms: C_2  and  C_3 
REMARK    2  A    between atoms: C_3  and  C_4 
REMARK    3  A    between atoms: C_3  and  C_10 
REMARK    4  A    between atoms: C_10  and  C_11 
REMARK       I    between atoms: C_11  and  N_12 
REMARK    5  A    between atoms: N_12  and  C_13 
REMARK    6  A    between atoms: C_15  and  C_16 
ROOT
HETATM    1  C   UNL     1       7.787  26.050  56.885  1.00  0.00     0.223 C 
HETATM    2  N   UNL     1       7.783  27.379  56.517  1.00  0.00    -0.327 N 
HETATM    3  O   UNL     1       8.413  25.578  57.832  1.00  0.00    -0.273 OA
HETATM    4  H   UNL     1       7.296  27.620  55.665  1.00  0.00     0.169 HD
ENDROOT
BRANCH   2   5
HETATM    5  C   UNL     1       8.473  28.452  57.121  1.00  0.00     0.035 A 
HETATM    6  C   UNL     1       8.075  29.072  58.309  1.00  0.00     0.042 A 
HETATM    7  C   UNL     1       8.808  30.145  58.846  1.00  0.00    -0.021 A 
HETATM    8  C   UNL     1       9.958  30.582  58.176  1.00  0.00     0.012 A 
HETATM    9  C   UNL     1      10.361  29.971  56.989  1.00  0.00     0.003 A 
HETATM   10  C   UNL     1       9.617  28.916  56.462  1.00  0.00     0.029 A 
BRANCH   7  11
HETATM   11  C   UNL     1       8.368  30.783  60.077  1.00  0.00     0.010 A 
HETATM   12  C   UNL     1       7.296  31.675  60.327  1.00  0.00     0.152 A 
HETATM   13  N   UNL     1       7.229  32.060  61.605  1.00  0.00    -0.187 NA
HETATM   14  N   UNL     1       8.264  31.427  62.177  1.00  0.00    -0.289 N 
HETATM   15  H   UNL     1       8.429  31.575  63.167  1.00  0.00     0.188 HD
HETATM   16  C   UNL     1       8.976  30.651  61.309  1.00  0.00     0.123 A 
ENDBRANCH   7  11
ENDBRANCH   2   5
BRANCH   1  17
HETATM   17  C   UNL     1       6.852  25.138  56.090  1.00  0.00     0.116 C 
BRANCH  17  18
HETATM   18  C   UNL     1       7.283  24.674  54.681  1.00  0.00     0.049 C 
BRANCH  18  19
HETATM   19  C   UNL     1       6.360  25.306  53.648  1.00  0.00    -0.027 C 
HETATM   20  C   UNL     1       5.056  25.069  53.447  1.00  0.00     0.007 C 
ENDBRANCH  18  19
BRANCH  18  21
HETATM   21  C   UNL     1       7.606  23.184  54.498  1.00  0.00    -0.050 A 
HETATM   22  C   UNL     1       7.589  22.305  55.598  1.00  0.00     0.008 A 
HETATM   23  C   UNL     1       7.861  20.942  55.447  1.00  0.00     0.001 A 
HETATM   24  C   UNL     1       8.123  20.417  54.187  1.00  0.00     0.000 A 
HETATM   25  C   UNL     1       8.097  21.254  53.077  1.00  0.00     0.001 A 
HETATM   26  C   UNL     1       7.828  22.618  53.229  1.00  0.00     0.008 A 
ENDBRANCH  18  21
ENDBRANCH  17  18
ENDBRANCH   1  17
TORSDOF 6
ENDMDL
MODEL 2
REMARK VINA RESULT:      -9.0      2.577      8.991
REMARK  6 active torsions:
REMARK  status: ('A' for Active; 'I' for Inactive)
REMARK    1  A    between atoms: C_2  and  C_3 
REMARK    2  A    between atoms: C_3  and  C_4 
REMARK    3  A    between atoms: C_3  and  C_10 
REMARK    4  A    between atoms: C_10  and  C_11 
REMARK       I    between atoms: C_11  and  N_12 
REMARK    5  A    between atoms: N_12  and  C_13 
REMARK    6  A    between atoms: C_15  and  C_16 
ROOT
HETATM    1  C   UNL     1       7.914  26.607  57.030  1.00  0.00     0.223 C 
HETATM    2  N   UNL     1       7.328  26.514  55.786  1.00  0.00    -0.327 N 
HETATM    3  O   UNL     1       8.772  25.843  57.468  1.00  0.00    -0.273 OA
HETATM    4  H   UNL     1       6.572  27.153  55.584  1.00  0.00     0.169 HD
ENDROOT
BRANCH   2   5
HETATM    5  C   UNL     1       7.572  25.558  54.777  1.00  0.00     0.035 A 
HETATM    6  C   UNL     1       7.875  24.215  55.024  1.00  0.00     0.042 A 
HETATM    7  C   UNL     1       8.118  23.321  53.966  1.00  0.00    -0.021 A 
HETATM    8  C   UNL     1       8.039  23.794  52.650  1.00  0.00     0.012 A 
HETATM    9  C   UNL     1       7.739  25.132  52.393  1.00  0.00     0.003 A 
HETATM   10  C   UNL     1       7.514  26.009  53.453  1.00  0.00     0.029 A 
BRANCH   7  11
HETATM   11  C   UNL     1       8.444  21.932  54.247  1.00  0.00     0.010 A 
HETATM   12  C   UNL     1       8.449  20.793  53.405  1.00  0.00     0.152 A 
HETATM   13  N   UNL     1       8.794  19.674  54.049  1.00  0.00    -0.187 NA
HETATM   14  N   UNL     1       8.999  20.088  55.308  1.00  0.00    -0.289 N 
HETATM   15  H   UNL     1       9.267  19.398  56.002  1.00  0.00     0.188 HD
HETATM   16  C   UNL     1       8.805  21.428  55.480  1.00  0.00     0.123 A 
ENDBRANCH   7  11
ENDBRANCH   2   5
BRANCH   1  17
HETATM   17  C   UNL     1       7.511  27.823  57.865  1.00  0.00     0.116 C 
BRANCH  17  18
HETATM   18  C   UNL     1       8.187  29.181  57.578  1.00  0.00     0.049 C 
BRANCH  18  19
HETATM   19  C   UNL     1       9.585  28.931  57.028  1.00  0.00    -0.027 C 
HETATM   20  C   UNL     1      10.385  29.790  56.380  1.00  0.00     0.007 C 
ENDBRANCH  18  19
BRANCH  18  21
HETATM   21  C   UNL     1       8.051  30.276  58.646  1.00  0.00    -0.050 A 
HETATM   22  C   UNL     1       9.047  30.454  59.624  1.00  0.00     0.008 A 
HETATM   23  C   UNL     1       8.950  31.458  60.592  1.00  0.00     0.001 A 
HETATM   24  C   UNL     1       7.870  32.333  60.584  1.00  0.00     0.000 A 
HETATM   25  C   UNL     1       6.896  32.211  59.599  1.00  0.00     0.001 A 
HETATM   26  C   UNL     1       6.993  31.204  58.634  1.00  0.00     0.008 A 
ENDBRANCH  18  21
ENDBRANCH  17  18
ENDBRANCH   1  17
TORSDOF 6
ENDMDL
MODEL 3
REMARK VINA RESULT:      -8.9      2.065      2.898
REMARK  6 active torsions:
REMARK  status: ('A' for Active; 'I' for Inactive)
REMARK    1  A    between atoms: C_2  and  C_3 
REMARK    2  A    between atoms: C_3  and  C_4 
REMARK    3  A    between atoms: C_3  and  C_10 
REMARK    4  A    between atoms: C_10  and  C_11 
REMARK       I    between atoms: C_11  and  N_12 
REMARK    5  A    between atoms: N_12  and  C_13 
REMARK    6  A    between atoms: C_15  and  C_16 
ROOT
HETATM    1  C   UNL     1       6.170  25.529  55.588  1.00  0.00     0.223 C 
HETATM    2  N   UNL     1       6.504  26.830  55.275  1.00  0.00    -0.327 N 
HETATM    3  O   UNL     1       5.812  25.136  56.697  1.00  0.00    -0.273 OA
HETATM    4  H   UNL     1       6.867  27.002  54.348  1.00  0.00     0.169 HD
ENDROOT
BRANCH   2   5
HETATM    5  C   UNL     1       6.510  27.956  56.125  1.00  0.00     0.035 A 
HETATM    6  C   UNL     1       7.666  28.642  56.512  1.00  0.00     0.042 A 
HETATM    7  C   UNL     1       7.596  29.751  57.373  1.00  0.00    -0.021 A 
HETATM    8  C   UNL     1       6.341  30.172  57.833  1.00  0.00     0.012 A 
HETATM    9  C   UNL     1       5.183  29.493  57.454  1.00  0.00     0.003 A 
HETATM   10  C   UNL     1       5.270  28.386  56.610  1.00  0.00     0.029 A 
BRANCH   7  11
HETATM   11  C   UNL     1       8.812  30.441  57.772  1.00  0.00     0.010 A 
HETATM   12  C   UNL     1       9.018  31.496  58.694  1.00  0.00     0.152 A 
HETATM   13  N   UNL     1      10.298  31.874  58.772  1.00  0.00    -0.187 NA
HETATM   14  N   UNL     1      10.915  31.072  57.892  1.00  0.00    -0.289 N 
HETATM   15  H   UNL     1      11.916  31.181  57.763  1.00  0.00     0.188 HD
HETATM   16  C   UNL     1      10.073  30.197  57.269  1.00  0.00     0.123 A 
ENDBRANCH   7  11
ENDBRANCH   2   5
BRANCH   1  17
HETATM   17  C   UNL     1       6.163  24.545  54.417  1.00  0.00     0.116 C 
BRANCH  17  18
HETATM   18  C   UNL     1       7.513  24.056  53.846  1.00  0.00     0.049 C 
BRANCH  18  19
HETATM   19  C   UNL     1       7.660  24.568  52.420  1.00  0.00    -0.027 C 
HETATM   20  C   UNL     1       6.851  25.402  51.752  1.00  0.00     0.007 C 
ENDBRANCH  18  19
BRANCH  18  21
HETATM   21  C   UNL     1       7.895  22.591  54.098  1.00  0.00    -0.050 A 
HETATM   22  C   UNL     1       8.247  21.747  53.028  1.00  0.00     0.008 A 
HETATM   23  C   UNL     1       8.618  20.415  53.239  1.00  0.00     0.001 A 
HETATM   24  C   UNL     1       8.678  19.904  54.530  1.00  0.00     0.000 A 
HETATM   25  C   UNL     1       8.384  20.729  55.609  1.00  0.00     0.001 A 
HETATM   26  C   UNL     1       8.010  22.060  55.396  1.00  0.00     0.008 A 
ENDBRANCH  18  21
ENDBRANCH  17  18
ENDBRANCH   1  17
TORSDOF 6
ENDMDL
MODEL 4
REMARK VINA RESULT:      -8.8      2.912      8.441
REMARK  6 active torsions:
REMARK  status: ('A' for Active; 'I' for Inactive)
REMARK    1  A    between atoms: C_2  and  C_3 
REMARK    2  A    between atoms: C_3  and  C_4 
REMARK    3  A    between atoms: C_3  and  C_10 
REMARK    4  A    between atoms: C_10  and  C_11 
REMARK       I    between atoms: C_11  and  N_12 
REMARK    5  A    between atoms: N_12  and  C_13 
REMARK    6  A    between atoms: C_15  and  C_16 
ROOT
HETATM    1  C   UNL     1       6.121  26.928  56.123  1.00  0.00     0.223 C 
HETATM    2  N   UNL     1       7.333  26.464  55.659  1.00  0.00    -0.327 N 
HETATM    3  O   UNL     1       5.019  26.558  55.721  1.00  0.00    -0.273 OA
HETATM    4  H   UNL     1       8.165  26.915  56.011  1.00  0.00     0.169 HD
ENDROOT
BRANCH   2   5
HETATM    5  C   UNL     1       7.571  25.499  54.656  1.00  0.00     0.035 A 
HETATM    6  C   UNL     1       7.899  24.164  54.912  1.00  0.00     0.042 A 
HETATM    7  C   UNL     1       8.134  23.262  53.859  1.00  0.00    -0.021 A 
HETATM    8  C   UNL     1       8.021  23.718  52.539  1.00  0.00     0.012 A 
HETATM    9  C   UNL     1       7.696  25.049  52.274  1.00  0.00     0.003 A 
HETATM   10  C   UNL     1       7.479  25.935  53.329  1.00  0.00     0.029 A 
BRANCH   7  11
HETATM   11  C   UNL     1       8.487  21.882  54.149  1.00  0.00     0.010 A 
HETATM   12  C   UNL     1       8.419  20.719  53.342  1.00  0.00     0.152 A 
HETATM   13  N   UNL     1       8.823  19.618  53.984  1.00  0.00    -0.187 NA
HETATM   14  N   UNL     1       9.139  20.068  55.208  1.00  0.00    -0.289 N 
HETATM   15  H   UNL     1       9.469  19.398  55.894  1.00  0.00     0.188 HD
HETATM   16  C   UNL     1       8.958  21.412  55.358  1.00  0.00     0.123 A 
ENDBRANCH   7  11
ENDBRANCH   2   5
BRANCH   1  17
HETATM   17  C   UNL     1       6.190  27.907  57.296  1.00  0.00     0.116 C 
BRANCH  17  18
HETATM   18  C   UNL     1       6.639  29.360  57.028  1.00  0.00     0.049 C 
BRANCH  18  19
HETATM   19  C   UNL     1       5.947  29.869  55.771  1.00  0.00    -0.027 C 
HETATM   20  C   UNL     1       4.786  30.532  55.676  1.00  0.00     0.007 C 
ENDBRANCH  18  19
BRANCH  18  21
HETATM   21  C   UNL     1       8.136  29.672  57.167  1.00  0.00    -0.050 A 
HETATM   22  C   UNL     1       9.025  29.408  56.109  1.00  0.00     0.008 A 
HETATM   23  C   UNL     1      10.388  29.704  56.209  1.00  0.00     0.001 A 
HETATM   24  C   UNL     1      10.890  30.303  57.358  1.00  0.00     0.000 A 
HETATM   25  C   UNL     1      10.025  30.620  58.400  1.00  0.00     0.001 A 
HETATM   26  C   UNL     1       8.663  30.320  58.300  1.00  0.00     0.008 A 
ENDBRANCH  18  21
ENDBRANCH  17  18
ENDBRANCH   1  17
TORSDOF 6
ENDMDL
MODEL 5
REMARK VINA RESULT:      -8.8      5.256      8.736
REMARK  6 active torsions:
REMARK  status: ('A' for Active; 'I' for Inactive)
REMARK    1  A    between atoms: C_2  and  C_3 
REMARK    2  A    between atoms: C_3  and  C_4 
REMARK    3  A    between atoms: C_3  and  C_10 
REMARK    4  A    between atoms: C_10  and  C_11 
REMARK       I    between atoms: C_11  and  N_12 
REMARK    5  A    between atoms: N_12  and  C_13 
REMARK    6  A    between atoms: C_15  and  C_16 
ROOT
HETATM    1  C   UNL     1       6.073  25.648  53.119  1.00  0.00     0.223 C 
HETATM    2  N   UNL     1       6.390  26.517  52.097  1.00  0.00    -0.327 N 
HETATM    3  O   UNL     1       4.931  25.328  53.449  1.00  0.00    -0.273 OA
HETATM    4  H   UNL     1       7.364  26.762  51.988  1.00  0.00     0.169 HD
ENDROOT
BRANCH   2   5
HETATM    5  C   UNL     1       5.511  27.208  51.237  1.00  0.00     0.035 A 
HETATM    6  C   UNL     1       4.843  26.621  50.158  1.00  0.00     0.042 A 
HETATM    7  C   UNL     1       3.991  27.378  49.335  1.00  0.00    -0.021 A 
HETATM    8  C   UNL     1       3.806  28.737  49.621  1.00  0.00     0.012 A 
HETATM    9  C   UNL     1       4.469  29.332  50.694  1.00  0.00     0.003 A 
HETATM   10  C   UNL     1       5.323  28.572  51.492  1.00  0.00     0.029 A 
BRANCH   7  11
HETATM   11  C   UNL     1       3.316  26.748  48.211  1.00  0.00     0.010 A 
HETATM   12  C   UNL     1       3.475  25.462  47.637  1.00  0.00     0.152 A 
HETATM   13  N   UNL     1       2.672  25.260  46.588  1.00  0.00    -0.187 NA
HETATM   14  N   UNL     1       2.004  26.419  46.477  1.00  0.00    -0.289 N 
HETATM   15  H   UNL     1       1.328  26.513  45.726  1.00  0.00     0.188 HD
HETATM   16  C   UNL     1       2.352  27.340  47.422  1.00  0.00     0.123 A 
ENDBRANCH   7  11
ENDBRANCH   2   5
BRANCH   1  17
HETATM   17  C   UNL     1       7.258  24.973  53.811  1.00  0.00     0.116 C 
BRANCH  17  18
HETATM   18  C   UNL     1       6.982  23.869  54.855  1.00  0.00     0.049 C 
BRANCH  18  19
HETATM   19  C   UNL     1       7.136  24.459  56.251  1.00  0.00    -0.027 C 
HETATM   20  C   UNL     1       6.199  25.043  57.010  1.00  0.00     0.007 C 
ENDBRANCH  18  19
BRANCH  18  21
HETATM   21  C   UNL     1       7.620  22.494  54.613  1.00  0.00    -0.050 A 
HETATM   22  C   UNL     1       7.810  21.593  55.677  1.00  0.00     0.008 A 
HETATM   23  C   UNL     1       8.371  20.328  55.472  1.00  0.00     0.001 A 
HETATM   24  C   UNL     1       8.724  19.920  54.191  1.00  0.00     0.000 A 
HETATM   25  C   UNL     1       8.501  20.771  53.115  1.00  0.00     0.001 A 
HETATM   26  C   UNL     1       7.943  22.037  53.321  1.00  0.00     0.008 A 
ENDBRANCH  18  21
ENDBRANCH  17  18
ENDBRANCH   1  17
TORSDOF 6
ENDMDL
MODEL 6
REMARK VINA RESULT:      -8.4      2.169      2.934
REMARK  6 active torsions:
REMARK  status: ('A' for Active; 'I' for Inactive)
REMARK    1  A    between atoms: C_2  and  C_3 
REMARK    2  A    between atoms: C_3  and  C_4 
REMARK    3  A    between atoms: C_3  and  C_10 
REMARK    4  A    between atoms: C_10  and  C_11 
REMARK       I    between atoms: C_11  and  N_12 
REMARK    5  A    between atoms: N_12  and  C_13 
REMARK    6  A    between atoms: C_15  and  C_16 
ROOT
HETATM    1  C   UNL     1       6.577  26.749  55.008  1.00  0.00     0.223 C 
HETATM    2  N   UNL     1       5.802  27.128  56.083  1.00  0.00    -0.327 N 
HETATM    3  O   UNL     1       7.351  27.485  54.398  1.00  0.00    -0.273 OA
HETATM    4  H   UNL     1       5.142  26.450  56.437  1.00  0.00     0.169 HD
ENDROOT
BRANCH   2   5
HETATM    5  C   UNL     1       5.724  28.396  56.698  1.00  0.00     0.035 A 
HETATM    6  C   UNL     1       6.815  29.060  57.268  1.00  0.00     0.042 A 
HETATM    7  C   UNL     1       6.659  30.319  57.875  1.00  0.00    -0.021 A 
HETATM    8  C   UNL     1       5.389  30.911  57.889  1.00  0.00     0.012 A 
HETATM    9  C   UNL     1       4.295  30.255  57.324  1.00  0.00     0.003 A 
HETATM   10  C   UNL     1       4.463  29.001  56.738  1.00  0.00     0.029 A 
BRANCH   7  11
HETATM   11  C   UNL     1       7.804  30.986  58.473  1.00  0.00     0.010 A 
HETATM   12  C   UNL     1       7.876  32.087  59.362  1.00  0.00     0.152 A 
HETATM   13  N   UNL     1       9.132  32.420  59.674  1.00  0.00    -0.187 NA
HETATM   14  N   UNL     1       9.871  31.543  58.978  1.00  0.00    -0.289 N 
HETATM   15  H   UNL     1      10.881  31.606  59.047  1.00  0.00     0.188 HD
HETATM   16  C   UNL     1       9.127  30.664  58.245  1.00  0.00     0.123 A 
ENDBRANCH   7  11
ENDBRANCH   2   5
BRANCH   1  17
HETATM   17  C   UNL     1       6.516  25.267  54.634  1.00  0.00     0.116 C 
BRANCH  17  18
HETATM   18  C   UNL     1       7.219  24.239  55.547  1.00  0.00     0.049 C 
BRANCH  18  19
HETATM   19  C   UNL     1       8.309  24.947  56.342  1.00  0.00    -0.027 C 
HETATM   20  C   UNL     1       8.551  24.877  57.658  1.00  0.00     0.007 C 
ENDBRANCH  18  19
BRANCH  18  21
HETATM   21  C   UNL     1       7.586  22.883  54.930  1.00  0.00    -0.050 A 
HETATM   22  C   UNL     1       7.703  21.734  55.735  1.00  0.00     0.008 A 
HETATM   23  C   UNL     1       8.016  20.486  55.188  1.00  0.00     0.001 A 
HETATM   24  C   UNL     1       8.187  20.349  53.815  1.00  0.00     0.000 A 
HETATM   25  C   UNL     1       8.029  21.457  52.990  1.00  0.00     0.001 A 
HETATM   26  C   UNL     1       7.718  22.706  53.539  1.00  0.00     0.008 A 
ENDBRANCH  18  21
ENDBRANCH  17  18
ENDBRANCH   1  17
TORSDOF 6
ENDMDL
MODEL 7
REMARK VINA RESULT:      -8.3      5.913      9.547
REMARK  6 active torsions:
REMARK  status: ('A' for Active; 'I' for Inactive)
REMARK    1  A    between atoms: C_2  and  C_3 
REMARK    2  A    between atoms: C_3  and  C_4 
REMARK    3  A    between atoms: C_3  and  C_10 
REMARK    4  A    between atoms: C_10  and  C_11 
REMARK       I    between atoms: C_11  and  N_12 
REMARK    5  A    between atoms: N_12  and  C_13 
REMARK    6  A    between atoms: C_15  and  C_16 
ROOT
HETATM    1  C   UNL     1       4.843  26.158  52.032  1.00  0.00     0.223 C 
HETATM    2  N   UNL     1       4.971  26.169  50.659  1.00  0.00    -0.327 N 
HETATM    3  O   UNL     1       4.371  27.072  52.706  1.00  0.00    -0.273 OA
HETATM    4  H   UNL     1       5.457  25.390  50.236  1.00  0.00     0.169 HD
ENDROOT
BRANCH   2   5
HETATM    5  C   UNL     1       4.607  27.192  49.757  1.00  0.00     0.035 A 
HETATM    6  C   UNL     1       3.468  27.156  48.947  1.00  0.00     0.042 A 
HETATM    7  C   UNL     1       3.175  28.209  48.063  1.00  0.00    -0.021 A 
HETATM    8  C   UNL     1       4.040  29.310  48.012  1.00  0.00     0.012 A 
HETATM    9  C   UNL     1       5.180  29.353  48.815  1.00  0.00     0.003 A 
HETATM   10  C   UNL     1       5.464  28.295  49.677  1.00  0.00     0.029 A 
BRANCH   7  11
HETATM   11  C   UNL     1       1.991  28.144  47.220  1.00  0.00     0.010 A 
HETATM   12  C   UNL     1       1.210  27.038  46.803  1.00  0.00     0.152 A 
HETATM   13  N   UNL     1       0.197  27.391  46.006  1.00  0.00    -0.187 NA
HETATM   14  N   UNL     1       0.331  28.721  45.898  1.00  0.00    -0.289 N 
HETATM   15  H   UNL     1      -0.332  29.225  45.320  1.00  0.00     0.188 HD
HETATM   16  C   UNL     1       1.387  29.221  46.605  1.00  0.00     0.123 A 
ENDBRANCH   7  11
ENDBRANCH   2   5
BRANCH   1  17
HETATM   17  C   UNL     1       5.237  24.854  52.726  1.00  0.00     0.116 C 
BRANCH  17  18
HETATM   18  C   UNL     1       6.496  24.837  53.620  1.00  0.00     0.049 C 
BRANCH  18  19
HETATM   19  C   UNL     1       7.453  25.924  53.147  1.00  0.00    -0.027 C 
HETATM   20  C   UNL     1       7.765  27.075  53.759  1.00  0.00     0.007 C 
ENDBRANCH  18  19
BRANCH  18  21
HETATM   21  C   UNL     1       7.112  23.469  53.945  1.00  0.00    -0.050 A 
HETATM   22  C   UNL     1       7.652  22.664  52.925  1.00  0.00     0.008 A 
HETATM   23  C   UNL     1       8.236  21.424  53.205  1.00  0.00     0.001 A 
HETATM   24  C   UNL     1       8.323  20.974  54.517  1.00  0.00     0.000 A 
HETATM   25  C   UNL     1       7.843  21.771  55.549  1.00  0.00     0.001 A 
HETATM   26  C   UNL     1       7.257  23.010  55.268  1.00  0.00     0.008 A 
ENDBRANCH  18  21
ENDBRANCH  17  18
ENDBRANCH   1  17
TORSDOF 6
ENDMDL
MODEL 8
REMARK VINA RESULT:      -8.2      1.888      3.390
REMARK  6 active torsions:
REMARK  status: ('A' for Active; 'I' for Inactive)
REMARK    1  A    between atoms: C_2  and  C_3 
REMARK    2  A    between atoms: C_3  and  C_4 
REMARK    3  A    between atoms: C_3  and  C_10 
REMARK    4  A    between atoms: C_10  and  C_11 
REMARK       I    between atoms: C_11  and  N_12 
REMARK    5  A    between atoms: N_12  and  C_13 
REMARK    6  A    between atoms: C_15  and  C_16 
ROOT
HETATM    1  C   UNL     1       7.941  25.319  56.847  1.00  0.00     0.223 C 
HETATM    2  N   UNL     1       6.728  25.952  57.018  1.00  0.00    -0.327 N 
HETATM    3  O   UNL     1       9.035  25.880  56.824  1.00  0.00    -0.273 OA
HETATM    4  H   UNL     1       5.896  25.385  56.929  1.00  0.00     0.169 HD
ENDROOT
BRANCH   2   5
HETATM    5  C   UNL     1       6.481  27.330  57.194  1.00  0.00     0.035 A 
HETATM    6  C   UNL     1       7.430  28.245  57.658  1.00  0.00     0.042 A 
HETATM    7  C   UNL     1       7.108  29.604  57.820  1.00  0.00    -0.021 A 
HETATM    8  C   UNL     1       5.815  30.036  57.495  1.00  0.00     0.012 A 
HETATM    9  C   UNL     1       4.860  29.129  57.034  1.00  0.00     0.003 A 
HETATM   10  C   UNL     1       5.191  27.783  56.891  1.00  0.00     0.029 A 
BRANCH   7  11
HETATM   11  C   UNL     1       8.108  30.536  58.316  1.00  0.00     0.010 A 
HETATM   12  C   UNL     1       7.979  31.682  59.139  1.00  0.00     0.152 A 
HETATM   13  N   UNL     1       9.147  32.294  59.362  1.00  0.00    -0.187 NA
HETATM   14  N   UNL     1      10.026  31.551  58.673  1.00  0.00    -0.289 N 
HETATM   15  H   UNL     1      11.001  31.831  58.681  1.00  0.00     0.188 HD
HETATM   16  C   UNL     1       9.457  30.489  58.032  1.00  0.00     0.123 A 
ENDBRANCH   7  11
ENDBRANCH   2   5
BRANCH   1  17
HETATM   17  C   UNL     1       7.891  23.792  56.783  1.00  0.00     0.116 C 
BRANCH  17  18
HETATM   18  C   UNL     1       7.277  23.118  55.537  1.00  0.00     0.049 C 
BRANCH  18  19
HETATM   19  C   UNL     1       7.932  21.758  55.337  1.00  0.00    -0.027 C 
HETATM   20  C   UNL     1       7.718  20.872  54.354  1.00  0.00     0.007 C 
ENDBRANCH  18  19
BRANCH  18  21
HETATM   21  C   UNL     1       7.094  23.987  54.284  1.00  0.00    -0.050 A 
HETATM   22  C   UNL     1       8.175  24.234  53.417  1.00  0.00     0.008 A 
HETATM   23  C   UNL     1       8.022  25.005  52.260  1.00  0.00     0.001 A 
HETATM   24  C   UNL     1       6.775  25.521  51.925  1.00  0.00     0.000 A 
HETATM   25  C   UNL     1       5.680  25.251  52.738  1.00  0.00     0.001 A 
HETATM   26  C   UNL     1       5.835  24.482  53.896  1.00  0.00     0.008 A 
ENDBRANCH  18  21
ENDBRANCH  17  18
ENDBRANCH   1  17
TORSDOF 6
ENDMDL
MODEL 9
REMARK VINA RESULT:      -8.2      3.238      6.062
REMARK  6 active torsions:
REMARK  status: ('A' for Active; 'I' for Inactive)
REMARK    1  A    between atoms: C_2  and  C_3 
REMARK    2  A    between atoms: C_3  and  C_4 
REMARK    3  A    between atoms: C_3  and  C_10 
REMARK    4  A    between atoms: C_10  and  C_11 
REMARK       I    between atoms: C_11  and  N_12 
REMARK    5  A    between atoms: N_12  and  C_13 
REMARK    6  A    between atoms: C_15  and  C_16 
ROOT
HETATM    1  C   UNL     1       7.990  30.536  59.646  1.00  0.00     0.223 C 
HETATM    2  N   UNL     1       7.100  31.471  60.128  1.00  0.00    -0.327 N 
HETATM    3  O   UNL     1       8.908  30.032  60.291  1.00  0.00    -0.273 OA
HETATM    4  H   UNL     1       6.448  31.871  59.467  1.00  0.00     0.169 HD
ENDROOT
BRANCH   2   5
HETATM    5  C   UNL     1       7.046  32.039  61.419  1.00  0.00     0.035 A 
HETATM    6  C   UNL     1       5.877  32.517  62.020  1.00  0.00     0.042 A 
HETATM    7  C   UNL     1       5.904  33.081  63.307  1.00  0.00    -0.021 A 
HETATM    8  C   UNL     1       7.124  33.148  63.992  1.00  0.00     0.012 A 
HETATM    9  C   UNL     1       8.296  32.676  63.400  1.00  0.00     0.003 A 
HETATM   10  C   UNL     1       8.256  32.131  62.117  1.00  0.00     0.029 A 
BRANCH   7  11
HETATM   11  C   UNL     1       4.677  33.583  63.907  1.00  0.00     0.010 A 
HETATM   12  C   UNL     1       4.373  33.919  65.249  1.00  0.00     0.152 A 
HETATM   13  N   UNL     1       3.111  34.334  65.406  1.00  0.00    -0.187 NA
HETATM   14  N   UNL     1       2.599  34.253  64.169  1.00  0.00    -0.289 N 
HETATM   15  H   UNL     1       1.628  34.512  64.034  1.00  0.00     0.188 HD
HETATM   16  C   UNL     1       3.493  33.811  63.237  1.00  0.00     0.123 A 
ENDBRANCH   7  11
ENDBRANCH   2   5
BRANCH   1  17
HETATM   17  C   UNL     1       7.726  30.038  58.224  1.00  0.00     0.116 C 
BRANCH  17  18
HETATM   18  C   UNL     1       8.424  28.747  57.745  1.00  0.00     0.049 C 
BRANCH  18  19
HETATM   19  C   UNL     1       9.478  29.110  56.708  1.00  0.00    -0.027 C 
HETATM   20  C   UNL     1      10.678  29.672  56.910  1.00  0.00     0.007 C 
ENDBRANCH  18  19
BRANCH  18  21
HETATM   21  C   UNL     1       7.531  27.539  57.428  1.00  0.00    -0.050 A 
HETATM   22  C   UNL     1       6.155  27.707  57.185  1.00  0.00     0.008 A 
HETATM   23  C   UNL     1       5.329  26.622  56.874  1.00  0.00     0.001 A 
HETATM   24  C   UNL     1       5.867  25.345  56.766  1.00  0.00     0.000 A 
HETATM   25  C   UNL     1       7.232  25.157  56.952  1.00  0.00     0.001 A 
HETATM   26  C   UNL     1       8.056  26.243  57.265  1.00  0.00     0.008 A 
ENDBRANCH  18  21
ENDBRANCH  17  18
ENDBRANCH   1  17
TORSDOF 6
ENDMDL
MODEL 10
REMARK VINA RESULT:      -8.2      3.714      4.317
REMARK  6 active torsions:
REMARK  status: ('A' for Active; 'I' for Inactive)
REMARK    1  A    between atoms: C_2  and  C_3 
REMARK    2  A    between atoms: C_3  and  C_4 
REMARK    3  A    between atoms: C_3  and  C_10 
REMARK    4  A    between atoms: C_10  and  C_11 
REMARK       I    between atoms: C_11  and  N_12 
REMARK    5  A    between atoms: N_12  and  C_13 
REMARK    6  A    between atoms: C_15  and  C_16 
ROOT
HETATM    1  C   UNL     1       5.969  26.626  54.905  1.00  0.00     0.223 C 
HETATM    2  N   UNL     1       4.674  27.095  54.862  1.00  0.00    -0.327 N 
HETATM    3  O   UNL     1       6.976  27.330  54.971  1.00  0.00    -0.273 OA
HETATM    4  H   UNL     1       3.942  26.413  54.719  1.00  0.00     0.169 HD
ENDROOT
BRANCH   2   5
HETATM    5  C   UNL     1       4.231  28.435  54.882  1.00  0.00     0.035 A 
HETATM    6  C   UNL     1       4.128  29.211  56.041  1.00  0.00     0.042 A 
HETATM    7  C   UNL     1       3.667  30.538  55.984  1.00  0.00    -0.021 A 
HETATM    8  C   UNL     1       3.320  31.081  54.740  1.00  0.00     0.012 A 
HETATM    9  C   UNL     1       3.417  30.314  53.580  1.00  0.00     0.003 A 
HETATM   10  C   UNL     1       3.863  28.995  53.654  1.00  0.00     0.029 A 
BRANCH   7  11
HETATM   11  C   UNL     1       3.557  31.323  57.204  1.00  0.00     0.010 A 
HETATM   12  C   UNL     1       3.451  32.722  57.399  1.00  0.00     0.152 A 
HETATM   13  N   UNL     1       3.387  33.062  58.690  1.00  0.00    -0.187 NA
HETATM   14  N   UNL     1       3.463  31.885  59.328  1.00  0.00    -0.289 N 
HETATM   15  H   UNL     1       3.446  31.887  60.342  1.00  0.00     0.188 HD
HETATM   16  C   UNL     1       3.565  30.815  58.487  1.00  0.00     0.123 A 
ENDBRANCH   7  11
ENDBRANCH   2   5
BRANCH   1  17
HETATM   17  C   UNL     1       6.124  25.106  54.971  1.00  0.00     0.116 C 
BRANCH  17  18
HETATM   18  C   UNL     1       6.949  24.393  53.877  1.00  0.00     0.049 C 
BRANCH  18  19
HETATM   19  C   UNL     1       6.320  24.676  52.519  1.00  0.00    -0.027 C 
HETATM   20  C   UNL     1       5.018  24.756  52.211  1.00  0.00     0.007 C 
ENDBRANCH  18  19
BRANCH  18  21
HETATM   21  C   UNL     1       7.378  22.944  54.150  1.00  0.00    -0.050 A 
HETATM   22  C   UNL     1       7.778  22.103  53.095  1.00  0.00     0.008 A 
HETATM   23  C   UNL     1       8.192  20.787  53.327  1.00  0.00     0.001 A 
HETATM   24  C   UNL     1       8.249  20.291  54.624  1.00  0.00     0.000 A 
HETATM   25  C   UNL     1       7.907  21.117  55.689  1.00  0.00     0.001 A 
HETATM   26  C   UNL     1       7.490  22.432  55.456  1.00  0.00     0.008 A 
ENDBRANCH  18  21
ENDBRANCH  17  18
ENDBRANCH   1  17
TORSDOF 6
ENDMDL
