MODEL 1
REMARK VINA RESULT:      -8.1      0.000      0.000
REMARK  6 active torsions:
REMARK  status: ('A' for Active; 'I' for Inactive)
REMARK    1  A    between atoms: C_2  and  N_3 
REMARK    2  A    between atoms: C_2  and  C_18 
REMARK    3  A    between atoms: N_3  and  C_6 
REMARK    4  A    between atoms: C_6  and  C_7 
REMARK    5  A    between atoms: C_10  and  N_11 
REMARK       I    between atoms: N_11  and  C_12 
REMARK    6  A    between atoms: C_12  and  O_13 
ROOT
HETATM    1  N   UNL     1       5.744  26.072  55.836  1.00  0.00    -0.063 N 
HETATM    2  H   UNL     1       5.328  25.196  55.493  1.00  0.00     0.278 HD
HETATM    3  H   UNL     1       5.465  26.123  56.822  1.00  0.00     0.278 HD
ENDROOT
BRANCH   1   4
HETATM    4  C   UNL     1       7.236  25.958  55.730  1.00  0.00     0.216 C 
HETATM    5  C   UNL     1       7.907  26.750  56.853  1.00  0.00     0.045 C 
BRANCH   4   6
HETATM    6  C   UNL     1       7.656  24.508  55.744  1.00  0.00    -0.009 A 
HETATM    7  C   UNL     1       8.058  23.906  56.932  1.00  0.00     0.126 A 
HETATM    8  N   UNL     1       8.463  22.631  57.068  1.00  0.00    -0.259 NA
HETATM    9  C   UNL     1       8.452  21.874  55.939  1.00  0.00     0.074 A 
HETATM   10  C   UNL     1       8.063  22.381  54.701  1.00  0.00     0.034 A 
HETATM   11  C   UNL     1       8.823  20.501  55.861  1.00  0.00     0.040 A 
HETATM   12  S   UNL     1       8.160  21.179  53.478  1.00  0.00    -0.100 SA
HETATM   13  C   UNL     1       7.658  23.720  54.584  1.00  0.00     0.032 A 
HETATM   14  C   UNL     1       8.709  19.998  54.585  1.00  0.00     0.053 A 
ENDBRANCH   4   6
ENDBRANCH   1   4
BRANCH   1  15
HETATM   15  C   UNL     1       5.097  27.193  55.094  1.00  0.00     0.271 C 
BRANCH  15  16
HETATM   16  C   UNL     1       5.160  26.969  53.609  1.00  0.00    -0.033 A 
HETATM   17  C   UNL     1       4.906  25.703  53.064  1.00  0.00     0.011 A 
HETATM   18  C   UNL     1       4.982  25.488  51.680  1.00  0.00     0.030 A 
HETATM   19  C   UNL     1       5.306  26.530  50.813  1.00  0.00     0.036 A 
HETATM   20  C   UNL     1       5.548  27.797  51.360  1.00  0.00     0.030 A 
HETATM   21  C   UNL     1       5.483  28.017  52.741  1.00  0.00     0.011 A 
BRANCH  19  22
HETATM   22  N   UNL     1       5.397  26.419  49.417  1.00  0.00    -0.303 N 
HETATM   23  C   UNL     1       4.504  26.664  48.407  1.00  0.00     0.364 C 
HETATM   24  O   UNL     1       4.844  26.513  47.239  1.00  0.00    -0.238 OA
HETATM   25  H   UNL     1       6.275  26.092  49.032  1.00  0.00     0.171 HD
BRANCH  23  26
HETATM   26  O   UNL     1       3.262  27.042  48.797  1.00  0.00    -0.309 OA
HETATM   27  C   UNL     1       2.216  26.582  47.937  1.00  0.00     0.215 C 
ENDBRANCH  23  26
ENDBRANCH  19  22
ENDBRANCH  15  16
ENDBRANCH   1  15
TORSDOF 6
ENDMDL
MODEL 2
REMARK VINA RESULT:      -8.0      4.581      6.868
REMARK  6 active torsions:
REMARK  status: ('A' for Active; 'I' for Inactive)
REMARK    1  A    between atoms: C_2  and  N_3 
REMARK    2  A    between atoms: C_2  and  C_18 
REMARK    3  A    between atoms: N_3  and  C_6 
REMARK    4  A    between atoms: C_6  and  C_7 
REMARK    5  A    between atoms: C_10  and  N_11 
REMARK       I    between atoms: N_11  and  C_12 
REMARK    6  A    between atoms: C_12  and  O_13 
ROOT
HETATM    1  N   UNL     1       7.485  26.812  53.652  1.00  0.00    -0.063 N 
HETATM    2  H   UNL     1       7.992  26.532  54.502  1.00  0.00     0.278 HD
HETATM    3  H   UNL     1       8.219  26.980  52.955  1.00  0.00     0.278 HD
ENDROOT
BRANCH   1   4
HETATM    4  C   UNL     1       6.619  25.665  53.219  1.00  0.00     0.216 C 
HETATM    5  C   UNL     1       6.637  25.535  51.697  1.00  0.00     0.045 C 
BRANCH   4   6
HETATM    6  C   UNL     1       7.062  24.389  53.893  1.00  0.00    -0.009 A 
HETATM    7  C   UNL     1       7.067  24.295  55.281  1.00  0.00     0.126 A 
HETATM    8  N   UNL     1       7.449  23.220  55.993  1.00  0.00    -0.259 NA
HETATM    9  C   UNL     1       7.842  22.134  55.277  1.00  0.00     0.074 A 
HETATM   10  C   UNL     1       7.868  22.125  53.884  1.00  0.00     0.034 A 
HETATM   11  C   UNL     1       8.267  20.890  55.827  1.00  0.00     0.040 A 
HETATM   12  S   UNL     1       8.410  20.610  53.282  1.00  0.00    -0.100 SA
HETATM   13  C   UNL     1       7.477  23.265  53.165  1.00  0.00     0.032 A 
HETATM   14  C   UNL     1       8.602  19.973  54.856  1.00  0.00     0.053 A 
ENDBRANCH   4   6
ENDBRANCH   1   4
BRANCH   1  15
HETATM   15  C   UNL     1       6.797  28.103  53.948  1.00  0.00     0.271 C 
BRANCH  15  16
HETATM   16  C   UNL     1       7.071  28.553  55.355  1.00  0.00    -0.033 A 
HETATM   17  C   UNL     1       8.163  28.045  56.071  1.00  0.00     0.011 A 
HETATM   18  C   UNL     1       8.409  28.451  57.391  1.00  0.00     0.030 A 
HETATM   19  C   UNL     1       7.577  29.375  58.020  1.00  0.00     0.036 A 
HETATM   20  C   UNL     1       6.494  29.892  57.297  1.00  0.00     0.030 A 
HETATM   21  C   UNL     1       6.237  29.484  55.983  1.00  0.00     0.011 A 
BRANCH  19  22
HETATM   22  N   UNL     1       7.745  29.851  59.330  1.00  0.00    -0.303 N 
HETATM   23  C   UNL     1       8.250  31.021  59.833  1.00  0.00     0.364 C 
HETATM   24  O   UNL     1       8.261  31.212  61.045  1.00  0.00    -0.238 OA
HETATM   25  H   UNL     1       7.455  29.244  60.087  1.00  0.00     0.171 HD
BRANCH  23  26
HETATM   26  O   UNL     1       8.739  31.895  58.919  1.00  0.00    -0.309 OA
HETATM   27  C   UNL     1      10.108  31.672  58.574  1.00  0.00     0.215 C 
ENDBRANCH  23  26
ENDBRANCH  19  22
ENDBRANCH  15  16
ENDBRANCH   1  15
TORSDOF 6
ENDMDL
MODEL 3
REMARK VINA RESULT:      -7.8      1.129      1.710
REMARK  6 active torsions:
REMARK  status: ('A' for Active; 'I' for Inactive)
REMARK    1  A    between atoms: C_2  and  N_3 
REMARK    2  A    between atoms: C_2  and  C_18 
REMARK    3  A    between atoms: N_3  and  C_6 
REMARK    4  A    between atoms: C_6  and  C_7 
REMARK    5  A    between atoms: C_10  and  N_11 
REMARK       I    between atoms: N_11  and  C_12 
REMARK    6  A    between atoms: C_12  and  O_13 
ROOT
HETATM    1  N   UNL     1       5.708  26.010  55.813  1.00  0.00    -0.063 N 
HETATM    2  H   UNL     1       5.300  25.163  55.397  1.00  0.00     0.278 HD
HETATM    3  H   UNL     1       5.374  26.010  56.783  1.00  0.00     0.278 HD
ENDROOT
BRANCH   1   4
HETATM    4  C   UNL     1       7.203  25.876  55.785  1.00  0.00     0.216 C 
HETATM    5  C   UNL     1       7.774  26.046  57.193  1.00  0.00     0.045 C 
BRANCH   4   6
HETATM    6  C   UNL     1       7.601  24.552  55.179  1.00  0.00    -0.009 A 
HETATM    7  C   UNL     1       7.943  24.473  53.832  1.00  0.00     0.126 A 
HETATM    8  N   UNL     1       8.301  23.353  53.179  1.00  0.00    -0.259 NA
HETATM    9  C   UNL     1       8.347  22.215  53.919  1.00  0.00     0.074 A 
HETATM   10  C   UNL     1       8.028  22.189  55.275  1.00  0.00     0.034 A 
HETATM   11  C   UNL     1       8.718  20.927  53.433  1.00  0.00     0.040 A 
HETATM   12  S   UNL     1       8.184  20.604  55.921  1.00  0.00    -0.100 SA
HETATM   13  C   UNL     1       7.643  23.369  55.930  1.00  0.00     0.032 A 
HETATM   14  C   UNL     1       8.674  19.963  54.415  1.00  0.00     0.053 A 
ENDBRANCH   4   6
ENDBRANCH   1   4
BRANCH   1  15
HETATM   15  C   UNL     1       5.123  27.183  55.101  1.00  0.00     0.271 C 
BRANCH  15  16
HETATM   16  C   UNL     1       5.176  26.996  53.611  1.00  0.00    -0.033 A 
HETATM   17  C   UNL     1       5.542  28.054  52.768  1.00  0.00     0.011 A 
HETATM   18  C   UNL     1       5.574  27.886  51.376  1.00  0.00     0.030 A 
HETATM   19  C   UNL     1       5.249  26.660  50.798  1.00  0.00     0.036 A 
HETATM   20  C   UNL     1       4.895  25.601  51.643  1.00  0.00     0.030 A 
HETATM   21  C   UNL     1       4.851  25.764  53.033  1.00  0.00     0.011 A 
BRANCH  19  22
HETATM   22  N   UNL     1       5.261  26.389  49.421  1.00  0.00    -0.303 N 
HETATM   23  C   UNL     1       4.396  26.705  48.407  1.00  0.00     0.364 C 
HETATM   24  O   UNL     1       4.653  26.369  47.255  1.00  0.00    -0.238 OA
HETATM   25  H   UNL     1       6.040  25.852  49.058  1.00  0.00     0.171 HD
BRANCH  23  26
HETATM   26  O   UNL     1       3.271  27.367  48.775  1.00  0.00    -0.309 OA
HETATM   27  C   UNL     1       2.416  27.714  47.683  1.00  0.00     0.215 C 
ENDBRANCH  23  26
ENDBRANCH  19  22
ENDBRANCH  15  16
ENDBRANCH   1  15
TORSDOF 6
ENDMDL
MODEL 4
REMARK VINA RESULT:      -7.8      3.875      7.635
REMARK  6 active torsions:
REMARK  status: ('A' for Active; 'I' for Inactive)
REMARK    1  A    between atoms: C_2  and  N_3 
REMARK    2  A    between atoms: C_2  and  C_18 
REMARK    3  A    between atoms: N_3  and  C_6 
REMARK    4  A    between atoms: C_6  and  C_7 
REMARK    5  A    between atoms: C_10  and  N_11 
REMARK       I    between atoms: N_11  and  C_12 
REMARK    6  A    between atoms: C_12  and  O_13 
ROOT
HETATM    1  N   UNL     1       6.436  28.433  53.126  1.00  0.00    -0.063 N 
HETATM    2  H   UNL     1       6.776  28.342  52.160  1.00  0.00     0.278 HD
HETATM    3  H   UNL     1       6.444  29.442  53.311  1.00  0.00     0.278 HD
ENDROOT
BRANCH   1   4
HETATM    4  C   UNL     1       5.029  27.913  53.183  1.00  0.00     0.216 C 
HETATM    5  C   UNL     1       4.224  28.679  54.232  1.00  0.00     0.045 C 
BRANCH   4   6
HETATM    6  C   UNL     1       4.385  27.991  51.820  1.00  0.00    -0.009 A 
HETATM    7  C   UNL     1       3.308  28.845  51.601  1.00  0.00     0.126 A 
HETATM    8  N   UNL     1       2.647  28.993  50.440  1.00  0.00    -0.259 NA
HETATM    9  C   UNL     1       3.096  28.250  49.394  1.00  0.00     0.074 A 
HETATM   10  C   UNL     1       4.169  27.369  49.508  1.00  0.00     0.034 A 
HETATM   11  C   UNL     1       2.556  28.266  48.076  1.00  0.00     0.040 A 
HETATM   12  S   UNL     1       4.489  26.583  48.014  1.00  0.00    -0.100 SA
HETATM   13  C   UNL     1       4.834  27.223  50.736  1.00  0.00     0.032 A 
HETATM   14  C   UNL     1       3.219  27.410  47.226  1.00  0.00     0.053 A 
ENDBRANCH   4   6
ENDBRANCH   1   4
BRANCH   1  15
HETATM   15  C   UNL     1       7.436  27.772  54.014  1.00  0.00     0.271 C 
BRANCH  15  16
HETATM   16  C   UNL     1       7.487  26.291  53.768  1.00  0.00    -0.033 A 
HETATM   17  C   UNL     1       7.143  25.384  54.779  1.00  0.00     0.011 A 
HETATM   18  C   UNL     1       7.208  24.001  54.556  1.00  0.00     0.030 A 
HETATM   19  C   UNL     1       7.608  23.495  53.321  1.00  0.00     0.036 A 
HETATM   20  C   UNL     1       7.939  24.404  52.308  1.00  0.00     0.030 A 
HETATM   21  C   UNL     1       7.886  25.786  52.526  1.00  0.00     0.011 A 
BRANCH  19  22
HETATM   22  N   UNL     1       7.695  22.132  52.996  1.00  0.00    -0.303 N 
HETATM   23  C   UNL     1       8.435  21.102  53.513  1.00  0.00     0.364 C 
HETATM   24  O   UNL     1       8.306  19.968  53.063  1.00  0.00    -0.238 OA
HETATM   25  H   UNL     1       7.120  21.797  52.233  1.00  0.00     0.171 HD
BRANCH  23  26
HETATM   26  O   UNL     1       9.302  21.436  54.501  1.00  0.00    -0.309 OA
HETATM   27  C   UNL     1       9.191  20.624  55.672  1.00  0.00     0.215 C 
ENDBRANCH  23  26
ENDBRANCH  19  22
ENDBRANCH  15  16
ENDBRANCH   1  15
TORSDOF 6
ENDMDL
MODEL 5
REMARK VINA RESULT:      -7.8      4.545      6.705
REMARK  6 active torsions:
REMARK  status: ('A' for Active; 'I' for Inactive)
REMARK    1  A    between atoms: C_2  and  N_3 
REMARK    2  A    between atoms: C_2  and  C_18 
REMARK    3  A    between atoms: N_3  and  C_6 
REMARK    4  A    between atoms: C_6  and  C_7 
REMARK    5  A    between atoms: C_10  and  N_11 
REMARK       I    between atoms: N_11  and  C_12 
REMARK    6  A    between atoms: C_12  and  O_13 
ROOT
HETATM    1  N   UNL     1       6.938  26.523  53.432  1.00  0.00    -0.063 N 
HETATM    2  H   UNL     1       7.868  26.400  53.856  1.00  0.00     0.278 HD
HETATM    3  H   UNL     1       7.089  26.377  52.428  1.00  0.00     0.278 HD
ENDROOT
BRANCH   1   4
HETATM    4  C   UNL     1       6.028  25.460  53.973  1.00  0.00     0.216 C 
HETATM    5  C   UNL     1       4.777  25.343  53.103  1.00  0.00     0.045 C 
BRANCH   4   6
HETATM    6  C   UNL     1       6.760  24.144  54.076  1.00  0.00    -0.009 A 
HETATM    7  C   UNL     1       7.117  23.448  52.925  1.00  0.00     0.126 A 
HETATM    8  N   UNL     1       7.758  22.267  52.890  1.00  0.00    -0.259 NA
HETATM    9  C   UNL     1       8.096  21.730  54.091  1.00  0.00     0.074 A 
HETATM   10  C   UNL     1       7.788  22.349  55.301  1.00  0.00     0.034 A 
HETATM   11  C   UNL     1       8.792  20.501  54.282  1.00  0.00     0.040 A 
HETATM   12  S   UNL     1       8.348  21.421  56.635  1.00  0.00    -0.100 SA
HETATM   13  C   UNL     1       7.106  23.576  55.311  1.00  0.00     0.032 A 
HETATM   14  C   UNL     1       8.996  20.215  55.613  1.00  0.00     0.053 A 
ENDBRANCH   4   6
ENDBRANCH   1   4
BRANCH   1  15
HETATM   15  C   UNL     1       6.530  27.940  53.658  1.00  0.00     0.271 C 
BRANCH  15  16
HETATM   16  C   UNL     1       6.897  28.397  55.042  1.00  0.00    -0.033 A 
HETATM   17  C   UNL     1       8.228  28.689  55.371  1.00  0.00     0.011 A 
HETATM   18  C   UNL     1       8.574  29.098  56.667  1.00  0.00     0.030 A 
HETATM   19  C   UNL     1       7.602  29.231  57.657  1.00  0.00     0.036 A 
HETATM   20  C   UNL     1       6.272  28.951  57.322  1.00  0.00     0.030 A 
HETATM   21  C   UNL     1       5.919  28.533  56.033  1.00  0.00     0.011 A 
BRANCH  19  22
HETATM   22  N   UNL     1       7.846  29.643  58.976  1.00  0.00    -0.303 N 
HETATM   23  C   UNL     1       7.759  30.860  59.599  1.00  0.00     0.364 C 
HETATM   24  O   UNL     1       8.003  30.954  60.797  1.00  0.00    -0.238 OA
HETATM   25  H   UNL     1       8.155  28.937  59.635  1.00  0.00     0.171 HD
BRANCH  23  26
HETATM   26  O   UNL     1       7.421  31.906  58.805  1.00  0.00    -0.309 OA
HETATM   27  C   UNL     1       6.094  32.393  59.017  1.00  0.00     0.215 C 
ENDBRANCH  23  26
ENDBRANCH  19  22
ENDBRANCH  15  16
ENDBRANCH   1  15
TORSDOF 6
ENDMDL
MODEL 6
REMARK VINA RESULT:      -7.8      5.064      7.738
REMARK  6 active torsions:
REMARK  status: ('A' for Active; 'I' for Inactive)
REMARK    1  A    between atoms: C_2  and  N_3 
REMARK    2  A    between atoms: C_2  and  C_18 
REMARK    3  A    between atoms: N_3  and  C_6 
REMARK    4  A    between atoms: C_6  and  C_7 
REMARK    5  A    between atoms: C_10  and  N_11 
REMARK       I    between atoms: N_11  and  C_12 
REMARK    6  A    between atoms: C_12  and  O_13 
ROOT
HETATM    1  N   UNL     1       7.314  27.817  55.086  1.00  0.00    -0.063 N 
HETATM    2  H   UNL     1       8.167  28.359  54.892  1.00  0.00     0.278 HD
HETATM    3  H   UNL     1       7.636  27.012  55.634  1.00  0.00     0.278 HD
ENDROOT
BRANCH   1   4
HETATM    4  C   UNL     1       6.394  28.666  55.915  1.00  0.00     0.216 C 
HETATM    5  C   UNL     1       5.356  27.791  56.615  1.00  0.00     0.045 C 
BRANCH   4   6
HETATM    6  C   UNL     1       7.186  29.490  56.902  1.00  0.00    -0.009 A 
HETATM    7  C   UNL     1       8.577  29.447  56.895  1.00  0.00     0.126 A 
HETATM    8  N   UNL     1       9.386  30.123  57.728  1.00  0.00    -0.259 NA
HETATM    9  C   UNL     1       8.777  30.929  58.636  1.00  0.00     0.074 A 
HETATM   10  C   UNL     1       7.391  31.047  58.722  1.00  0.00     0.034 A 
HETATM   11  C   UNL     1       9.442  31.745  59.596  1.00  0.00     0.040 A 
HETATM   12  S   UNL     1       6.935  32.139  59.967  1.00  0.00    -0.100 SA
HETATM   13  C   UNL     1       6.567  30.318  57.849  1.00  0.00     0.032 A 
HETATM   14  C   UNL     1       8.562  32.455  60.381  1.00  0.00     0.053 A 
ENDBRANCH   4   6
ENDBRANCH   1   4
BRANCH   1  15
HETATM   15  C   UNL     1       6.788  27.330  53.778  1.00  0.00     0.271 C 
BRANCH  15  16
HETATM   16  C   UNL     1       7.093  25.873  53.578  1.00  0.00    -0.033 A 
HETATM   17  C   UNL     1       7.715  25.425  52.405  1.00  0.00     0.011 A 
HETATM   18  C   UNL     1       7.984  24.063  52.209  1.00  0.00     0.030 A 
HETATM   19  C   UNL     1       7.647  23.122  53.180  1.00  0.00     0.036 A 
HETATM   20  C   UNL     1       7.037  23.574  54.357  1.00  0.00     0.030 A 
HETATM   21  C   UNL     1       6.757  24.931  54.556  1.00  0.00     0.011 A 
BRANCH  19  22
HETATM   22  N   UNL     1       7.883  21.742  53.083  1.00  0.00    -0.303 N 
HETATM   23  C   UNL     1       8.612  20.870  53.849  1.00  0.00     0.364 C 
HETATM   24  O   UNL     1       8.637  19.678  53.563  1.00  0.00    -0.238 OA
HETATM   25  H   UNL     1       7.457  21.249  52.307  1.00  0.00     0.171 HD
BRANCH  23  26
HETATM   26  O   UNL     1       9.292  21.421  54.884  1.00  0.00    -0.309 OA
HETATM   27  C   UNL     1       9.053  20.784  56.142  1.00  0.00     0.215 C 
ENDBRANCH  23  26
ENDBRANCH  19  22
ENDBRANCH  15  16
ENDBRANCH   1  15
TORSDOF 6
ENDMDL
MODEL 7
REMARK VINA RESULT:      -7.6      8.965     11.948
REMARK  6 active torsions:
REMARK  status: ('A' for Active; 'I' for Inactive)
REMARK    1  A    between atoms: C_2  and  N_3 
REMARK    2  A    between atoms: C_2  and  C_18 
REMARK    3  A    between atoms: N_3  and  C_6 
REMARK    4  A    between atoms: C_6  and  C_7 
REMARK    5  A    between atoms: C_10  and  N_11 
REMARK       I    between atoms: N_11  and  C_12 
REMARK    6  A    between atoms: C_12  and  O_13 
ROOT
HETATM    1  N   UNL     1       7.914  30.677  60.704  1.00  0.00    -0.063 N 
HETATM    2  H   UNL     1       6.903  30.679  60.896  1.00  0.00     0.278 HD
HETATM    3  H   UNL     1       8.191  29.692  60.778  1.00  0.00     0.278 HD
ENDROOT
BRANCH   1   4
HETATM    4  C   UNL     1       8.129  31.166  59.301  1.00  0.00     0.216 C 
HETATM    5  C   UNL     1       9.528  31.763  59.158  1.00  0.00     0.045 C 
BRANCH   4   6
HETATM    6  C   UNL     1       7.896  30.048  58.314  1.00  0.00    -0.009 A 
HETATM    7  C   UNL     1       8.974  29.339  57.791  1.00  0.00     0.126 A 
HETATM    8  N   UNL     1       8.894  28.335  56.901  1.00  0.00    -0.259 NA
HETATM    9  C   UNL     1       7.644  27.983  56.502  1.00  0.00     0.074 A 
HETATM   10  C   UNL     1       6.499  28.627  56.969  1.00  0.00     0.034 A 
HETATM   11  C   UNL     1       7.331  26.940  55.583  1.00  0.00     0.040 A 
HETATM   12  S   UNL     1       5.079  27.951  56.278  1.00  0.00    -0.100 SA
HETATM   13  C   UNL     1       6.611  29.682  57.889  1.00  0.00     0.032 A 
HETATM   14  C   UNL     1       5.977  26.813  55.374  1.00  0.00     0.053 A 
ENDBRANCH   4   6
ENDBRANCH   1   4
BRANCH   1  15
HETATM   15  C   UNL     1       8.577  31.448  61.796  1.00  0.00     0.271 C 
BRANCH  15  16
HETATM   16  C   UNL     1       7.564  32.034  62.739  1.00  0.00    -0.033 A 
HETATM   17  C   UNL     1       7.966  32.838  63.813  1.00  0.00     0.011 A 
HETATM   18  C   UNL     1       7.024  33.371  64.705  1.00  0.00     0.030 A 
HETATM   19  C   UNL     1       5.663  33.118  64.540  1.00  0.00     0.036 A 
HETATM   20  C   UNL     1       5.263  32.323  63.458  1.00  0.00     0.030 A 
HETATM   21  C   UNL     1       6.198  31.781  62.569  1.00  0.00     0.011 A 
BRANCH  19  22
HETATM   22  N   UNL     1       4.644  33.612  65.369  1.00  0.00    -0.303 N 
HETATM   23  C   UNL     1       3.864  34.736  65.310  1.00  0.00     0.364 C 
HETATM   24  O   UNL     1       3.003  34.930  66.162  1.00  0.00    -0.238 OA
HETATM   25  H   UNL     1       4.406  33.067  66.190  1.00  0.00     0.171 HD
BRANCH  23  26
HETATM   26  O   UNL     1       4.133  35.588  64.290  1.00  0.00    -0.309 OA
HETATM   27  C   UNL     1       4.783  36.795  64.696  1.00  0.00     0.215 C 
ENDBRANCH  23  26
ENDBRANCH  19  22
ENDBRANCH  15  16
ENDBRANCH   1  15
TORSDOF 6
ENDMDL
MODEL 8
REMARK VINA RESULT:      -7.6     12.962     15.668
REMARK  6 active torsions:
REMARK  status: ('A' for Active; 'I' for Inactive)
REMARK    1  A    between atoms: C_2  and  N_3 
REMARK    2  A    between atoms: C_2  and  C_18 
REMARK    3  A    between atoms: N_3  and  C_6 
REMARK    4  A    between atoms: C_6  and  C_7 
REMARK    5  A    between atoms: C_10  and  N_11 
REMARK       I    between atoms: N_11  and  C_12 
REMARK    6  A    between atoms: C_12  and  O_13 
ROOT
HETATM    1  N   UNL     1       6.259  34.596  66.317  1.00  0.00    -0.063 N 
HETATM    2  H   UNL     1       6.839  35.309  65.855  1.00  0.00     0.278 HD
HETATM    3  H   UNL     1       6.919  33.858  66.585  1.00  0.00     0.278 HD
ENDROOT
BRANCH   1   4
HETATM    4  C   UNL     1       5.647  35.208  67.543  1.00  0.00     0.216 C 
HETATM    5  C   UNL     1       4.162  34.858  67.623  1.00  0.00     0.045 C 
BRANCH   4   6
HETATM    6  C   UNL     1       6.391  34.764  68.779  1.00  0.00    -0.009 A 
HETATM    7  C   UNL     1       7.339  35.598  69.364  1.00  0.00     0.126 A 
HETATM    8  N   UNL     1       8.071  35.310  70.455  1.00  0.00    -0.259 NA
HETATM    9  C   UNL     1       7.837  34.104  71.034  1.00  0.00     0.074 A 
HETATM   10  C   UNL     1       6.906  33.198  70.529  1.00  0.00     0.034 A 
HETATM   11  C   UNL     1       8.484  33.608  72.203  1.00  0.00     0.040 A 
HETATM   12  S   UNL     1       6.845  31.771  71.483  1.00  0.00    -0.100 SA
HETATM   13  C   UNL     1       6.165  33.518  69.380  1.00  0.00     0.032 A 
HETATM   14  C   UNL     1       8.039  32.354  72.557  1.00  0.00     0.053 A 
ENDBRANCH   4   6
ENDBRANCH   1   4
BRANCH   1  15
HETATM   15  C   UNL     1       5.320  34.054  65.292  1.00  0.00     0.271 C 
BRANCH  15  16
HETATM   16  C   UNL     1       6.038  33.174  64.308  1.00  0.00    -0.033 A 
HETATM   17  C   UNL     1       7.437  33.174  64.236  1.00  0.00     0.011 A 
HETATM   18  C   UNL     1       8.108  32.367  63.305  1.00  0.00     0.030 A 
HETATM   19  C   UNL     1       7.399  31.541  62.435  1.00  0.00     0.036 A 
HETATM   20  C   UNL     1       6.001  31.535  62.518  1.00  0.00     0.030 A 
HETATM   21  C   UNL     1       5.324  32.344  63.437  1.00  0.00     0.011 A 
BRANCH  19  22
HETATM   22  N   UNL     1       7.977  30.692  61.478  1.00  0.00    -0.303 N 
HETATM   23  C   UNL     1       8.187  30.821  60.130  1.00  0.00     0.364 C 
HETATM   24  O   UNL     1       8.753  29.927  59.510  1.00  0.00    -0.238 OA
HETATM   25  H   UNL     1       8.317  29.792  61.797  1.00  0.00     0.171 HD
BRANCH  23  26
HETATM   26  O   UNL     1       7.712  31.959  59.565  1.00  0.00    -0.309 OA
HETATM   27  C   UNL     1       6.542  31.767  58.767  1.00  0.00     0.215 C 
ENDBRANCH  23  26
ENDBRANCH  19  22
ENDBRANCH  15  16
ENDBRANCH   1  15
TORSDOF 6
ENDMDL
MODEL 9
REMARK VINA RESULT:      -7.4      3.991      5.919
REMARK  6 active torsions:
REMARK  status: ('A' for Active; 'I' for Inactive)
REMARK    1  A    between atoms: C_2  and  N_3 
REMARK    2  A    between atoms: C_2  and  C_18 
REMARK    3  A    between atoms: N_3  and  C_6 
REMARK    4  A    between atoms: C_6  and  C_7 
REMARK    5  A    between atoms: C_10  and  N_11 
REMARK       I    between atoms: N_11  and  C_12 
REMARK    6  A    between atoms: C_12  and  O_13 
ROOT
HETATM    1  N   UNL     1       7.042  26.431  53.239  1.00  0.00    -0.063 N 
HETATM    2  H   UNL     1       7.792  25.827  52.876  1.00  0.00     0.278 HD
HETATM    3  H   UNL     1       6.574  26.795  52.402  1.00  0.00     0.278 HD
ENDROOT
BRANCH   1   4
HETATM    4  C   UNL     1       6.092  25.580  54.029  1.00  0.00     0.216 C 
HETATM    5  C   UNL     1       4.851  25.261  53.196  1.00  0.00     0.045 C 
BRANCH   4   6
HETATM    6  C   UNL     1       6.782  24.323  54.503  1.00  0.00    -0.009 A 
HETATM    7  C   UNL     1       7.137  24.180  55.841  1.00  0.00     0.126 A 
HETATM    8  N   UNL     1       7.762  23.118  56.377  1.00  0.00    -0.259 NA
HETATM    9  C   UNL     1       8.046  22.096  55.529  1.00  0.00     0.074 A 
HETATM   10  C   UNL     1       7.729  22.139  54.172  1.00  0.00     0.034 A 
HETATM   11  C   UNL     1       8.685  20.875  55.889  1.00  0.00     0.040 A 
HETATM   12  S   UNL     1       8.217  20.698  53.373  1.00  0.00    -0.100 SA
HETATM   13  C   UNL     1       7.088  23.266  53.634  1.00  0.00     0.032 A 
HETATM   14  C   UNL     1       8.838  20.026  54.816  1.00  0.00     0.053 A 
ENDBRANCH   4   6
ENDBRANCH   1   4
BRANCH   1  15
HETATM   15  C   UNL     1       7.692  27.564  53.959  1.00  0.00     0.271 C 
BRANCH  15  16
HETATM   16  C   UNL     1       6.789  28.121  55.023  1.00  0.00    -0.033 A 
HETATM   17  C   UNL     1       7.117  27.996  56.379  1.00  0.00     0.011 A 
HETATM   18  C   UNL     1       6.265  28.499  57.374  1.00  0.00     0.030 A 
HETATM   19  C   UNL     1       5.076  29.142  57.037  1.00  0.00     0.036 A 
HETATM   20  C   UNL     1       4.757  29.277  55.679  1.00  0.00     0.030 A 
HETATM   21  C   UNL     1       5.597  28.770  54.682  1.00  0.00     0.011 A 
BRANCH  19  22
HETATM   22  N   UNL     1       4.165  29.687  57.955  1.00  0.00    -0.303 N 
HETATM   23  C   UNL     1       3.953  30.964  58.403  1.00  0.00     0.364 C 
HETATM   24  O   UNL     1       3.053  31.190  59.206  1.00  0.00    -0.238 OA
HETATM   25  H   UNL     1       3.520  29.049  58.406  1.00  0.00     0.171 HD
BRANCH  23  26
HETATM   26  O   UNL     1       4.803  31.906  57.925  1.00  0.00    -0.309 OA
HETATM   27  C   UNL     1       5.891  32.207  58.802  1.00  0.00     0.215 C 
ENDBRANCH  23  26
ENDBRANCH  19  22
ENDBRANCH  15  16
ENDBRANCH   1  15
TORSDOF 6
ENDMDL
MODEL 10
REMARK VINA RESULT:      -7.4     11.571     14.743
REMARK  6 active torsions:
REMARK  status: ('A' for Active; 'I' for Inactive)
REMARK    1  A    between atoms: C_2  and  N_3 
REMARK    2  A    between atoms: C_2  and  C_18 
REMARK    3  A    between atoms: N_3  and  C_6 
REMARK    4  A    between atoms: C_6  and  C_7 
REMARK    5  A    between atoms: C_10  and  N_11 
REMARK       I    between atoms: N_11  and  C_12 
REMARK    6  A    between atoms: C_12  and  O_13 
ROOT
HETATM    1  N   UNL     1       4.326  34.094  65.516  1.00  0.00    -0.063 N 
HETATM    2  H   UNL     1       3.919  33.566  66.299  1.00  0.00     0.278 HD
HETATM    3  H   UNL     1       3.987  33.615  64.675  1.00  0.00     0.278 HD
ENDROOT
BRANCH   1   4
HETATM    4  C   UNL     1       3.787  35.494  65.561  1.00  0.00     0.216 C 
HETATM    5  C   UNL     1       4.354  36.240  66.769  1.00  0.00     0.045 C 
BRANCH   4   6
HETATM    6  C   UNL     1       4.089  36.216  64.270  1.00  0.00    -0.009 A 
HETATM    7  C   UNL     1       3.396  35.892  63.107  1.00  0.00     0.126 A 
HETATM    8  N   UNL     1       3.583  36.454  61.900  1.00  0.00    -0.259 NA
HETATM    9  C   UNL     1       4.521  37.435  61.833  1.00  0.00     0.074 A 
HETATM   10  C   UNL     1       5.266  37.836  62.940  1.00  0.00     0.034 A 
HETATM   11  C   UNL     1       4.865  38.172  60.663  1.00  0.00     0.040 A 
HETATM   12  S   UNL     1       6.363  39.092  62.529  1.00  0.00    -0.100 SA
HETATM   13  C   UNL     1       5.061  37.223  64.187  1.00  0.00     0.032 A 
HETATM   14  C   UNL     1       5.849  39.105  60.900  1.00  0.00     0.053 A 
ENDBRANCH   4   6
ENDBRANCH   1   4
BRANCH   1  15
HETATM   15  C   UNL     1       5.807  33.938  65.596  1.00  0.00     0.271 C 
BRANCH  15  16
HETATM   16  C   UNL     1       6.332  33.133  64.441  1.00  0.00    -0.033 A 
HETATM   17  C   UNL     1       7.707  33.065  64.180  1.00  0.00     0.011 A 
HETATM   18  C   UNL     1       8.196  32.329  63.091  1.00  0.00     0.030 A 
HETATM   19  C   UNL     1       7.327  31.641  62.246  1.00  0.00     0.036 A 
HETATM   20  C   UNL     1       5.954  31.701  62.517  1.00  0.00     0.030 A 
HETATM   21  C   UNL     1       5.457  32.441  63.596  1.00  0.00     0.011 A 
BRANCH  19  22
HETATM   22  N   UNL     1       7.718  30.871  61.140  1.00  0.00    -0.303 N 
HETATM   23  C   UNL     1       7.758  31.132  59.796  1.00  0.00     0.364 C 
HETATM   24  O   UNL     1       8.178  30.281  59.019  1.00  0.00    -0.238 OA
HETATM   25  H   UNL     1       8.037  29.925  61.320  1.00  0.00     0.171 HD
BRANCH  23  26
HETATM   26  O   UNL     1       7.289  32.346  59.417  1.00  0.00    -0.309 OA
HETATM   27  C   UNL     1       6.004  32.304  58.791  1.00  0.00     0.215 C 
ENDBRANCH  23  26
ENDBRANCH  19  22
ENDBRANCH  15  16
ENDBRANCH   1  15
TORSDOF 6
ENDMDL
