MODEL 1
REMARK VINA RESULT:      -9.3      0.000      0.000
REMARK  5 active torsions:
REMARK  status: ('A' for Active; 'I' for Inactive)
REMARK    1  A    between atoms: C_3  and  O_4 
REMARK    2  A    between atoms: O_4  and  C_5 
REMARK    3  A    between atoms: C_5  and  C_6 
REMARK       I    between atoms: C_6  and  N_7 
REMARK    4  A    between atoms: N_7  and  N_8 
REMARK    5  A    between atoms: C_9  and  C_10 
ROOT
HETATM    1  C   UNL     1       7.890  25.753  57.325  1.00  0.00     0.261 C 
HETATM    2  N   UNL     1       7.484  26.884  56.624  1.00  0.00    -0.246 N 
HETATM    3  O   UNL     1       7.981  25.660  58.549  1.00  0.00    -0.269 OA
HETATM    4  H   UNL     1       7.195  26.736  55.657  1.00  0.00     0.192 HD
ENDROOT
BRANCH   2   5
HETATM    5  N   UNL     1       7.007  28.045  57.192  1.00  0.00    -0.184 NA
HETATM    6  C   UNL     1       7.875  28.881  57.672  1.00  0.00     0.152 C 
BRANCH   6   7
HETATM    7  C   UNL     1       7.431  30.096  58.327  1.00  0.00     0.011 A 
HETATM    8  C   UNL     1       8.001  30.687  59.502  1.00  0.00     0.004 A 
HETATM    9  C   UNL     1       7.275  31.846  59.782  1.00  0.00     0.043 A 
HETATM   10  C   UNL     1       9.066  30.339  60.360  1.00  0.00     0.014 A 
HETATM   11  C   UNL     1       7.567  32.678  60.870  1.00  0.00     0.030 A 
HETATM   12  N   UNL     1       6.298  31.953  58.819  1.00  0.00    -0.364 N 
HETATM   13  C   UNL     1       8.629  32.311  61.702  1.00  0.00     0.002 A 
HETATM   14  C   UNL     1       9.369  31.158  61.453  1.00  0.00     0.001 A 
HETATM   15  H   UNL     1       5.617  32.699  58.775  1.00  0.00     0.165 HD
HETATM   16  C   UNL     1       6.379  30.906  57.942  1.00  0.00     0.102 A 
ENDBRANCH   6   7
ENDBRANCH   2   5
BRANCH   1  17
HETATM   17  C   UNL     1       8.301  24.597  56.421  1.00  0.00     0.280 C 
BRANCH  17  18
HETATM   18  O   UNL     1       7.238  23.661  56.220  1.00  0.00    -0.341 OA
BRANCH  18  19
HETATM   19  C   UNL     1       7.597  22.773  55.233  1.00  0.00     0.081 A 
HETATM   20  C   UNL     1       7.378  23.092  53.882  1.00  0.00    -0.028 A 
HETATM   21  C   UNL     1       6.733  24.379  53.457  1.00  0.00     0.051 C 
HETATM   22  C   UNL     1       7.816  22.191  52.902  1.00  0.00     0.009 A 
HETATM   23  C   UNL     1       8.402  20.977  53.262  1.00  0.00     0.001 A 
HETATM   24  C   UNL     1       8.553  20.645  54.607  1.00  0.00     0.009 A 
HETATM   25  C   UNL     1       8.153  21.538  55.611  1.00  0.00    -0.028 A 
HETATM   26  C   UNL     1       8.276  21.137  57.054  1.00  0.00     0.051 C 
ENDBRANCH  18  19
ENDBRANCH  17  18
ENDBRANCH   1  17
TORSDOF 5
ENDMDL
MODEL 2
REMARK VINA RESULT:      -9.2      0.093      1.773
REMARK  5 active torsions:
REMARK  status: ('A' for Active; 'I' for Inactive)
REMARK    1  A    between atoms: C_3  and  O_4 
REMARK    2  A    between atoms: O_4  and  C_5 
REMARK    3  A    between atoms: C_5  and  C_6 
REMARK       I    between atoms: C_6  and  N_7 
REMARK    4  A    between atoms: N_7  and  N_8 
REMARK    5  A    between atoms: C_9  and  C_10 
ROOT
HETATM    1  C   UNL     1       7.857  25.750  57.317  1.00  0.00     0.261 C 
HETATM    2  N   UNL     1       7.431  26.894  56.651  1.00  0.00    -0.246 N 
HETATM    3  O   UNL     1       7.973  25.628  58.537  1.00  0.00    -0.269 OA
HETATM    4  H   UNL     1       7.123  26.768  55.687  1.00  0.00     0.192 HD
ENDROOT
BRANCH   2   5
HETATM    5  N   UNL     1       6.960  28.040  57.256  1.00  0.00    -0.184 NA
HETATM    6  C   UNL     1       7.829  28.934  57.611  1.00  0.00     0.152 C 
BRANCH   6   7
HETATM    7  C   UNL     1       7.398  30.137  58.297  1.00  0.00     0.011 A 
HETATM    8  C   UNL     1       7.984  30.700  59.477  1.00  0.00     0.004 A 
HETATM    9  C   UNL     1       7.266  31.856  59.790  1.00  0.00     0.043 A 
HETATM   10  C   UNL     1       9.057  30.328  60.316  1.00  0.00     0.014 A 
HETATM   11  C   UNL     1       7.574  32.662  60.894  1.00  0.00     0.030 A 
HETATM   12  N   UNL     1       6.280  31.988  58.841  1.00  0.00    -0.364 N 
HETATM   13  C   UNL     1       8.644  32.272  61.705  1.00  0.00     0.002 A 
HETATM   14  C   UNL     1       9.376  31.123  61.423  1.00  0.00     0.001 A 
HETATM   15  H   UNL     1       5.602  32.738  58.821  1.00  0.00     0.165 HD
HETATM   16  C   UNL     1       6.346  30.959  57.941  1.00  0.00     0.102 A 
ENDBRANCH   6   7
ENDBRANCH   2   5
BRANCH   1  17
HETATM   17  C   UNL     1       8.255  24.617  56.378  1.00  0.00     0.280 C 
BRANCH  17  18
HETATM   18  O   UNL     1       7.182  23.699  56.149  1.00  0.00    -0.341 OA
BRANCH  18  19
HETATM   19  C   UNL     1       7.576  22.764  55.222  1.00  0.00     0.081 A 
HETATM   20  C   UNL     1       8.109  21.533  55.643  1.00  0.00    -0.028 A 
HETATM   21  C   UNL     1       8.293  21.195  57.093  1.00  0.00     0.051 C 
HETATM   22  C   UNL     1       8.439  20.579  54.671  1.00  0.00     0.009 A 
HETATM   23  C   UNL     1       8.299  20.868  53.314  1.00  0.00     0.001 A 
HETATM   24  C   UNL     1       7.831  22.117  52.909  1.00  0.00     0.009 A 
HETATM   25  C   UNL     1       7.463  23.081  53.857  1.00  0.00    -0.028 A 
HETATM   26  C   UNL     1       7.012  24.439  53.398  1.00  0.00     0.051 C 
ENDBRANCH  18  19
ENDBRANCH  17  18
ENDBRANCH   1  17
TORSDOF 5
ENDMDL
MODEL 3
REMARK VINA RESULT:      -9.1      2.234      9.423
REMARK  5 active torsions:
REMARK  status: ('A' for Active; 'I' for Inactive)
REMARK    1  A    between atoms: C_3  and  O_4 
REMARK    2  A    between atoms: O_4  and  C_5 
REMARK    3  A    between atoms: C_5  and  C_6 
REMARK       I    between atoms: C_6  and  N_7 
REMARK    4  A    between atoms: N_7  and  N_8 
REMARK    5  A    between atoms: C_9  and  C_10 
ROOT
HETATM    1  C   UNL     1       6.978  29.818  57.501  1.00  0.00     0.261 C 
HETATM    2  N   UNL     1       7.443  28.725  58.224  1.00  0.00    -0.246 N 
HETATM    3  O   UNL     1       7.121  29.996  56.291  1.00  0.00    -0.269 OA
HETATM    4  H   UNL     1       7.023  28.577  59.141  1.00  0.00     0.192 HD
ENDROOT
BRANCH   2   5
HETATM    5  N   UNL     1       8.040  27.607  57.681  1.00  0.00    -0.184 NA
HETATM    6  C   UNL     1       7.266  26.671  57.228  1.00  0.00     0.152 C 
BRANCH   6   7
HETATM    7  C   UNL     1       7.836  25.450  56.691  1.00  0.00     0.011 A 
HETATM    8  C   UNL     1       7.626  24.919  55.376  1.00  0.00     0.004 A 
HETATM    9  C   UNL     1       8.366  23.740  55.278  1.00  0.00     0.043 A 
HETATM   10  C   UNL     1       6.866  25.330  54.259  1.00  0.00     0.014 A 
HETATM   11  C   UNL     1       8.391  22.956  54.117  1.00  0.00     0.030 A 
HETATM   12  N   UNL     1       8.997  23.557  56.486  1.00  0.00    -0.364 N 
HETATM   13  C   UNL     1       7.633  23.389  53.025  1.00  0.00     0.002 A 
HETATM   14  C   UNL     1       6.880  24.557  53.093  1.00  0.00     0.001 A 
HETATM   15  H   UNL     1       9.601  22.776  56.705  1.00  0.00     0.165 HD
HETATM   16  C   UNL     1       8.683  24.576  57.344  1.00  0.00     0.102 A 
ENDBRANCH   6   7
ENDBRANCH   2   5
BRANCH   1  17
HETATM   17  C   UNL     1       6.300  30.872  58.369  1.00  0.00     0.280 C 
BRANCH  17  18
HETATM   18  O   UNL     1       7.086  32.060  58.494  1.00  0.00    -0.341 OA
BRANCH  18  19
HETATM   19  C   UNL     1       7.625  32.116  59.758  1.00  0.00     0.081 A 
HETATM   20  C   UNL     1       6.818  32.463  60.855  1.00  0.00    -0.028 A 
HETATM   21  C   UNL     1       5.365  32.806  60.704  1.00  0.00     0.051 C 
HETATM   22  C   UNL     1       7.387  32.446  62.136  1.00  0.00     0.009 A 
HETATM   23  C   UNL     1       8.738  32.150  62.311  1.00  0.00     0.001 A 
HETATM   24  C   UNL     1       9.542  31.872  61.206  1.00  0.00     0.009 A 
HETATM   25  C   UNL     1       8.997  31.851  59.916  1.00  0.00    -0.028 A 
HETATM   26  C   UNL     1       9.892  31.602  58.735  1.00  0.00     0.051 C 
ENDBRANCH  18  19
ENDBRANCH  17  18
ENDBRANCH   1  17
TORSDOF 5
ENDMDL
MODEL 4
REMARK VINA RESULT:      -8.8      1.668      2.002
REMARK  5 active torsions:
REMARK  status: ('A' for Active; 'I' for Inactive)
REMARK    1  A    between atoms: C_3  and  O_4 
REMARK    2  A    between atoms: O_4  and  C_5 
REMARK    3  A    between atoms: C_5  and  C_6 
REMARK       I    between atoms: C_6  and  N_7 
REMARK    4  A    between atoms: N_7  and  N_8 
REMARK    5  A    between atoms: C_9  and  C_10 
ROOT
HETATM    1  C   UNL     1       7.022  25.880  56.594  1.00  0.00     0.261 C 
HETATM    2  N   UNL     1       8.313  26.357  56.795  1.00  0.00    -0.246 N 
HETATM    3  O   UNL     1       5.996  26.342  57.094  1.00  0.00    -0.269 OA
HETATM    4  H   UNL     1       9.015  26.062  56.118  1.00  0.00     0.192 HD
ENDROOT
BRANCH   2   5
HETATM    5  N   UNL     1       8.639  27.497  57.497  1.00  0.00    -0.184 NA
HETATM    6  C   UNL     1       9.143  28.491  56.834  1.00  0.00     0.152 C 
BRANCH   6   7
HETATM    7  C   UNL     1       9.552  29.697  57.526  1.00  0.00     0.011 A 
HETATM    8  C   UNL     1       8.753  30.473  58.428  1.00  0.00     0.004 A 
HETATM    9  C   UNL     1       9.537  31.540  58.870  1.00  0.00     0.043 A 
HETATM   10  C   UNL     1       7.429  30.369  58.907  1.00  0.00     0.014 A 
HETATM   11  C   UNL     1       9.066  32.503  59.772  1.00  0.00     0.030 A 
HETATM   12  N   UNL     1      10.762  31.422  58.257  1.00  0.00    -0.364 N 
HETATM   13  C   UNL     1       7.751  32.374  60.232  1.00  0.00     0.002 A 
HETATM   14  C   UNL     1       6.942  31.325  59.807  1.00  0.00     0.001 A 
HETATM   15  H   UNL     1      11.532  32.064  58.388  1.00  0.00     0.165 HD
HETATM   16  C   UNL     1      10.782  30.321  57.444  1.00  0.00     0.102 A 
ENDBRANCH   6   7
ENDBRANCH   2   5
BRANCH   1  17
HETATM   17  C   UNL     1       6.969  24.635  55.715  1.00  0.00     0.280 C 
BRANCH  17  18
HETATM   18  O   UNL     1       8.260  24.051  55.522  1.00  0.00    -0.341 OA
BRANCH  18  19
HETATM   19  C   UNL     1       8.126  22.878  54.817  1.00  0.00     0.081 A 
HETATM   20  C   UNL     1       7.950  22.909  53.423  1.00  0.00    -0.028 A 
HETATM   21  C   UNL     1       7.877  24.195  52.653  1.00  0.00     0.051 C 
HETATM   22  C   UNL     1       7.882  21.693  52.730  1.00  0.00     0.009 A 
HETATM   23  C   UNL     1       7.928  20.479  53.416  1.00  0.00     0.001 A 
HETATM   24  C   UNL     1       8.036  20.464  54.806  1.00  0.00     0.009 A 
HETATM   25  C   UNL     1       8.137  21.663  55.524  1.00  0.00    -0.028 A 
HETATM   26  C   UNL     1       8.199  21.626  57.025  1.00  0.00     0.051 C 
ENDBRANCH  18  19
ENDBRANCH  17  18
ENDBRANCH   1  17
TORSDOF 5
ENDMDL
MODEL 5
REMARK VINA RESULT:      -8.7      5.717      9.009
REMARK  5 active torsions:
REMARK  status: ('A' for Active; 'I' for Inactive)
REMARK    1  A    between atoms: C_3  and  O_4 
REMARK    2  A    between atoms: O_4  and  C_5 
REMARK    3  A    between atoms: C_5  and  C_6 
REMARK       I    between atoms: C_6  and  N_7 
REMARK    4  A    between atoms: N_7  and  N_8 
REMARK    5  A    between atoms: C_9  and  C_10 
ROOT
HETATM    1  C   UNL     1       7.191  24.961  52.288  1.00  0.00     0.261 C 
HETATM    2  N   UNL     1       5.945  25.294  51.767  1.00  0.00    -0.246 N 
HETATM    3  O   UNL     1       8.247  25.555  52.067  1.00  0.00    -0.269 OA
HETATM    4  H   UNL     1       5.136  24.896  52.242  1.00  0.00     0.192 HD
ENDROOT
BRANCH   2   5
HETATM    5  N   UNL     1       5.672  26.412  51.008  1.00  0.00    -0.184 NA
HETATM    6  C   UNL     1       4.821  26.289  50.038  1.00  0.00     0.152 C 
BRANCH   6   7
HETATM    7  C   UNL     1       4.531  27.418  49.175  1.00  0.00     0.011 A 
HETATM    8  C   UNL     1       3.333  27.624  48.417  1.00  0.00     0.004 A 
HETATM    9  C   UNL     1       3.471  28.835  47.737  1.00  0.00     0.043 A 
HETATM   10  C   UNL     1       2.142  26.886  48.240  1.00  0.00     0.014 A 
HETATM   11  C   UNL     1       2.475  29.349  46.897  1.00  0.00     0.030 A 
HETATM   12  N   UNL     1       4.706  29.343  48.065  1.00  0.00    -0.364 N 
HETATM   13  C   UNL     1       1.304  28.600  46.742  1.00  0.00     0.002 A 
HETATM   14  C   UNL     1       1.139  27.385  47.402  1.00  0.00     0.001 A 
HETATM   15  H   UNL     1       5.079  30.215  47.712  1.00  0.00     0.165 HD
HETATM   16  C   UNL     1       5.354  28.499  48.925  1.00  0.00     0.102 A 
ENDBRANCH   6   7
ENDBRANCH   2   5
BRANCH   1  17
HETATM   17  C   UNL     1       7.170  23.702  53.147  1.00  0.00     0.280 C 
BRANCH  17  18
HETATM   18  O   UNL     1       8.485  23.210  53.422  1.00  0.00    -0.341 OA
BRANCH  18  19
HETATM   19  C   UNL     1       8.424  22.310  54.460  1.00  0.00     0.081 A 
HETATM   20  C   UNL     1       8.486  22.762  55.789  1.00  0.00    -0.028 A 
HETATM   21  C   UNL     1       8.642  24.214  56.136  1.00  0.00     0.051 C 
HETATM   22  C   UNL     1       8.356  21.823  56.822  1.00  0.00     0.009 A 
HETATM   23  C   UNL     1       8.228  20.464  56.536  1.00  0.00     0.001 A 
HETATM   24  C   UNL     1       8.235  20.023  55.213  1.00  0.00     0.009 A 
HETATM   25  C   UNL     1       8.333  20.940  54.158  1.00  0.00    -0.028 A 
HETATM   26  C   UNL     1       8.391  20.440  52.742  1.00  0.00     0.051 C 
ENDBRANCH  18  19
ENDBRANCH  17  18
ENDBRANCH   1  17
TORSDOF 5
ENDMDL
MODEL 6
REMARK VINA RESULT:      -8.6      5.171      8.402
REMARK  5 active torsions:
REMARK  status: ('A' for Active; 'I' for Inactive)
REMARK    1  A    between atoms: C_3  and  O_4 
REMARK    2  A    between atoms: O_4  and  C_5 
REMARK    3  A    between atoms: C_5  and  C_6 
REMARK       I    between atoms: C_6  and  N_7 
REMARK    4  A    between atoms: N_7  and  N_8 
REMARK    5  A    between atoms: C_9  and  C_10 
ROOT
HETATM    1  C   UNL     1       5.777  25.576  54.239  1.00  0.00     0.261 C 
HETATM    2  N   UNL     1       6.077  26.829  53.716  1.00  0.00    -0.246 N 
HETATM    3  O   UNL     1       4.831  24.863  53.903  1.00  0.00    -0.269 OA
HETATM    4  H   UNL     1       7.022  27.175  53.884  1.00  0.00     0.192 HD
ENDROOT
BRANCH   2   5
HETATM    5  N   UNL     1       5.431  27.424  52.654  1.00  0.00    -0.184 NA
HETATM    6  C   UNL     1       5.752  27.038  51.459  1.00  0.00     0.152 C 
BRANCH   6   7
HETATM    7  C   UNL     1       5.142  27.663  50.301  1.00  0.00     0.011 A 
HETATM    8  C   UNL     1       4.352  27.010  49.299  1.00  0.00     0.004 A 
HETATM    9  C   UNL     1       3.959  27.982  48.378  1.00  0.00     0.043 A 
HETATM   10  C   UNL     1       3.939  25.677  49.086  1.00  0.00     0.014 A 
HETATM   11  C   UNL     1       3.167  27.689  47.260  1.00  0.00     0.030 A 
HETATM   12  N   UNL     1       4.493  29.178  48.799  1.00  0.00    -0.364 N 
HETATM   13  C   UNL     1       2.770  26.361  47.075  1.00  0.00     0.002 A 
HETATM   14  C   UNL     1       3.150  25.368  47.973  1.00  0.00     0.001 A 
HETATM   15  H   UNL     1       4.374  30.059  48.318  1.00  0.00     0.165 HD
HETATM   16  C   UNL     1       5.209  28.998  49.952  1.00  0.00     0.102 A 
ENDBRANCH   6   7
ENDBRANCH   2   5
BRANCH   1  17
HETATM   17  C   UNL     1       6.711  25.153  55.367  1.00  0.00     0.280 C 
BRANCH  17  18
HETATM   18  O   UNL     1       8.005  24.774  54.887  1.00  0.00    -0.341 OA
BRANCH  18  19
HETATM   19  C   UNL     1       8.004  23.431  54.592  1.00  0.00     0.081 A 
HETATM   20  C   UNL     1       8.132  22.483  55.621  1.00  0.00    -0.028 A 
HETATM   21  C   UNL     1       8.297  22.878  57.059  1.00  0.00     0.051 C 
HETATM   22  C   UNL     1       8.062  21.122  55.290  1.00  0.00     0.009 A 
HETATM   23  C   UNL     1       7.927  20.719  53.961  1.00  0.00     0.001 A 
HETATM   24  C   UNL     1       7.867  21.671  52.944  1.00  0.00     0.009 A 
HETATM   25  C   UNL     1       7.904  23.039  53.246  1.00  0.00    -0.028 A 
HETATM   26  C   UNL     1       7.892  24.046  52.130  1.00  0.00     0.051 C 
ENDBRANCH  18  19
ENDBRANCH  17  18
ENDBRANCH   1  17
TORSDOF 5
ENDMDL
MODEL 7
REMARK VINA RESULT:      -8.6      2.161      9.671
REMARK  5 active torsions:
REMARK  status: ('A' for Active; 'I' for Inactive)
REMARK    1  A    between atoms: C_3  and  O_4 
REMARK    2  A    between atoms: O_4  and  C_5 
REMARK    3  A    between atoms: C_5  and  C_6 
REMARK       I    between atoms: C_6  and  N_7 
REMARK    4  A    between atoms: N_7  and  N_8 
REMARK    5  A    between atoms: C_9  and  C_10 
ROOT
HETATM    1  C   UNL     1       8.675  29.403  57.671  1.00  0.00     0.261 C 
HETATM    2  N   UNL     1       7.811  28.416  57.210  1.00  0.00    -0.246 N 
HETATM    3  O   UNL     1       9.739  29.732  57.145  1.00  0.00    -0.269 OA
HETATM    4  H   UNL     1       6.859  28.441  57.576  1.00  0.00     0.192 HD
ENDROOT
BRANCH   2   5
HETATM    5  N   UNL     1       7.951  27.724  56.026  1.00  0.00    -0.184 NA
HETATM    6  C   UNL     1       7.381  26.563  55.935  1.00  0.00     0.152 C 
BRANCH   6   7
HETATM    7  C   UNL     1       7.535  25.768  54.732  1.00  0.00     0.011 A 
HETATM    8  C   UNL     1       7.636  24.340  54.663  1.00  0.00     0.004 A 
HETATM    9  C   UNL     1       7.763  23.994  53.317  1.00  0.00     0.043 A 
HETATM   10  C   UNL     1       7.638  23.307  55.625  1.00  0.00     0.014 A 
HETATM   11  C   UNL     1       7.884  22.667  52.884  1.00  0.00     0.030 A 
HETATM   12  N   UNL     1       7.746  25.165  52.596  1.00  0.00    -0.364 N 
HETATM   13  C   UNL     1       7.879  21.663  53.858  1.00  0.00     0.002 A 
HETATM   14  C   UNL     1       7.759  21.976  55.209  1.00  0.00     0.001 A 
HETATM   15  H   UNL     1       7.826  25.219  51.589  1.00  0.00     0.165 HD
HETATM   16  C   UNL     1       7.613  26.238  53.435  1.00  0.00     0.102 A 
ENDBRANCH   6   7
ENDBRANCH   2   5
BRANCH   1  17
HETATM   17  C   UNL     1       8.222  30.040  58.979  1.00  0.00     0.280 C 
BRANCH  17  18
HETATM   18  O   UNL     1       8.401  31.459  58.984  1.00  0.00    -0.341 OA
BRANCH  18  19
HETATM   19  C   UNL     1       7.672  32.005  60.014  1.00  0.00     0.081 A 
HETATM   20  C   UNL     1       6.341  32.402  59.804  1.00  0.00    -0.028 A 
HETATM   21  C   UNL     1       5.669  32.277  58.468  1.00  0.00     0.051 C 
HETATM   22  C   UNL     1       5.609  32.894  60.894  1.00  0.00     0.009 A 
HETATM   23  C   UNL     1       6.208  33.042  62.145  1.00  0.00     0.001 A 
HETATM   24  C   UNL     1       7.549  32.705  62.322  1.00  0.00     0.009 A 
HETATM   25  C   UNL     1       8.299  32.182  61.261  1.00  0.00    -0.028 A 
HETATM   26  C   UNL     1       9.757  31.876  61.460  1.00  0.00     0.051 C 
ENDBRANCH  18  19
ENDBRANCH  17  18
ENDBRANCH   1  17
TORSDOF 5
ENDMDL
MODEL 8
REMARK VINA RESULT:      -8.6      1.816      2.267
REMARK  5 active torsions:
REMARK  status: ('A' for Active; 'I' for Inactive)
REMARK    1  A    between atoms: C_3  and  O_4 
REMARK    2  A    between atoms: O_4  and  C_5 
REMARK    3  A    between atoms: C_5  and  C_6 
REMARK       I    between atoms: C_6  and  N_7 
REMARK    4  A    between atoms: N_7  and  N_8 
REMARK    5  A    between atoms: C_9  and  C_10 
ROOT
HETATM    1  C   UNL     1       6.615  28.031  55.469  1.00  0.00     0.261 C 
HETATM    2  N   UNL     1       7.249  28.170  56.699  1.00  0.00    -0.246 N 
HETATM    3  O   UNL     1       5.561  28.574  55.137  1.00  0.00    -0.269 OA
HETATM    4  H   UNL     1       8.230  27.893  56.736  1.00  0.00     0.192 HD
ENDROOT
BRANCH   2   5
HETATM    5  N   UNL     1       6.859  29.030  57.704  1.00  0.00    -0.184 NA
HETATM    6  C   UNL     1       7.444  30.185  57.769  1.00  0.00     0.152 C 
BRANCH   6   7
HETATM    7  C   UNL     1       7.111  31.112  58.833  1.00  0.00     0.011 A 
HETATM    8  C   UNL     1       7.820  31.282  60.067  1.00  0.00     0.004 A 
HETATM    9  C   UNL     1       7.165  32.278  60.792  1.00  0.00     0.043 A 
HETATM   10  C   UNL     1       8.959  30.673  60.638  1.00  0.00     0.014 A 
HETATM   11  C   UNL     1       7.597  32.702  62.056  1.00  0.00     0.030 A 
HETATM   12  N   UNL     1       6.097  32.694  60.033  1.00  0.00    -0.364 N 
HETATM   13  C   UNL     1       8.730  32.085  62.596  1.00  0.00     0.002 A 
HETATM   14  C   UNL     1       9.402  31.085  61.900  1.00  0.00     0.001 A 
HETATM   15  H   UNL     1       5.438  33.409  60.314  1.00  0.00     0.165 HD
HETATM   16  C   UNL     1       6.051  31.998  58.856  1.00  0.00     0.102 A 
ENDBRANCH   6   7
ENDBRANCH   2   5
BRANCH   1  17
HETATM   17  C   UNL     1       7.318  27.054  54.534  1.00  0.00     0.280 C 
BRANCH  17  18
HETATM   18  O   UNL     1       6.435  26.041  54.043  1.00  0.00    -0.341 OA
BRANCH  18  19
HETATM   19  C   UNL     1       7.018  24.808  54.216  1.00  0.00     0.081 A 
HETATM   20  C   UNL     1       7.665  24.176  53.140  1.00  0.00    -0.028 A 
HETATM   21  C   UNL     1       7.731  24.790  51.772  1.00  0.00     0.051 C 
HETATM   22  C   UNL     1       8.305  22.950  53.370  1.00  0.00     0.009 A 
HETATM   23  C   UNL     1       8.247  22.342  54.625  1.00  0.00     0.001 A 
HETATM   24  C   UNL     1       7.545  22.949  55.665  1.00  0.00     0.009 A 
HETATM   25  C   UNL     1       6.922  24.190  55.475  1.00  0.00    -0.028 A 
HETATM   26  C   UNL     1       6.126  24.800  56.594  1.00  0.00     0.051 C 
ENDBRANCH  18  19
ENDBRANCH  17  18
ENDBRANCH   1  17
TORSDOF 5
ENDMDL
MODEL 9
REMARK VINA RESULT:      -8.6      5.729      9.658
REMARK  5 active torsions:
REMARK  status: ('A' for Active; 'I' for Inactive)
REMARK    1  A    between atoms: C_3  and  O_4 
REMARK    2  A    between atoms: O_4  and  C_5 
REMARK    3  A    between atoms: C_5  and  C_6 
REMARK       I    between atoms: C_6  and  N_7 
REMARK    4  A    between atoms: N_7  and  N_8 
REMARK    5  A    between atoms: C_9  and  C_10 
ROOT
HETATM    1  C   UNL     1       5.127  26.062  51.389  1.00  0.00     0.261 C 
HETATM    2  N   UNL     1       5.980  26.384  52.440  1.00  0.00    -0.246 N 
HETATM    3  O   UNL     1       4.669  24.945  51.149  1.00  0.00    -0.269 OA
HETATM    4  H   UNL     1       6.055  27.373  52.675  1.00  0.00     0.192 HD
ENDROOT
BRANCH   2   5
HETATM    5  N   UNL     1       6.357  25.525  53.451  1.00  0.00    -0.184 NA
HETATM    6  C   UNL     1       7.568  25.064  53.429  1.00  0.00     0.152 C 
BRANCH   6   7
HETATM    7  C   UNL     1       8.006  24.118  54.438  1.00  0.00     0.011 A 
HETATM    8  C   UNL     1       8.202  22.711  54.257  1.00  0.00     0.004 A 
HETATM    9  C   UNL     1       8.633  22.187  55.477  1.00  0.00     0.043 A 
HETATM   10  C   UNL     1       8.048  21.828  53.165  1.00  0.00     0.014 A 
HETATM   11  C   UNL     1       8.924  20.829  55.658  1.00  0.00     0.030 A 
HETATM   12  N   UNL     1       8.690  23.234  56.367  1.00  0.00    -0.364 N 
HETATM   13  C   UNL     1       8.765  19.978  54.559  1.00  0.00     0.002 A 
HETATM   14  C   UNL     1       8.332  20.468  53.330  1.00  0.00     0.001 A 
HETATM   15  H   UNL     1       8.967  23.148  57.336  1.00  0.00     0.165 HD
HETATM   16  C   UNL     1       8.312  24.399  55.756  1.00  0.00     0.102 A 
ENDBRANCH   6   7
ENDBRANCH   2   5
BRANCH   1  17
HETATM   17  C   UNL     1       4.838  27.239  50.464  1.00  0.00     0.280 C 
BRANCH  17  18
HETATM   18  O   UNL     1       5.048  26.913  49.088  1.00  0.00    -0.341 OA
BRANCH  18  19
HETATM   19  C   UNL     1       3.973  27.349  48.349  1.00  0.00     0.081 A 
HETATM   20  C   UNL     1       3.016  26.431  47.885  1.00  0.00    -0.028 A 
HETATM   21  C   UNL     1       3.128  24.957  48.144  1.00  0.00     0.051 C 
HETATM   22  C   UNL     1       1.900  26.919  47.191  1.00  0.00     0.009 A 
HETATM   23  C   UNL     1       1.773  28.281  46.917  1.00  0.00     0.001 A 
HETATM   24  C   UNL     1       2.763  29.173  47.327  1.00  0.00     0.009 A 
HETATM   25  C   UNL     1       3.876  28.719  48.048  1.00  0.00    -0.028 A 
HETATM   26  C   UNL     1       4.957  29.689  48.434  1.00  0.00     0.051 C 
ENDBRANCH  18  19
ENDBRANCH  17  18
ENDBRANCH   1  17
TORSDOF 5
ENDMDL
MODEL 10
REMARK VINA RESULT:      -8.4      1.607      2.199
REMARK  5 active torsions:
REMARK  status: ('A' for Active; 'I' for Inactive)
REMARK    1  A    between atoms: C_3  and  O_4 
REMARK    2  A    between atoms: O_4  and  C_5 
REMARK    3  A    between atoms: C_5  and  C_6 
REMARK       I    between atoms: C_6  and  N_7 
REMARK    4  A    between atoms: N_7  and  N_8 
REMARK    5  A    between atoms: C_9  and  C_10 
ROOT
HETATM    1  C   UNL     1       7.859  25.589  56.837  1.00  0.00     0.261 C 
HETATM    2  N   UNL     1       6.542  25.898  56.513  1.00  0.00    -0.246 N 
HETATM    3  O   UNL     1       8.616  26.285  57.514  1.00  0.00    -0.269 OA
HETATM    4  H   UNL     1       5.962  25.123  56.190  1.00  0.00     0.192 HD
ENDROOT
BRANCH   2   5
HETATM    5  N   UNL     1       5.836  26.979  56.994  1.00  0.00    -0.184 NA
HETATM    6  C   UNL     1       5.753  28.030  56.239  1.00  0.00     0.152 C 
BRANCH   6   7
HETATM    7  C   UNL     1       5.065  29.215  56.713  1.00  0.00     0.011 A 
HETATM    8  C   UNL     1       5.607  30.227  57.571  1.00  0.00     0.004 A 
HETATM    9  C   UNL     1       4.612  31.186  57.767  1.00  0.00     0.043 A 
HETATM   10  C   UNL     1       6.854  30.414  58.207  1.00  0.00     0.014 A 
HETATM   11  C   UNL     1       4.804  32.326  58.559  1.00  0.00     0.030 A 
HETATM   12  N   UNL     1       3.507  30.772  57.062  1.00  0.00    -0.364 N 
HETATM   13  C   UNL     1       6.050  32.487  59.174  1.00  0.00     0.002 A 
HETATM   14  C   UNL     1       7.061  31.546  59.003  1.00  0.00     0.001 A 
HETATM   15  H   UNL     1       2.629  31.272  57.025  1.00  0.00     0.165 HD
HETATM   16  C   UNL     1       3.765  29.587  56.428  1.00  0.00     0.102 A 
ENDBRANCH   6   7
ENDBRANCH   2   5
BRANCH   1  17
HETATM   17  C   UNL     1       8.348  24.291  56.206  1.00  0.00     0.280 C 
BRANCH  17  18
HETATM   18  O   UNL     1       7.288  23.352  56.005  1.00  0.00    -0.341 OA
BRANCH  18  19
HETATM   19  C   UNL     1       7.674  22.427  55.063  1.00  0.00     0.081 A 
HETATM   20  C   UNL     1       7.469  22.684  53.697  1.00  0.00    -0.028 A 
HETATM   21  C   UNL     1       6.811  23.941  53.207  1.00  0.00     0.051 C 
HETATM   22  C   UNL     1       7.934  21.748  52.762  1.00  0.00     0.009 A 
HETATM   23  C   UNL     1       8.533  20.561  53.182  1.00  0.00     0.001 A 
HETATM   24  C   UNL     1       8.671  20.289  54.543  1.00  0.00     0.009 A 
HETATM   25  C   UNL     1       8.244  21.218  55.501  1.00  0.00    -0.028 A 
HETATM   26  C   UNL     1       8.353  20.883  56.962  1.00  0.00     0.051 C 
ENDBRANCH  18  19
ENDBRANCH  17  18
ENDBRANCH   1  17
TORSDOF 5
ENDMDL
