MODEL 1
REMARK VINA RESULT:     -10.0      0.000      0.000
REMARK  4 active torsions:
REMARK  status: ('A' for Active; 'I' for Inactive)
REMARK    1  A    between atoms: C_3  and  C_4 
REMARK    2  A    between atoms: C_4  and  N_5 
REMARK       I    between atoms: N_5  and  C_6 
REMARK       I    between atoms: C_6  and  N_7 
REMARK    3  A    between atoms: N_7  and  C_8 
REMARK    4  A    between atoms: C_16  and  C_17 
ROOT
HETATM    1  C   UNL     1       7.719  21.943  54.739  1.00  0.00     0.049 C 
HETATM    2  C   UNL     1       7.721  23.401  55.118  1.00  0.00    -0.054 A 
HETATM    3  C   UNL     1       7.597  24.432  54.164  1.00  0.00    -0.034 A 
HETATM    4  C   UNL     1       7.512  25.768  54.604  1.00  0.00     0.023 A 
HETATM    5  C   UNL     1       7.637  26.091  55.960  1.00  0.00    -0.004 A 
HETATM    6  C   UNL     1       7.752  25.063  56.899  1.00  0.00     0.014 A 
HETATM    7  C   UNL     1       7.779  23.732  56.482  1.00  0.00     0.008 A 
ENDROOT
BRANCH   3   8
HETATM    8  C   UNL     1       7.583  24.155  52.680  1.00  0.00     0.163 C 
BRANCH   8   9
HETATM    9  N   UNL     1       7.288  25.334  51.903  1.00  0.00    -0.339 N 
HETATM   10  C   UNL     1       5.990  25.564  51.526  1.00  0.00     0.316 C 
HETATM   11  N   UNL     1       5.898  26.605  50.640  1.00  0.00    -0.339 N 
HETATM   12  O   UNL     1       5.035  24.911  51.926  1.00  0.00    -0.247 OA
HETATM   13  H   UNL     1       6.662  27.265  50.668  1.00  0.00     0.164 HD
HETATM   14  H   UNL     1       7.997  25.633  51.251  1.00  0.00     0.164 HD
BRANCH  11  15
HETATM   15  C   UNL     1       4.596  27.106  50.208  1.00  0.00     0.086 C 
HETATM   16  C   UNL     1       4.606  28.639  50.106  1.00  0.00     0.025 C 
HETATM   17  C   UNL     1       5.412  29.140  48.907  1.00  0.00     0.002 C 
HETATM   18  C   UNL     1       4.947  28.494  47.605  1.00  0.00     0.000 C 
HETATM   19  C   UNL     1       4.972  26.972  47.689  1.00  0.00     0.002 C 
HETATM   20  C   UNL     1       4.173  26.459  48.885  1.00  0.00     0.025 C 
ENDBRANCH  11  15
ENDBRANCH   8   9
ENDBRANCH   3   8
BRANCH   5  21
HETATM   21  C   UNL     1       7.577  27.502  56.454  1.00  0.00     0.098 C 
HETATM   22  N   UNL     1       8.704  28.019  56.846  1.00  0.00    -0.169 NA
HETATM   23  N   UNL     1       8.728  29.281  57.372  1.00  0.00    -0.238 N 
HETATM   24  C   UNL     1      10.026  29.801  57.752  1.00  0.00     0.183 C 
HETATM   25  C   UNL     1       7.597  30.042  57.635  1.00  0.00     0.274 C 
HETATM   26  O   UNL     1       7.618  31.133  58.200  1.00  0.00    -0.266 OA
HETATM   27  C   UNL     1       6.318  29.493  57.152  1.00  0.00     0.046 A 
HETATM   28  C   UNL     1       6.300  28.263  56.499  1.00  0.00     0.011 A 
HETATM   29  C   UNL     1       5.143  30.245  57.294  1.00  0.00     0.018 A 
HETATM   30  C   UNL     1       5.107  27.834  55.901  1.00  0.00     0.015 A 
HETATM   31  C   UNL     1       3.934  28.582  56.041  1.00  0.00     0.001 A 
HETATM   32  C   UNL     1       3.947  29.780  56.751  1.00  0.00     0.001 A 
ENDBRANCH   5  21
TORSDOF 4
ENDMDL
MODEL 2
REMARK VINA RESULT:      -9.9      3.774      6.197
REMARK  4 active torsions:
REMARK  status: ('A' for Active; 'I' for Inactive)
REMARK    1  A    between atoms: C_3  and  C_4 
REMARK    2  A    between atoms: C_4  and  N_5 
REMARK       I    between atoms: N_5  and  C_6 
REMARK       I    between atoms: C_6  and  N_7 
REMARK    3  A    between atoms: N_7  and  C_8 
REMARK    4  A    between atoms: C_16  and  C_17 
ROOT
HETATM    1  C   UNL     1      11.111  29.326  56.916  1.00  0.00     0.049 C 
HETATM    2  C   UNL     1       9.966  29.997  57.629  1.00  0.00    -0.054 A 
HETATM    3  C   UNL     1       8.723  29.360  57.832  1.00  0.00    -0.034 A 
HETATM    4  C   UNL     1       7.732  30.016  58.590  1.00  0.00     0.023 A 
HETATM    5  C   UNL     1       7.930  31.317  59.066  1.00  0.00    -0.004 A 
HETATM    6  C   UNL     1       9.166  31.937  58.867  1.00  0.00     0.014 A 
HETATM    7  C   UNL     1      10.177  31.277  58.168  1.00  0.00     0.008 A 
ENDROOT
BRANCH   3   8
HETATM    8  C   UNL     1       8.406  28.009  57.237  1.00  0.00     0.163 C 
BRANCH   8   9
HETATM    9  N   UNL     1       7.798  28.113  55.933  1.00  0.00    -0.339 N 
HETATM   10  C   UNL     1       6.645  27.412  55.690  1.00  0.00     0.316 C 
HETATM   11  N   UNL     1       6.297  27.455  54.365  1.00  0.00    -0.339 N 
HETATM   12  O   UNL     1       6.011  26.816  56.551  1.00  0.00    -0.247 OA
HETATM   13  H   UNL     1       6.668  28.238  53.846  1.00  0.00     0.164 HD
HETATM   14  H   UNL     1       8.425  28.216  55.149  1.00  0.00     0.164 HD
BRANCH  11  15
HETATM   15  C   UNL     1       5.033  26.886  53.905  1.00  0.00     0.086 C 
HETATM   16  C   UNL     1       4.505  27.647  52.679  1.00  0.00     0.025 C 
HETATM   17  C   UNL     1       5.316  27.357  51.416  1.00  0.00     0.002 C 
HETATM   18  C   UNL     1       5.421  25.859  51.145  1.00  0.00     0.000 C 
HETATM   19  C   UNL     1       5.981  25.104  52.346  1.00  0.00     0.002 C 
HETATM   20  C   UNL     1       5.180  25.389  53.615  1.00  0.00     0.025 C 
ENDBRANCH  11  15
ENDBRANCH   8   9
ENDBRANCH   3   8
BRANCH   5  21
HETATM   21  C   UNL     1       6.887  32.047  59.851  1.00  0.00     0.098 C 
HETATM   22  N   UNL     1       5.803  32.365  59.205  1.00  0.00    -0.169 NA
HETATM   23  N   UNL     1       4.826  33.090  59.829  1.00  0.00    -0.238 N 
HETATM   24  C   UNL     1       3.634  33.372  59.055  1.00  0.00     0.183 C 
HETATM   25  C   UNL     1       4.944  33.630  61.103  1.00  0.00     0.274 C 
HETATM   26  O   UNL     1       4.104  34.364  61.618  1.00  0.00    -0.266 OA
HETATM   27  C   UNL     1       6.141  33.238  61.866  1.00  0.00     0.046 A 
HETATM   28  C   UNL     1       7.083  32.394  61.284  1.00  0.00     0.011 A 
HETATM   29  C   UNL     1       6.286  33.664  63.194  1.00  0.00     0.018 A 
HETATM   30  C   UNL     1       8.127  31.899  62.076  1.00  0.00     0.015 A 
HETATM   31  C   UNL     1       8.275  32.322  63.401  1.00  0.00     0.001 A 
HETATM   32  C   UNL     1       7.364  33.217  63.956  1.00  0.00     0.001 A 
ENDBRANCH   5  21
TORSDOF 4
ENDMDL
MODEL 3
REMARK VINA RESULT:      -9.5      3.770      6.951
REMARK  4 active torsions:
REMARK  status: ('A' for Active; 'I' for Inactive)
REMARK    1  A    between atoms: C_3  and  C_4 
REMARK    2  A    between atoms: C_4  and  N_5 
REMARK       I    between atoms: N_5  and  C_6 
REMARK       I    between atoms: C_6  and  N_7 
REMARK    3  A    between atoms: N_7  and  C_8 
REMARK    4  A    between atoms: C_16  and  C_17 
ROOT
HETATM    1  C   UNL     1      10.510  29.302  56.617  1.00  0.00     0.049 C 
HETATM    2  C   UNL     1       9.475  30.080  57.388  1.00  0.00    -0.054 A 
HETATM    3  C   UNL     1       8.093  29.963  57.130  1.00  0.00    -0.034 A 
HETATM    4  C   UNL     1       7.181  30.650  57.955  1.00  0.00     0.023 A 
HETATM    5  C   UNL     1       7.627  31.511  58.965  1.00  0.00    -0.004 A 
HETATM    6  C   UNL     1       8.997  31.615  59.218  1.00  0.00     0.014 A 
HETATM    7  C   UNL     1       9.910  30.895  58.446  1.00  0.00     0.008 A 
ENDROOT
BRANCH   3   8
HETATM    8  C   UNL     1       7.557  29.148  55.977  1.00  0.00     0.163 C 
BRANCH   8   9
HETATM    9  N   UNL     1       7.985  27.773  56.031  1.00  0.00    -0.339 N 
HETATM   10  C   UNL     1       7.087  26.792  55.699  1.00  0.00     0.316 C 
HETATM   11  N   UNL     1       7.573  25.543  55.982  1.00  0.00    -0.339 N 
HETATM   12  O   UNL     1       5.982  27.010  55.217  1.00  0.00    -0.247 OA
HETATM   13  H   UNL     1       8.580  25.471  56.028  1.00  0.00     0.164 HD
HETATM   14  H   UNL     1       8.651  27.534  56.751  1.00  0.00     0.164 HD
BRANCH  11  15
HETATM   15  C   UNL     1       6.835  24.346  55.588  1.00  0.00     0.086 C 
HETATM   16  C   UNL     1       6.603  24.321  54.070  1.00  0.00     0.025 C 
HETATM   17  C   UNL     1       7.882  24.024  53.287  1.00  0.00     0.002 C 
HETATM   18  C   UNL     1       8.556  22.743  53.772  1.00  0.00     0.000 C 
HETATM   19  C   UNL     1       8.823  22.779  55.273  1.00  0.00     0.002 C 
HETATM   20  C   UNL     1       7.553  23.078  56.066  1.00  0.00     0.025 C 
ENDBRANCH  11  15
ENDBRANCH   8   9
ENDBRANCH   3   8
BRANCH   5  21
HETATM   21  C   UNL     1       6.682  32.274  59.839  1.00  0.00     0.098 C 
HETATM   22  N   UNL     1       5.595  32.703  59.268  1.00  0.00    -0.169 NA
HETATM   23  N   UNL     1       4.708  33.465  59.978  1.00  0.00    -0.238 N 
HETATM   24  C   UNL     1       3.504  33.874  59.283  1.00  0.00     0.183 C 
HETATM   25  C   UNL     1       4.930  33.927  61.268  1.00  0.00     0.274 C 
HETATM   26  O   UNL     1       4.175  34.693  61.863  1.00  0.00    -0.266 OA
HETATM   27  C   UNL     1       6.131  33.410  61.946  1.00  0.00     0.046 A 
HETATM   28  C   UNL     1       6.975  32.530  61.274  1.00  0.00     0.011 A 
HETATM   29  C   UNL     1       6.373  33.754  63.284  1.00  0.00     0.018 A 
HETATM   30  C   UNL     1       8.018  31.919  61.985  1.00  0.00     0.015 A 
HETATM   31  C   UNL     1       8.262  32.261  63.319  1.00  0.00     0.001 A 
HETATM   32  C   UNL     1       7.450  33.190  63.965  1.00  0.00     0.001 A 
ENDBRANCH   5  21
TORSDOF 4
ENDMDL
MODEL 4
REMARK VINA RESULT:      -9.4      3.547      9.488
REMARK  4 active torsions:
REMARK  status: ('A' for Active; 'I' for Inactive)
REMARK    1  A    between atoms: C_3  and  C_4 
REMARK    2  A    between atoms: C_4  and  N_5 
REMARK       I    between atoms: N_5  and  C_6 
REMARK       I    between atoms: C_6  and  N_7 
REMARK    3  A    between atoms: N_7  and  C_8 
REMARK    4  A    between atoms: C_16  and  C_17 
ROOT
HETATM    1  C   UNL     1       5.463  30.640  57.895  1.00  0.00     0.049 C 
HETATM    2  C   UNL     1       6.019  29.337  57.382  1.00  0.00    -0.054 A 
HETATM    3  C   UNL     1       7.329  28.903  57.679  1.00  0.00    -0.034 A 
HETATM    4  C   UNL     1       7.745  27.630  57.242  1.00  0.00     0.023 A 
HETATM    5  C   UNL     1       6.913  26.831  56.448  1.00  0.00    -0.004 A 
HETATM    6  C   UNL     1       5.616  27.265  56.166  1.00  0.00     0.014 A 
HETATM    7  C   UNL     1       5.170  28.499  56.641  1.00  0.00     0.008 A 
ENDROOT
BRANCH   3   8
HETATM    8  C   UNL     1       8.313  29.773  58.423  1.00  0.00     0.163 C 
BRANCH   8   9
HETATM    9  N   UNL     1       7.797  30.223  59.692  1.00  0.00    -0.339 N 
HETATM   10  C   UNL     1       8.040  31.517  60.076  1.00  0.00     0.316 C 
HETATM   11  N   UNL     1       7.660  31.738  61.374  1.00  0.00    -0.339 N 
HETATM   12  O   UNL     1       8.543  32.365  59.350  1.00  0.00    -0.247 OA
HETATM   13  H   UNL     1       6.959  31.106  61.733  1.00  0.00     0.164 HD
HETATM   14  H   UNL     1       7.765  29.542  60.435  1.00  0.00     0.164 HD
BRANCH  11  15
HETATM   15  C   UNL     1       7.707  33.080  61.949  1.00  0.00     0.086 C 
HETATM   16  C   UNL     1       6.331  33.759  61.868  1.00  0.00     0.025 C 
HETATM   17  C   UNL     1       5.326  33.164  62.854  1.00  0.00     0.002 C 
HETATM   18  C   UNL     1       5.868  33.163  64.280  1.00  0.00     0.000 C 
HETATM   19  C   UNL     1       7.216  32.457  64.373  1.00  0.00     0.002 C 
HETATM   20  C   UNL     1       8.228  33.041  63.390  1.00  0.00     0.025 C 
ENDBRANCH  11  15
ENDBRANCH   8   9
ENDBRANCH   3   8
BRANCH   5  21
HETATM   21  C   UNL     1       7.338  25.486  55.949  1.00  0.00     0.098 C 
HETATM   22  N   UNL     1       7.642  24.608  56.860  1.00  0.00    -0.169 NA
HETATM   23  N   UNL     1       8.103  23.375  56.490  1.00  0.00    -0.238 N 
HETATM   24  C   UNL     1       8.385  22.440  57.561  1.00  0.00     0.183 C 
HETATM   25  C   UNL     1       8.388  23.005  55.182  1.00  0.00     0.274 C 
HETATM   26  O   UNL     1       8.896  21.931  54.867  1.00  0.00    -0.266 OA
HETATM   27  C   UNL     1       8.003  23.968  54.136  1.00  0.00     0.046 A 
HETATM   28  C   UNL     1       7.414  25.177  54.497  1.00  0.00     0.011 A 
HETATM   29  C   UNL     1       8.171  23.628  52.786  1.00  0.00     0.018 A 
HETATM   30  C   UNL     1       6.903  26.006  53.489  1.00  0.00     0.015 A 
HETATM   31  C   UNL     1       7.069  25.670  52.141  1.00  0.00     0.001 A 
HETATM   32  C   UNL     1       7.717  24.488  51.789  1.00  0.00     0.001 A 
ENDBRANCH   5  21
TORSDOF 4
ENDMDL
MODEL 5
REMARK VINA RESULT:      -9.3      2.895      8.873
REMARK  4 active torsions:
REMARK  status: ('A' for Active; 'I' for Inactive)
REMARK    1  A    between atoms: C_3  and  C_4 
REMARK    2  A    between atoms: C_4  and  N_5 
REMARK       I    between atoms: N_5  and  C_6 
REMARK       I    between atoms: C_6  and  N_7 
REMARK    3  A    between atoms: N_7  and  C_8 
REMARK    4  A    between atoms: C_16  and  C_17 
ROOT
HETATM    1  C   UNL     1       2.602  32.457  55.356  1.00  0.00     0.049 C 
HETATM    2  C   UNL     1       3.341  31.148  55.252  1.00  0.00    -0.054 A 
HETATM    3  C   UNL     1       3.660  30.366  56.382  1.00  0.00    -0.034 A 
HETATM    4  C   UNL     1       4.269  29.109  56.196  1.00  0.00     0.023 A 
HETATM    5  C   UNL     1       4.639  28.667  54.920  1.00  0.00    -0.004 A 
HETATM    6  C   UNL     1       4.312  29.444  53.807  1.00  0.00     0.014 A 
HETATM    7  C   UNL     1       3.657  30.665  53.971  1.00  0.00     0.008 A 
ENDROOT
BRANCH   3   8
HETATM    8  C   UNL     1       3.400  30.846  57.790  1.00  0.00     0.163 C 
BRANCH   8   9
HETATM    9  N   UNL     1       4.540  30.661  58.653  1.00  0.00    -0.339 N 
HETATM   10  C   UNL     1       5.365  31.730  58.888  1.00  0.00     0.316 C 
HETATM   11  N   UNL     1       6.498  31.356  59.561  1.00  0.00    -0.339 N 
HETATM   12  O   UNL     1       5.120  32.876  58.532  1.00  0.00    -0.247 OA
HETATM   13  H   UNL     1       6.421  30.502  60.096  1.00  0.00     0.164 HD
HETATM   14  H   UNL     1       4.987  29.757  58.622  1.00  0.00     0.164 HD
BRANCH  11  15
HETATM   15  C   UNL     1       7.454  32.355  60.031  1.00  0.00     0.086 C 
HETATM   16  C   UNL     1       7.334  32.556  61.549  1.00  0.00     0.025 C 
HETATM   17  C   UNL     1       7.890  31.373  62.342  1.00  0.00     0.002 C 
HETATM   18  C   UNL     1       9.321  31.042  61.931  1.00  0.00     0.000 C 
HETATM   19  C   UNL     1       9.439  30.804  60.430  1.00  0.00     0.002 C 
HETATM   20  C   UNL     1       8.883  31.978  59.627  1.00  0.00     0.025 C 
ENDBRANCH  11  15
ENDBRANCH   8   9
ENDBRANCH   3   8
BRANCH   5  21
HETATM   21  C   UNL     1       5.309  27.348  54.696  1.00  0.00     0.098 C 
HETATM   22  N   UNL     1       4.897  26.665  53.669  1.00  0.00    -0.169 NA
HETATM   23  N   UNL     1       5.411  25.421  53.428  1.00  0.00    -0.238 N 
HETATM   24  C   UNL     1       4.929  24.739  52.244  1.00  0.00     0.183 C 
HETATM   25  C   UNL     1       6.283  24.755  54.279  1.00  0.00     0.274 C 
HETATM   26  O   UNL     1       6.662  23.599  54.108  1.00  0.00    -0.266 OA
HETATM   27  C   UNL     1       6.797  25.533  55.420  1.00  0.00     0.046 A 
HETATM   28  C   UNL     1       6.378  26.848  55.601  1.00  0.00     0.011 A 
HETATM   29  C   UNL     1       7.756  24.964  56.270  1.00  0.00     0.018 A 
HETATM   30  C   UNL     1       6.999  27.625  56.588  1.00  0.00     0.015 A 
HETATM   31  C   UNL     1       7.955  27.060  57.438  1.00  0.00     0.001 A 
HETATM   32  C   UNL     1       8.323  25.725  57.290  1.00  0.00     0.001 A 
ENDBRANCH   5  21
TORSDOF 4
ENDMDL
MODEL 6
REMARK VINA RESULT:      -9.3      2.576      5.737
REMARK  4 active torsions:
REMARK  status: ('A' for Active; 'I' for Inactive)
REMARK    1  A    between atoms: C_3  and  C_4 
REMARK    2  A    between atoms: C_4  and  N_5 
REMARK       I    between atoms: N_5  and  C_6 
REMARK       I    between atoms: C_6  and  N_7 
REMARK    3  A    between atoms: N_7  and  C_8 
REMARK    4  A    between atoms: C_16  and  C_17 
ROOT
HETATM    1  C   UNL     1       6.597  29.695  56.393  1.00  0.00     0.049 C 
HETATM    2  C   UNL     1       6.821  28.206  56.343  1.00  0.00    -0.054 A 
HETATM    3  C   UNL     1       5.951  27.332  55.656  1.00  0.00    -0.034 A 
HETATM    4  C   UNL     1       6.278  25.964  55.573  1.00  0.00     0.023 A 
HETATM    5  C   UNL     1       7.400  25.448  56.233  1.00  0.00    -0.004 A 
HETATM    6  C   UNL     1       8.259  26.322  56.904  1.00  0.00     0.014 A 
HETATM    7  C   UNL     1       7.979  27.688  56.945  1.00  0.00     0.008 A 
ENDROOT
BRANCH   3   8
HETATM    8  C   UNL     1       4.662  27.809  55.032  1.00  0.00     0.163 C 
BRANCH   8   9
HETATM    9  N   UNL     1       4.421  27.209  53.743  1.00  0.00    -0.339 N 
HETATM   10  C   UNL     1       4.745  27.920  52.617  1.00  0.00     0.316 C 
HETATM   11  N   UNL     1       4.284  27.307  51.481  1.00  0.00    -0.339 N 
HETATM   12  O   UNL     1       5.362  28.978  52.628  1.00  0.00    -0.247 OA
HETATM   13  H   UNL     1       4.123  26.313  51.561  1.00  0.00     0.164 HD
HETATM   14  H   UNL     1       3.614  26.608  53.668  1.00  0.00     0.164 HD
BRANCH  11  15
HETATM   15  C   UNL     1       4.629  27.824  50.159  1.00  0.00     0.086 C 
HETATM   16  C   UNL     1       4.869  26.676  49.168  1.00  0.00     0.025 C 
HETATM   17  C   UNL     1       3.574  25.969  48.765  1.00  0.00     0.002 C 
HETATM   18  C   UNL     1       2.534  26.955  48.241  1.00  0.00     0.000 C 
HETATM   19  C   UNL     1       2.264  28.076  49.238  1.00  0.00     0.002 C 
HETATM   20  C   UNL     1       3.551  28.787  49.650  1.00  0.00     0.025 C 
ENDBRANCH  11  15
ENDBRANCH   8   9
ENDBRANCH   3   8
BRANCH   5  21
HETATM   21  C   UNL     1       7.758  23.996  56.184  1.00  0.00     0.098 C 
HETATM   22  N   UNL     1       7.964  23.419  57.332  1.00  0.00    -0.169 NA
HETATM   23  N   UNL     1       8.359  22.111  57.375  1.00  0.00    -0.238 N 
HETATM   24  C   UNL     1       8.533  21.529  58.691  1.00  0.00     0.183 C 
HETATM   25  C   UNL     1       8.676  21.351  56.257  1.00  0.00     0.274 C 
HETATM   26  O   UNL     1       9.126  20.208  56.307  1.00  0.00    -0.266 OA
HETATM   27  C   UNL     1       8.400  21.972  54.950  1.00  0.00     0.046 A 
HETATM   28  C   UNL     1       7.877  23.261  54.897  1.00  0.00     0.011 A 
HETATM   29  C   UNL     1       8.603  21.233  53.775  1.00  0.00     0.018 A 
HETATM   30  C   UNL     1       7.465  23.772  53.659  1.00  0.00     0.015 A 
HETATM   31  C   UNL     1       7.666  23.038  52.486  1.00  0.00     0.001 A 
HETATM   32  C   UNL     1       8.250  21.775  52.541  1.00  0.00     0.001 A 
ENDBRANCH   5  21
TORSDOF 4
ENDMDL
MODEL 7
REMARK VINA RESULT:      -9.3      3.950      9.160
REMARK  4 active torsions:
REMARK  status: ('A' for Active; 'I' for Inactive)
REMARK    1  A    between atoms: C_3  and  C_4 
REMARK    2  A    between atoms: C_4  and  N_5 
REMARK       I    between atoms: N_5  and  C_6 
REMARK       I    between atoms: C_6  and  N_7 
REMARK    3  A    between atoms: N_7  and  C_8 
REMARK    4  A    between atoms: C_16  and  C_17 
ROOT
HETATM    1  C   UNL     1       6.201  29.302  55.782  1.00  0.00     0.049 C 
HETATM    2  C   UNL     1       6.687  27.878  55.871  1.00  0.00    -0.054 A 
HETATM    3  C   UNL     1       7.785  27.501  56.674  1.00  0.00    -0.034 A 
HETATM    4  C   UNL     1       8.121  26.137  56.780  1.00  0.00     0.023 A 
HETATM    5  C   UNL     1       7.440  25.166  56.035  1.00  0.00    -0.004 A 
HETATM    6  C   UNL     1       6.350  25.547  55.250  1.00  0.00     0.014 A 
HETATM    7  C   UNL     1       5.969  26.888  55.181  1.00  0.00     0.008 A 
ENDROOT
BRANCH   3   8
HETATM    8  C   UNL     1       8.634  28.516  57.401  1.00  0.00     0.163 C 
BRANCH   8   9
HETATM    9  N   UNL     1       7.912  29.180  58.458  1.00  0.00    -0.339 N 
HETATM   10  C   UNL     1       8.275  30.457  58.800  1.00  0.00     0.316 C 
HETATM   11  N   UNL     1       7.636  30.878  59.936  1.00  0.00    -0.339 N 
HETATM   12  O   UNL     1       9.079  31.132  58.170  1.00  0.00    -0.247 OA
HETATM   13  H   UNL     1       6.770  30.403  60.146  1.00  0.00     0.164 HD
HETATM   14  H   UNL     1       7.582  28.598  59.213  1.00  0.00     0.164 HD
BRANCH  11  15
HETATM   15  C   UNL     1       7.775  32.253  60.407  1.00  0.00     0.086 C 
HETATM   16  C   UNL     1       6.428  32.802  60.900  1.00  0.00     0.025 C 
HETATM   17  C   UNL     1       5.997  32.186  62.232  1.00  0.00     0.002 C 
HETATM   18  C   UNL     1       7.083  32.326  63.295  1.00  0.00     0.000 C 
HETATM   19  C   UNL     1       8.413  31.748  62.825  1.00  0.00     0.002 C 
HETATM   20  C   UNL     1       8.852  32.354  61.493  1.00  0.00     0.025 C 
ENDBRANCH  11  15
ENDBRANCH   8   9
ENDBRANCH   3   8
BRANCH   5  21
HETATM   21  C   UNL     1       7.792  23.713  56.108  1.00  0.00     0.098 C 
HETATM   22  N   UNL     1       8.002  23.235  57.300  1.00  0.00    -0.169 NA
HETATM   23  N   UNL     1       8.392  21.933  57.452  1.00  0.00    -0.238 N 
HETATM   24  C   UNL     1       8.571  21.465  58.811  1.00  0.00     0.183 C 
HETATM   25  C   UNL     1       8.701  21.080  56.401  1.00  0.00     0.274 C 
HETATM   26  O   UNL     1       9.147  19.944  56.546  1.00  0.00    -0.266 OA
HETATM   27  C   UNL     1       8.421  21.589  55.047  1.00  0.00     0.046 A 
HETATM   28  C   UNL     1       7.901  22.871  54.888  1.00  0.00     0.011 A 
HETATM   29  C   UNL     1       8.615  20.752  53.939  1.00  0.00     0.018 A 
HETATM   30  C   UNL     1       7.485  23.277  53.612  1.00  0.00     0.015 A 
HETATM   31  C   UNL     1       7.678  22.445  52.505  1.00  0.00     0.001 A 
HETATM   32  C   UNL     1       8.257  21.189  52.665  1.00  0.00     0.001 A 
ENDBRANCH   5  21
TORSDOF 4
ENDMDL
MODEL 8
REMARK VINA RESULT:      -9.2      9.035     14.973
REMARK  4 active torsions:
REMARK  status: ('A' for Active; 'I' for Inactive)
REMARK    1  A    between atoms: C_3  and  C_4 
REMARK    2  A    between atoms: C_4  and  N_5 
REMARK       I    between atoms: N_5  and  C_6 
REMARK       I    between atoms: C_6  and  N_7 
REMARK    3  A    between atoms: N_7  and  C_8 
REMARK    4  A    between atoms: C_16  and  C_17 
ROOT
HETATM    1  C   UNL     1       4.624  36.712  65.439  1.00  0.00     0.049 C 
HETATM    2  C   UNL     1       5.017  35.775  64.326  1.00  0.00    -0.054 A 
HETATM    3  C   UNL     1       4.911  34.373  64.443  1.00  0.00    -0.034 A 
HETATM    4  C   UNL     1       5.208  33.567  63.326  1.00  0.00     0.023 A 
HETATM    5  C   UNL     1       5.686  34.130  62.136  1.00  0.00    -0.004 A 
HETATM    6  C   UNL     1       5.780  35.519  62.027  1.00  0.00     0.014 A 
HETATM    7  C   UNL     1       5.435  36.333  63.106  1.00  0.00     0.008 A 
ENDROOT
BRANCH   3   8
HETATM    8  C   UNL     1       4.520  33.703  65.738  1.00  0.00     0.163 C 
BRANCH   8   9
HETATM    9  N   UNL     1       5.537  33.834  66.752  1.00  0.00    -0.339 N 
HETATM   10  C   UNL     1       5.155  34.180  68.023  1.00  0.00     0.316 C 
HETATM   11  N   UNL     1       6.236  34.454  68.819  1.00  0.00    -0.339 N 
HETATM   12  O   UNL     1       3.990  34.245  68.394  1.00  0.00    -0.247 OA
HETATM   13  H   UNL     1       7.106  34.032  68.527  1.00  0.00     0.164 HD
HETATM   14  H   UNL     1       6.433  34.185  66.451  1.00  0.00     0.164 HD
BRANCH  11  15
HETATM   15  C   UNL     1       6.066  34.716  70.246  1.00  0.00     0.086 C 
HETATM   16  C   UNL     1       5.944  33.402  71.033  1.00  0.00     0.025 C 
HETATM   17  C   UNL     1       7.273  32.653  71.132  1.00  0.00     0.002 C 
HETATM   18  C   UNL     1       8.380  33.542  71.692  1.00  0.00     0.000 C 
HETATM   19  C   UNL     1       8.532  34.830  70.891  1.00  0.00     0.002 C 
HETATM   20  C   UNL     1       7.209  35.586  70.782  1.00  0.00     0.025 C 
ENDBRANCH  11  15
ENDBRANCH   8   9
ENDBRANCH   3   8
BRANCH   5  21
HETATM   21  C   UNL     1       6.034  33.296  60.943  1.00  0.00     0.098 C 
HETATM   22  N   UNL     1       5.225  33.387  59.928  1.00  0.00    -0.169 NA
HETATM   23  N   UNL     1       5.432  32.610  58.821  1.00  0.00    -0.238 N 
HETATM   24  C   UNL     1       4.510  32.796  57.718  1.00  0.00     0.183 C 
HETATM   25  C   UNL     1       6.399  31.619  58.730  1.00  0.00     0.274 C 
HETATM   26  O   UNL     1       6.515  30.858  57.771  1.00  0.00    -0.266 OA
HETATM   27  C   UNL     1       7.354  31.537  59.849  1.00  0.00     0.046 A 
HETATM   28  C   UNL     1       7.229  32.412  60.924  1.00  0.00     0.011 A 
HETATM   29  C   UNL     1       8.418  30.627  59.786  1.00  0.00     0.018 A 
HETATM   30  C   UNL     1       8.237  32.434  61.898  1.00  0.00     0.015 A 
HETATM   31  C   UNL     1       9.300  31.526  61.838  1.00  0.00     0.001 A 
HETATM   32  C   UNL     1       9.383  30.612  60.791  1.00  0.00     0.001 A 
ENDBRANCH   5  21
TORSDOF 4
ENDMDL
MODEL 9
REMARK VINA RESULT:      -9.2      6.071      9.383
REMARK  4 active torsions:
REMARK  status: ('A' for Active; 'I' for Inactive)
REMARK    1  A    between atoms: C_3  and  C_4 
REMARK    2  A    between atoms: C_4  and  N_5 
REMARK       I    between atoms: N_5  and  C_6 
REMARK       I    between atoms: C_6  and  N_7 
REMARK    3  A    between atoms: N_7  and  C_8 
REMARK    4  A    between atoms: C_16  and  C_17 
ROOT
HETATM    1  C   UNL     1       9.658  30.204  61.719  1.00  0.00     0.049 C 
HETATM    2  C   UNL     1       8.623  31.291  61.852  1.00  0.00    -0.054 A 
HETATM    3  C   UNL     1       7.868  31.756  60.754  1.00  0.00    -0.034 A 
HETATM    4  C   UNL     1       6.853  32.708  60.974  1.00  0.00     0.023 A 
HETATM    5  C   UNL     1       6.643  33.260  62.244  1.00  0.00    -0.004 A 
HETATM    6  C   UNL     1       7.390  32.788  63.325  1.00  0.00     0.014 A 
HETATM    7  C   UNL     1       8.360  31.804  63.133  1.00  0.00     0.008 A 
ENDROOT
BRANCH   3   8
HETATM    8  C   UNL     1       8.133  31.290  59.343  1.00  0.00     0.163 C 
BRANCH   8   9
HETATM    9  N   UNL     1       7.556  29.997  59.074  1.00  0.00    -0.339 N 
HETATM   10  C   UNL     1       8.171  29.180  58.160  1.00  0.00     0.316 C 
HETATM   11  N   UNL     1       7.407  28.080  57.871  1.00  0.00    -0.339 N 
HETATM   12  O   UNL     1       9.263  29.414  57.659  1.00  0.00    -0.247 OA
HETATM   13  H   UNL     1       6.736  27.821  58.580  1.00  0.00     0.164 HD
HETATM   14  H   UNL     1       6.550  29.934  59.114  1.00  0.00     0.164 HD
BRANCH  11  15
HETATM   15  C   UNL     1       7.927  27.012  57.021  1.00  0.00     0.086 C 
HETATM   16  C   UNL     1       7.470  25.636  57.530  1.00  0.00     0.025 C 
HETATM   17  C   UNL     1       5.985  25.380  57.272  1.00  0.00     0.002 C 
HETATM   18  C   UNL     1       5.625  25.583  55.803  1.00  0.00     0.000 C 
HETATM   19  C   UNL     1       6.042  26.962  55.304  1.00  0.00     0.002 C 
HETATM   20  C   UNL     1       7.524  27.230  55.559  1.00  0.00     0.025 C 
ENDBRANCH  11  15
ENDBRANCH   8   9
ENDBRANCH   3   8
BRANCH   5  21
HETATM   21  C   UNL     1       5.590  34.291  62.501  1.00  0.00     0.098 C 
HETATM   22  N   UNL     1       5.227  35.006  61.477  1.00  0.00    -0.169 NA
HETATM   23  N   UNL     1       4.318  36.015  61.638  1.00  0.00    -0.238 N 
HETATM   24  C   UNL     1       3.937  36.741  60.444  1.00  0.00     0.183 C 
HETATM   25  C   UNL     1       3.814  36.426  62.864  1.00  0.00     0.274 C 
HETATM   26  O   UNL     1       3.074  37.397  63.013  1.00  0.00    -0.266 OA
HETATM   27  C   UNL     1       4.174  35.596  64.027  1.00  0.00     0.046 A 
HETATM   28  C   UNL     1       5.000  34.489  63.852  1.00  0.00     0.011 A 
HETATM   29  C   UNL     1       3.627  35.890  65.284  1.00  0.00     0.018 A 
HETATM   30  C   UNL     1       5.198  33.617  64.931  1.00  0.00     0.015 A 
HETATM   31  C   UNL     1       4.654  33.907  66.187  1.00  0.00     0.001 A 
HETATM   32  C   UNL     1       3.882  35.052  66.368  1.00  0.00     0.001 A 
ENDBRANCH   5  21
TORSDOF 4
ENDMDL
MODEL 10
REMARK VINA RESULT:      -9.1      3.475      9.322
REMARK  4 active torsions:
REMARK  status: ('A' for Active; 'I' for Inactive)
REMARK    1  A    between atoms: C_3  and  C_4 
REMARK    2  A    between atoms: C_4  and  N_5 
REMARK       I    between atoms: N_5  and  C_6 
REMARK       I    between atoms: C_6  and  N_7 
REMARK    3  A    between atoms: N_7  and  C_8 
REMARK    4  A    between atoms: C_16  and  C_17 
ROOT
HETATM    1  C   UNL     1      10.645  31.613  58.483  1.00  0.00     0.049 C 
HETATM    2  C   UNL     1       9.830  30.508  57.863  1.00  0.00    -0.054 A 
HETATM    3  C   UNL     1       8.745  29.901  58.531  1.00  0.00    -0.034 A 
HETATM    4  C   UNL     1       7.972  28.940  57.850  1.00  0.00     0.023 A 
HETATM    5  C   UNL     1       8.316  28.517  56.560  1.00  0.00    -0.004 A 
HETATM    6  C   UNL     1       9.387  29.129  55.904  1.00  0.00     0.014 A 
HETATM    7  C   UNL     1      10.126  30.124  56.545  1.00  0.00     0.008 A 
ENDROOT
BRANCH   3   8
HETATM    8  C   UNL     1       8.402  30.224  59.965  1.00  0.00     0.163 C 
BRANCH   8   9
HETATM    9  N   UNL     1       7.122  30.876  60.090  1.00  0.00    -0.339 N 
HETATM   10  C   UNL     1       7.083  32.157  60.577  1.00  0.00     0.316 C 
HETATM   11  N   UNL     1       5.798  32.567  60.818  1.00  0.00    -0.339 N 
HETATM   12  O   UNL     1       8.076  32.844  60.779  1.00  0.00    -0.247 OA
HETATM   13  H   UNL     1       5.084  32.081  60.296  1.00  0.00     0.164 HD
HETATM   14  H   UNL     1       6.338  30.289  60.330  1.00  0.00     0.164 HD
BRANCH  11  15
HETATM   15  C   UNL     1       5.514  33.944  61.217  1.00  0.00     0.086 C 
HETATM   16  C   UNL     1       4.166  34.411  60.648  1.00  0.00     0.025 C 
HETATM   17  C   UNL     1       2.976  33.760  61.351  1.00  0.00     0.002 C 
HETATM   18  C   UNL     1       3.042  33.949  62.864  1.00  0.00     0.000 C 
HETATM   19  C   UNL     1       4.364  33.451  63.439  1.00  0.00     0.002 C 
HETATM   20  C   UNL     1       5.561  34.093  62.741  1.00  0.00     0.025 C 
ENDBRANCH  11  15
ENDBRANCH   8   9
ENDBRANCH   3   8
BRANCH   5  21
HETATM   21  C   UNL     1       7.528  27.480  55.823  1.00  0.00     0.098 C 
HETATM   22  N   UNL     1       6.671  27.926  54.952  1.00  0.00    -0.169 NA
HETATM   23  N   UNL     1       5.863  27.049  54.282  1.00  0.00    -0.238 N 
HETATM   24  C   UNL     1       4.961  27.619  53.302  1.00  0.00     0.183 C 
HETATM   25  C   UNL     1       5.802  25.686  54.540  1.00  0.00     0.274 C 
HETATM   26  O   UNL     1       5.003  24.921  54.004  1.00  0.00    -0.266 OA
HETATM   27  C   UNL     1       6.800  25.159  55.486  1.00  0.00     0.046 A 
HETATM   28  C   UNL     1       7.712  26.027  56.079  1.00  0.00     0.011 A 
HETATM   29  C   UNL     1       6.865  23.779  55.726  1.00  0.00     0.018 A 
HETATM   30  C   UNL     1       8.757  25.490  56.844  1.00  0.00     0.015 A 
HETATM   31  C   UNL     1       8.825  24.114  57.086  1.00  0.00     0.001 A 
HETATM   32  C   UNL     1       7.870  23.259  56.540  1.00  0.00     0.001 A 
ENDBRANCH   5  21
TORSDOF 4
ENDMDL
