MODEL 1
REMARK VINA RESULT:     -10.1      0.000      0.000
REMARK  6 active torsions:
REMARK  status: ('A' for Active; 'I' for Inactive)
REMARK       I    between atoms: N_2  and  C_3 
REMARK    1  A    between atoms: C_3  and  C_4 
REMARK    2  A    between atoms: C_6  and  C_7 
REMARK    3  A    between atoms: C_7  and  C_8 
REMARK    4  A    between atoms: C_8  and  C_9 
REMARK       I    between atoms: C_9  and  N_10 
REMARK    5  A    between atoms: N_10  and  C_11 
REMARK    6  A    between atoms: C_13  and  C_14 
ROOT
HETATM    1  C   UNL     1       5.730  26.638  56.338  1.00  0.00     0.222 C 
HETATM    2  N   UNL     1       5.530  25.858  55.245  1.00  0.00    -0.327 N 
HETATM    3  O   UNL     1       4.720  27.157  56.833  1.00  0.00    -0.273 OA
HETATM    4  H   UNL     1       4.545  25.886  54.998  1.00  0.00     0.169 HD
ENDROOT
BRANCH   1   5
HETATM    5  C   UNL     1       7.083  26.918  56.950  1.00  0.00     0.108 C 
BRANCH   5   6
HETATM    6  C   UNL     1       7.935  27.916  56.164  1.00  0.00     0.048 C 
BRANCH   6   7
HETATM    7  C   UNL     1       8.761  28.930  56.929  1.00  0.00    -0.057 A 
HETATM    8  C   UNL     1       8.287  29.648  58.036  1.00  0.00     0.024 A 
HETATM    9  C   UNL     1       9.072  30.643  58.641  1.00  0.00     0.032 A 
HETATM   10  C   UNL     1      10.365  30.889  58.166  1.00  0.00     0.017 A 
HETATM   11  C   UNL     1      10.855  30.175  57.075  1.00  0.00     0.002 A 
HETATM   12  C   UNL     1      10.054  29.215  56.456  1.00  0.00     0.007 A 
BRANCH   9  13
HETATM   13  C   UNL     1       8.570  31.463  59.779  1.00  0.00     0.251 C 
HETATM   14  N   UNL     1       7.942  30.782  60.802  1.00  0.00    -0.361 N 
HETATM   15  C   UNL     1       7.313  31.495  61.883  1.00  0.00     0.149 C 
HETATM   16  H   UNL     1       7.719  29.801  60.691  1.00  0.00     0.162 HD
HETATM   17  O   UNL     1       8.683  32.684  59.757  1.00  0.00    -0.268 OA
ENDBRANCH   9  13
ENDBRANCH   6   7
ENDBRANCH   5   6
ENDBRANCH   1   5
BRANCH   2  18
HETATM   18  C   UNL     1       6.329  25.061  54.407  1.00  0.00     0.035 A 
HETATM   19  C   UNL     1       6.810  23.785  54.700  1.00  0.00     0.042 A 
HETATM   20  C   UNL     1       7.647  23.099  53.799  1.00  0.00    -0.021 A 
HETATM   21  C   UNL     1       7.975  23.697  52.578  1.00  0.00     0.012 A 
HETATM   22  C   UNL     1       7.473  24.955  52.257  1.00  0.00     0.003 A 
HETATM   23  C   UNL     1       6.657  25.628  53.165  1.00  0.00     0.029 A 
BRANCH  20  24
HETATM   24  C   UNL     1       8.196  21.795  54.133  1.00  0.00     0.010 A 
HETATM   25  C   UNL     1       8.265  20.602  53.374  1.00  0.00     0.152 A 
HETATM   26  N   UNL     1       8.848  19.600  54.034  1.00  0.00    -0.187 NA
HETATM   27  N   UNL     1       9.151  20.143  55.224  1.00  0.00    -0.289 N 
HETATM   28  H   UNL     1       9.606  19.558  55.917  1.00  0.00     0.188 HD
HETATM   29  C   UNL     1       8.784  21.455  55.333  1.00  0.00     0.123 A 
ENDBRANCH  20  24
ENDBRANCH   2  18
TORSDOF 6
ENDMDL
MODEL 2
REMARK VINA RESULT:      -9.1      3.418      6.555
REMARK  6 active torsions:
REMARK  status: ('A' for Active; 'I' for Inactive)
REMARK       I    between atoms: N_2  and  C_3 
REMARK    1  A    between atoms: C_3  and  C_4 
REMARK    2  A    between atoms: C_6  and  C_7 
REMARK    3  A    between atoms: C_7  and  C_8 
REMARK    4  A    between atoms: C_8  and  C_9 
REMARK       I    between atoms: C_9  and  N_10 
REMARK    5  A    between atoms: N_10  and  C_11 
REMARK    6  A    between atoms: C_13  and  C_14 
ROOT
HETATM    1  C   UNL     1       6.464  27.169  56.358  1.00  0.00     0.222 C 
HETATM    2  N   UNL     1       7.550  26.547  55.831  1.00  0.00    -0.327 N 
HETATM    3  O   UNL     1       6.691  28.029  57.221  1.00  0.00    -0.273 OA
HETATM    4  H   UNL     1       8.383  26.886  56.301  1.00  0.00     0.169 HD
ENDROOT
BRANCH   1   5
HETATM    5  C   UNL     1       5.035  26.861  55.977  1.00  0.00     0.108 C 
BRANCH   5   6
HETATM    6  C   UNL     1       4.529  27.632  54.757  1.00  0.00     0.048 C 
BRANCH   6   7
HETATM    7  C   UNL     1       4.685  27.009  53.385  1.00  0.00    -0.057 A 
HETATM    8  C   UNL     1       4.875  27.747  52.209  1.00  0.00     0.024 A 
HETATM    9  C   UNL     1       4.918  27.113  50.957  1.00  0.00     0.032 A 
HETATM   10  C   UNL     1       4.819  25.720  50.883  1.00  0.00     0.017 A 
HETATM   11  C   UNL     1       4.643  24.971  52.044  1.00  0.00     0.002 A 
HETATM   12  C   UNL     1       4.563  25.613  53.280  1.00  0.00     0.007 A 
BRANCH   9  13
HETATM   13  C   UNL     1       5.058  27.879  49.686  1.00  0.00     0.251 C 
HETATM   14  N   UNL     1       5.272  27.141  48.540  1.00  0.00    -0.361 N 
HETATM   15  C   UNL     1       5.545  27.793  47.285  1.00  0.00     0.149 C 
HETATM   16  H   UNL     1       5.465  26.150  48.608  1.00  0.00     0.162 HD
HETATM   17  O   UNL     1       5.026  29.105  49.698  1.00  0.00    -0.268 OA
ENDBRANCH   9  13
ENDBRANCH   6   7
ENDBRANCH   5   6
ENDBRANCH   1   5
BRANCH   2  18
HETATM   18  C   UNL     1       7.781  25.580  54.837  1.00  0.00     0.035 A 
HETATM   19  C   UNL     1       7.962  24.212  55.047  1.00  0.00     0.042 A 
HETATM   20  C   UNL     1       8.238  23.342  53.974  1.00  0.00    -0.021 A 
HETATM   21  C   UNL     1       8.301  23.857  52.675  1.00  0.00     0.012 A 
HETATM   22  C   UNL     1       8.087  25.212  52.447  1.00  0.00     0.003 A 
HETATM   23  C   UNL     1       7.829  26.064  53.521  1.00  0.00     0.029 A 
BRANCH  20  24
HETATM   24  C   UNL     1       8.486  21.929  54.203  1.00  0.00     0.010 A 
HETATM   25  C   UNL     1       8.281  20.810  53.361  1.00  0.00     0.152 A 
HETATM   26  N   UNL     1       8.632  19.658  53.936  1.00  0.00    -0.187 NA
HETATM   27  N   UNL     1       9.059  20.031  55.153  1.00  0.00    -0.289 N 
HETATM   28  H   UNL     1       9.379  19.310  55.791  1.00  0.00     0.188 HD
HETATM   29  C   UNL     1       8.994  21.379  55.362  1.00  0.00     0.123 A 
ENDBRANCH  20  24
ENDBRANCH   2  18
TORSDOF 6
ENDMDL
MODEL 3
REMARK VINA RESULT:      -9.1      2.078      2.727
REMARK  6 active torsions:
REMARK  status: ('A' for Active; 'I' for Inactive)
REMARK       I    between atoms: N_2  and  C_3 
REMARK    1  A    between atoms: C_3  and  C_4 
REMARK    2  A    between atoms: C_6  and  C_7 
REMARK    3  A    between atoms: C_7  and  C_8 
REMARK    4  A    between atoms: C_8  and  C_9 
REMARK       I    between atoms: C_9  and  N_10 
REMARK    5  A    between atoms: N_10  and  C_11 
REMARK    6  A    between atoms: C_13  and  C_14 
ROOT
HETATM    1  C   UNL     1       4.177  27.672  53.074  1.00  0.00     0.222 C 
HETATM    2  N   UNL     1       4.451  26.348  52.952  1.00  0.00    -0.327 N 
HETATM    3  O   UNL     1       2.987  27.998  52.962  1.00  0.00    -0.273 OA
HETATM    4  H   UNL     1       3.592  25.854  52.733  1.00  0.00     0.169 HD
ENDROOT
BRANCH   1   5
HETATM    5  C   UNL     1       5.219  28.741  53.309  1.00  0.00     0.108 C 
BRANCH   5   6
HETATM    6  C   UNL     1       5.171  29.372  54.701  1.00  0.00     0.048 C 
BRANCH   6   7
HETATM    7  C   UNL     1       6.235  28.992  55.711  1.00  0.00    -0.057 A 
HETATM    8  C   UNL     1       6.496  29.718  56.881  1.00  0.00     0.024 A 
HETATM    9  C   UNL     1       7.561  29.366  57.727  1.00  0.00     0.032 A 
HETATM   10  C   UNL     1       8.343  28.245  57.426  1.00  0.00     0.017 A 
HETATM   11  C   UNL     1       8.087  27.507  56.273  1.00  0.00     0.002 A 
HETATM   12  C   UNL     1       7.052  27.886  55.419  1.00  0.00     0.007 A 
BRANCH   9  13
HETATM   13  C   UNL     1       7.898  30.156  58.945  1.00  0.00     0.251 C 
HETATM   14  N   UNL     1       6.916  30.995  59.428  1.00  0.00    -0.361 N 
HETATM   15  C   UNL     1       7.188  31.891  60.523  1.00  0.00     0.149 C 
HETATM   16  H   UNL     1       6.077  31.155  58.885  1.00  0.00     0.162 HD
HETATM   17  O   UNL     1       9.018  30.077  59.440  1.00  0.00    -0.268 OA
ENDBRANCH   9  13
ENDBRANCH   6   7
ENDBRANCH   5   6
ENDBRANCH   1   5
BRANCH   2  18
HETATM   18  C   UNL     1       5.595  25.536  53.046  1.00  0.00     0.035 A 
HETATM   19  C   UNL     1       5.976  24.777  54.153  1.00  0.00     0.042 A 
HETATM   20  C   UNL     1       7.175  24.038  54.149  1.00  0.00    -0.021 A 
HETATM   21  C   UNL     1       7.978  24.042  53.004  1.00  0.00     0.012 A 
HETATM   22  C   UNL     1       7.592  24.765  51.880  1.00  0.00     0.003 A 
HETATM   23  C   UNL     1       6.410  25.504  51.904  1.00  0.00     0.029 A 
BRANCH  20  24
HETATM   24  C   UNL     1       7.600  23.297  55.326  1.00  0.00     0.010 A 
HETATM   25  C   UNL     1       7.763  21.906  55.529  1.00  0.00     0.152 A 
HETATM   26  N   UNL     1       8.172  21.607  56.763  1.00  0.00    -0.187 NA
HETATM   27  N   UNL     1       8.266  22.806  57.361  1.00  0.00    -0.289 N 
HETATM   28  H   UNL     1       8.559  22.835  58.333  1.00  0.00     0.188 HD
HETATM   29  C   UNL     1       7.937  23.849  56.544  1.00  0.00     0.123 A 
ENDBRANCH  20  24
ENDBRANCH   2  18
TORSDOF 6
ENDMDL
MODEL 4
REMARK VINA RESULT:      -9.0      2.206      8.667
REMARK  6 active torsions:
REMARK  status: ('A' for Active; 'I' for Inactive)
REMARK       I    between atoms: N_2  and  C_3 
REMARK    1  A    between atoms: C_3  and  C_4 
REMARK    2  A    between atoms: C_6  and  C_7 
REMARK    3  A    between atoms: C_7  and  C_8 
REMARK    4  A    between atoms: C_8  and  C_9 
REMARK       I    between atoms: C_9  and  N_10 
REMARK    5  A    between atoms: N_10  and  C_11 
REMARK    6  A    between atoms: C_13  and  C_14 
ROOT
HETATM    1  C   UNL     1       6.009  28.191  55.454  1.00  0.00     0.222 C 
HETATM    2  N   UNL     1       7.125  28.963  55.431  1.00  0.00    -0.327 N 
HETATM    3  O   UNL     1       5.454  27.997  54.363  1.00  0.00    -0.273 OA
HETATM    4  H   UNL     1       7.276  29.294  54.482  1.00  0.00     0.169 HD
ENDROOT
BRANCH   1   5
HETATM    5  C   UNL     1       5.411  27.592  56.706  1.00  0.00     0.108 C 
BRANCH   5   6
HETATM    6  C   UNL     1       5.281  26.068  56.674  1.00  0.00     0.048 C 
BRANCH   6   7
HETATM    7  C   UNL     1       6.508  25.238  56.357  1.00  0.00    -0.057 A 
HETATM    8  C   UNL     1       6.606  24.377  55.256  1.00  0.00     0.024 A 
HETATM    9  C   UNL     1       7.736  23.564  55.072  1.00  0.00     0.032 A 
HETATM   10  C   UNL     1       8.803  23.649  55.973  1.00  0.00     0.017 A 
HETATM   11  C   UNL     1       8.726  24.509  57.066  1.00  0.00     0.002 A 
HETATM   12  C   UNL     1       7.584  25.285  57.261  1.00  0.00     0.007 A 
BRANCH   9  13
HETATM   13  C   UNL     1       7.839  22.596  53.944  1.00  0.00     0.251 C 
HETATM   14  N   UNL     1       8.445  21.387  54.222  1.00  0.00    -0.361 N 
HETATM   15  C   UNL     1       8.705  20.437  53.171  1.00  0.00     0.149 C 
HETATM   16  H   UNL     1       8.913  21.250  55.108  1.00  0.00     0.162 HD
HETATM   17  O   UNL     1       7.439  22.905  52.827  1.00  0.00    -0.268 OA
ENDBRANCH   9  13
ENDBRANCH   6   7
ENDBRANCH   5   6
ENDBRANCH   1   5
BRANCH   2  18
HETATM   18  C   UNL     1       8.075  29.402  56.369  1.00  0.00     0.035 A 
HETATM   19  C   UNL     1       7.810  29.813  57.676  1.00  0.00     0.042 A 
HETATM   20  C   UNL     1       8.841  30.281  58.514  1.00  0.00    -0.021 A 
HETATM   21  C   UNL     1      10.155  30.303  58.036  1.00  0.00     0.012 A 
HETATM   22  C   UNL     1      10.439  29.861  56.747  1.00  0.00     0.003 A 
HETATM   23  C   UNL     1       9.406  29.415  55.924  1.00  0.00     0.029 A 
BRANCH  20  24
HETATM   24  C   UNL     1       8.553  30.766  59.854  1.00  0.00     0.010 A 
HETATM   25  C   UNL     1       9.221  30.535  61.080  1.00  0.00     0.152 A 
HETATM   26  N   UNL     1       8.646  31.161  62.109  1.00  0.00    -0.187 NA
HETATM   27  N   UNL     1       7.601  31.792  61.548  1.00  0.00    -0.289 N 
HETATM   28  H   UNL     1       6.995  32.342  62.148  1.00  0.00     0.188 HD
HETATM   29  C   UNL     1       7.503  31.590  60.201  1.00  0.00     0.123 A 
ENDBRANCH  20  24
ENDBRANCH   2  18
TORSDOF 6
ENDMDL
MODEL 5
REMARK VINA RESULT:      -9.0      3.907     11.603
REMARK  6 active torsions:
REMARK  status: ('A' for Active; 'I' for Inactive)
REMARK       I    between atoms: N_2  and  C_3 
REMARK    1  A    between atoms: C_3  and  C_4 
REMARK    2  A    between atoms: C_6  and  C_7 
REMARK    3  A    between atoms: C_7  and  C_8 
REMARK    4  A    between atoms: C_8  and  C_9 
REMARK       I    between atoms: C_9  and  N_10 
REMARK    5  A    between atoms: N_10  and  C_11 
REMARK    6  A    between atoms: C_13  and  C_14 
ROOT
HETATM    1  C   UNL     1       9.107  31.080  61.983  1.00  0.00     0.222 C 
HETATM    2  N   UNL     1       8.184  31.376  62.934  1.00  0.00    -0.327 N 
HETATM    3  O   UNL     1       9.487  29.902  61.936  1.00  0.00    -0.273 OA
HETATM    4  H   UNL     1       8.006  30.544  63.487  1.00  0.00     0.169 HD
ENDROOT
BRANCH   1   5
HETATM    5  C   UNL     1       9.695  32.088  61.022  1.00  0.00     0.108 C 
BRANCH   5   6
HETATM    6  C   UNL     1       8.988  32.154  59.668  1.00  0.00     0.048 C 
BRANCH   6   7
HETATM    7  C   UNL     1       9.234  31.047  58.662  1.00  0.00    -0.057 A 
HETATM    8  C   UNL     1       8.364  29.966  58.462  1.00  0.00     0.024 A 
HETATM    9  C   UNL     1       8.697  28.925  57.582  1.00  0.00     0.032 A 
HETATM   10  C   UNL     1       9.891  28.988  56.855  1.00  0.00     0.017 A 
HETATM   11  C   UNL     1      10.760  30.062  57.033  1.00  0.00     0.002 A 
HETATM   12  C   UNL     1      10.439  31.073  57.939  1.00  0.00     0.007 A 
BRANCH   9  13
HETATM   13  C   UNL     1       7.820  27.734  57.396  1.00  0.00     0.251 C 
HETATM   14  N   UNL     1       6.971  27.757  56.308  1.00  0.00    -0.361 N 
HETATM   15  C   UNL     1       5.998  26.713  56.113  1.00  0.00     0.149 C 
HETATM   16  H   UNL     1       6.866  28.606  55.768  1.00  0.00     0.162 HD
HETATM   17  O   UNL     1       7.841  26.819  58.212  1.00  0.00    -0.268 OA
ENDBRANCH   9  13
ENDBRANCH   6   7
ENDBRANCH   5   6
ENDBRANCH   1   5
BRANCH   2  18
HETATM   18  C   UNL     1       7.456  32.514  63.321  1.00  0.00     0.035 A 
HETATM   19  C   UNL     1       7.164  32.897  64.631  1.00  0.00     0.042 A 
HETATM   20  C   UNL     1       6.380  34.036  64.898  1.00  0.00    -0.021 A 
HETATM   21  C   UNL     1       5.913  34.811  63.831  1.00  0.00     0.012 A 
HETATM   22  C   UNL     1       6.225  34.460  62.521  1.00  0.00     0.003 A 
HETATM   23  C   UNL     1       6.991  33.322  62.272  1.00  0.00     0.029 A 
BRANCH  20  24
HETATM   24  C   UNL     1       6.028  34.399  66.261  1.00  0.00     0.010 A 
HETATM   25  C   UNL     1       6.789  34.350  67.453  1.00  0.00     0.152 A 
HETATM   26  N   UNL     1       6.108  34.770  68.521  1.00  0.00    -0.187 NA
HETATM   27  N   UNL     1       4.902  35.084  68.019  1.00  0.00    -0.289 N 
HETATM   28  H   UNL     1       4.192  35.429  68.658  1.00  0.00     0.188 HD
HETATM   29  C   UNL     1       4.804  34.883  66.672  1.00  0.00     0.123 A 
ENDBRANCH  20  24
ENDBRANCH   2  18
TORSDOF 6
ENDMDL
MODEL 6
REMARK VINA RESULT:      -8.9      4.630      8.366
REMARK  6 active torsions:
REMARK  status: ('A' for Active; 'I' for Inactive)
REMARK       I    between atoms: N_2  and  C_3 
REMARK    1  A    between atoms: C_3  and  C_4 
REMARK    2  A    between atoms: C_6  and  C_7 
REMARK    3  A    between atoms: C_7  and  C_8 
REMARK    4  A    between atoms: C_8  and  C_9 
REMARK       I    between atoms: C_9  and  N_10 
REMARK    5  A    between atoms: N_10  and  C_11 
REMARK    6  A    between atoms: C_13  and  C_14 
ROOT
HETATM    1  C   UNL     1       5.238  26.500  53.515  1.00  0.00     0.222 C 
HETATM    2  N   UNL     1       5.437  25.873  54.702  1.00  0.00    -0.327 N 
HETATM    3  O   UNL     1       4.204  27.176  53.418  1.00  0.00    -0.273 OA
HETATM    4  H   UNL     1       4.636  26.045  55.302  1.00  0.00     0.169 HD
ENDROOT
BRANCH   1   5
HETATM    5  C   UNL     1       6.172  26.402  52.331  1.00  0.00     0.108 C 
BRANCH   5   6
HETATM    6  C   UNL     1       5.536  25.799  51.077  1.00  0.00     0.048 C 
BRANCH   6   7
HETATM    7  C   UNL     1       4.922  26.732  50.052  1.00  0.00    -0.057 A 
HETATM    8  C   UNL     1       3.941  26.341  49.129  1.00  0.00     0.024 A 
HETATM    9  C   UNL     1       3.482  27.230  48.144  1.00  0.00     0.032 A 
HETATM   10  C   UNL     1       3.972  28.540  48.111  1.00  0.00     0.017 A 
HETATM   11  C   UNL     1       4.937  28.947  49.029  1.00  0.00     0.002 A 
HETATM   12  C   UNL     1       5.415  28.046  49.980  1.00  0.00     0.007 A 
BRANCH   9  13
HETATM   13  C   UNL     1       2.486  26.822  47.113  1.00  0.00     0.251 C 
HETATM   14  N   UNL     1       1.397  27.652  46.945  1.00  0.00    -0.361 N 
HETATM   15  C   UNL     1       0.318  27.281  46.064  1.00  0.00     0.149 C 
HETATM   16  H   UNL     1       1.234  28.408  47.597  1.00  0.00     0.162 HD
HETATM   17  O   UNL     1       2.632  25.772  46.495  1.00  0.00    -0.268 OA
ENDBRANCH   9  13
ENDBRANCH   6   7
ENDBRANCH   5   6
ENDBRANCH   1   5
BRANCH   2  18
HETATM   18  C   UNL     1       6.441  25.070  55.270  1.00  0.00     0.035 A 
HETATM   19  C   UNL     1       6.851  23.818  54.809  1.00  0.00     0.042 A 
HETATM   20  C   UNL     1       7.838  23.080  55.491  1.00  0.00    -0.021 A 
HETATM   21  C   UNL     1       8.437  23.627  56.630  1.00  0.00     0.012 A 
HETATM   22  C   UNL     1       8.064  24.890  57.080  1.00  0.00     0.003 A 
HETATM   23  C   UNL     1       7.075  25.603  56.403  1.00  0.00     0.029 A 
BRANCH  20  24
HETATM   24  C   UNL     1       8.220  21.751  55.044  1.00  0.00     0.010 A 
HETATM   25  C   UNL     1       8.164  21.160  53.759  1.00  0.00     0.152 A 
HETATM   26  N   UNL     1       8.607  19.901  53.748  1.00  0.00    -0.187 NA
HETATM   27  N   UNL     1       8.944  19.676  55.028  1.00  0.00    -0.289 N 
HETATM   28  H   UNL     1       9.309  18.761  55.274  1.00  0.00     0.188 HD
HETATM   29  C   UNL     1       8.733  20.751  55.844  1.00  0.00     0.123 A 
ENDBRANCH  20  24
ENDBRANCH   2  18
TORSDOF 6
ENDMDL
MODEL 7
REMARK VINA RESULT:      -8.8      4.187      7.334
REMARK  6 active torsions:
REMARK  status: ('A' for Active; 'I' for Inactive)
REMARK       I    between atoms: N_2  and  C_3 
REMARK    1  A    between atoms: C_3  and  C_4 
REMARK    2  A    between atoms: C_6  and  C_7 
REMARK    3  A    between atoms: C_7  and  C_8 
REMARK    4  A    between atoms: C_8  and  C_9 
REMARK       I    between atoms: C_9  and  N_10 
REMARK    5  A    between atoms: N_10  and  C_11 
REMARK    6  A    between atoms: C_13  and  C_14 
ROOT
HETATM    1  C   UNL     1       5.278  27.353  54.901  1.00  0.00     0.222 C 
HETATM    2  N   UNL     1       6.115  26.319  55.175  1.00  0.00    -0.327 N 
HETATM    3  O   UNL     1       4.975  28.081  55.857  1.00  0.00    -0.273 OA
HETATM    4  H   UNL     1       6.306  26.308  56.172  1.00  0.00     0.169 HD
ENDROOT
BRANCH   1   5
HETATM    5  C   UNL     1       4.695  27.641  53.537  1.00  0.00     0.108 C 
BRANCH   5   6
HETATM    6  C   UNL     1       5.418  28.744  52.764  1.00  0.00     0.048 C 
BRANCH   6   7
HETATM    7  C   UNL     1       5.258  28.804  51.258  1.00  0.00    -0.057 A 
HETATM    8  C   UNL     1       4.839  27.721  50.473  1.00  0.00     0.024 A 
HETATM    9  C   UNL     1       4.802  27.815  49.073  1.00  0.00     0.032 A 
HETATM   10  C   UNL     1       5.139  29.022  48.451  1.00  0.00     0.017 A 
HETATM   11  C   UNL     1       5.545  30.112  49.218  1.00  0.00     0.002 A 
HETATM   12  C   UNL     1       5.616  29.997  50.606  1.00  0.00     0.007 A 
BRANCH   9  13
HETATM   13  C   UNL     1       4.420  26.660  48.212  1.00  0.00     0.251 C 
HETATM   14  N   UNL     1       3.320  25.929  48.612  1.00  0.00    -0.361 N 
HETATM   15  C   UNL     1       2.947  24.723  47.918  1.00  0.00     0.149 C 
HETATM   16  H   UNL     1       2.904  26.100  49.519  1.00  0.00     0.162 HD
HETATM   17  O   UNL     1       5.096  26.372  47.230  1.00  0.00    -0.268 OA
ENDBRANCH   9  13
ENDBRANCH   6   7
ENDBRANCH   5   6
ENDBRANCH   1   5
BRANCH   2  18
HETATM   18  C   UNL     1       6.744  25.301  54.439  1.00  0.00     0.035 A 
HETATM   19  C   UNL     1       7.036  24.016  54.896  1.00  0.00     0.042 A 
HETATM   20  C   UNL     1       7.717  23.091  54.081  1.00  0.00    -0.021 A 
HETATM   21  C   UNL     1       8.077  23.460  52.781  1.00  0.00     0.012 A 
HETATM   22  C   UNL     1       7.760  24.726  52.299  1.00  0.00     0.003 A 
HETATM   23  C   UNL     1       7.098  25.636  53.123  1.00  0.00     0.029 A 
BRANCH  20  24
HETATM   24  C   UNL     1       8.074  21.774  54.581  1.00  0.00     0.010 A 
HETATM   25  C   UNL     1       7.899  21.196  55.862  1.00  0.00     0.152 A 
HETATM   26  N   UNL     1       8.366  19.948  55.936  1.00  0.00    -0.187 NA
HETATM   27  N   UNL     1       8.849  19.721  54.704  1.00  0.00    -0.289 N 
HETATM   28  H   UNL     1       9.272  18.818  54.514  1.00  0.00     0.188 HD
HETATM   29  C   UNL     1       8.697  20.780  53.855  1.00  0.00     0.123 A 
ENDBRANCH  20  24
ENDBRANCH   2  18
TORSDOF 6
ENDMDL
MODEL 8
REMARK VINA RESULT:      -8.8      1.900      2.186
REMARK  6 active torsions:
REMARK  status: ('A' for Active; 'I' for Inactive)
REMARK       I    between atoms: N_2  and  C_3 
REMARK    1  A    between atoms: C_3  and  C_4 
REMARK    2  A    between atoms: C_6  and  C_7 
REMARK    3  A    between atoms: C_7  and  C_8 
REMARK    4  A    between atoms: C_8  and  C_9 
REMARK       I    between atoms: C_9  and  N_10 
REMARK    5  A    between atoms: N_10  and  C_11 
REMARK    6  A    between atoms: C_13  and  C_14 
ROOT
HETATM    1  C   UNL     1       5.378  27.426  54.305  1.00  0.00     0.222 C 
HETATM    2  N   UNL     1       5.325  26.071  54.226  1.00  0.00    -0.327 N 
HETATM    3  O   UNL     1       4.369  27.988  54.753  1.00  0.00    -0.273 OA
HETATM    4  H   UNL     1       4.404  25.762  54.519  1.00  0.00     0.169 HD
ENDROOT
BRANCH   1   5
HETATM    5  C   UNL     1       6.558  28.260  53.865  1.00  0.00     0.108 C 
BRANCH   5   6
HETATM    6  C   UNL     1       7.801  28.104  54.742  1.00  0.00     0.048 C 
BRANCH   6   7
HETATM    7  C   UNL     1       7.898  28.915  56.019  1.00  0.00    -0.057 A 
HETATM    8  C   UNL     1       6.856  29.702  56.526  1.00  0.00     0.024 A 
HETATM    9  C   UNL     1       7.043  30.503  57.664  1.00  0.00     0.032 A 
HETATM   10  C   UNL     1       8.272  30.480  58.333  1.00  0.00     0.017 A 
HETATM   11  C   UNL     1       9.314  29.692  57.848  1.00  0.00     0.002 A 
HETATM   12  C   UNL     1       9.131  28.929  56.696  1.00  0.00     0.007 A 
BRANCH   9  13
HETATM   13  C   UNL     1       5.971  31.396  58.188  1.00  0.00     0.251 C 
HETATM   14  N   UNL     1       4.796  30.787  58.578  1.00  0.00    -0.361 N 
HETATM   15  C   UNL     1       3.658  31.574  58.980  1.00  0.00     0.149 C 
HETATM   16  H   UNL     1       4.644  29.808  58.373  1.00  0.00     0.162 HD
HETATM   17  O   UNL     1       6.139  32.611  58.215  1.00  0.00    -0.268 OA
ENDBRANCH   9  13
ENDBRANCH   6   7
ENDBRANCH   5   6
ENDBRANCH   1   5
BRANCH   2  18
HETATM   18  C   UNL     1       6.203  25.042  53.844  1.00  0.00     0.035 A 
HETATM   19  C   UNL     1       6.597  23.961  54.633  1.00  0.00     0.042 A 
HETATM   20  C   UNL     1       7.525  23.014  54.159  1.00  0.00    -0.021 A 
HETATM   21  C   UNL     1       8.035  23.145  52.863  1.00  0.00     0.012 A 
HETATM   22  C   UNL     1       7.624  24.198  52.051  1.00  0.00     0.003 A 
HETATM   23  C   UNL     1       6.715  25.136  52.540  1.00  0.00     0.029 A 
BRANCH  20  24
HETATM   24  C   UNL     1       7.979  21.923  55.005  1.00  0.00     0.010 A 
HETATM   25  C   UNL     1       8.316  21.903  56.380  1.00  0.00     0.152 A 
HETATM   26  N   UNL     1       8.698  20.696  56.802  1.00  0.00    -0.187 NA
HETATM   27  N   UNL     1       8.613  19.937  55.698  1.00  0.00    -0.289 N 
HETATM   28  H   UNL     1       8.866  18.956  55.770  1.00  0.00     0.188 HD
HETATM   29  C   UNL     1       8.186  20.622  54.597  1.00  0.00     0.123 A 
ENDBRANCH  20  24
ENDBRANCH   2  18
TORSDOF 6
ENDMDL
MODEL 9
REMARK VINA RESULT:      -8.6      3.378      7.207
REMARK  6 active torsions:
REMARK  status: ('A' for Active; 'I' for Inactive)
REMARK       I    between atoms: N_2  and  C_3 
REMARK    1  A    between atoms: C_3  and  C_4 
REMARK    2  A    between atoms: C_6  and  C_7 
REMARK    3  A    between atoms: C_7  and  C_8 
REMARK    4  A    between atoms: C_8  and  C_9 
REMARK       I    between atoms: C_9  and  N_10 
REMARK    5  A    between atoms: N_10  and  C_11 
REMARK    6  A    between atoms: C_13  and  C_14 
ROOT
HETATM    1  C   UNL     1       5.119  25.545  52.186  1.00  0.00     0.222 C 
HETATM    2  N   UNL     1       4.406  26.325  53.040  1.00  0.00    -0.327 N 
HETATM    3  O   UNL     1       4.545  24.533  51.760  1.00  0.00    -0.273 OA
HETATM    4  H   UNL     1       3.509  25.883  53.215  1.00  0.00     0.169 HD
ENDROOT
BRANCH   1   5
HETATM    5  C   UNL     1       6.541  25.826  51.760  1.00  0.00     0.108 C 
BRANCH   5   6
HETATM    6  C   UNL     1       7.442  24.591  51.722  1.00  0.00     0.048 C 
BRANCH   6   7
HETATM    7  C   UNL     1       7.707  23.843  53.013  1.00  0.00    -0.057 A 
HETATM    8  C   UNL     1       7.719  24.446  54.277  1.00  0.00     0.024 A 
HETATM    9  C   UNL     1       8.065  23.713  55.424  1.00  0.00     0.032 A 
HETATM   10  C   UNL     1       8.355  22.349  55.312  1.00  0.00     0.017 A 
HETATM   11  C   UNL     1       8.335  21.732  54.064  1.00  0.00     0.002 A 
HETATM   12  C   UNL     1       8.027  22.476  52.925  1.00  0.00     0.007 A 
BRANCH   9  13
HETATM   13  C   UNL     1       8.145  24.344  56.772  1.00  0.00     0.251 C 
HETATM   14  N   UNL     1       7.522  25.567  56.920  1.00  0.00    -0.361 N 
HETATM   15  C   UNL     1       7.650  26.313  58.145  1.00  0.00     0.149 C 
HETATM   16  H   UNL     1       7.166  26.052  56.106  1.00  0.00     0.162 HD
HETATM   17  O   UNL     1       8.779  23.801  57.671  1.00  0.00    -0.268 OA
ENDBRANCH   9  13
ENDBRANCH   6   7
ENDBRANCH   5   6
ENDBRANCH   1   5
BRANCH   2  18
HETATM   18  C   UNL     1       4.611  27.540  53.715  1.00  0.00     0.035 A 
HETATM   19  C   UNL     1       5.680  27.841  54.560  1.00  0.00     0.042 A 
HETATM   20  C   UNL     1       5.755  29.081  55.224  1.00  0.00    -0.021 A 
HETATM   21  C   UNL     1       4.756  30.036  55.006  1.00  0.00     0.012 A 
HETATM   22  C   UNL     1       3.703  29.762  54.138  1.00  0.00     0.003 A 
HETATM   23  C   UNL     1       3.635  28.525  53.499  1.00  0.00     0.029 A 
BRANCH  20  24
HETATM   24  C   UNL     1       6.837  29.369  56.150  1.00  0.00     0.010 A 
HETATM   25  C   UNL     1       6.808  29.873  57.473  1.00  0.00     0.152 A 
HETATM   26  N   UNL     1       8.026  30.005  58.003  1.00  0.00    -0.187 NA
HETATM   27  N   UNL     1       8.843  29.593  57.021  1.00  0.00    -0.289 N 
HETATM   28  H   UNL     1       9.843  29.610  57.190  1.00  0.00     0.188 HD
HETATM   29  C   UNL     1       8.182  29.200  55.892  1.00  0.00     0.123 A 
ENDBRANCH  20  24
ENDBRANCH   2  18
TORSDOF 6
ENDMDL
MODEL 10
REMARK VINA RESULT:      -8.6      4.112      7.168
REMARK  6 active torsions:
REMARK  status: ('A' for Active; 'I' for Inactive)
REMARK       I    between atoms: N_2  and  C_3 
REMARK    1  A    between atoms: C_3  and  C_4 
REMARK    2  A    between atoms: C_6  and  C_7 
REMARK    3  A    between atoms: C_7  and  C_8 
REMARK    4  A    between atoms: C_8  and  C_9 
REMARK       I    between atoms: C_9  and  N_10 
REMARK    5  A    between atoms: N_10  and  C_11 
REMARK    6  A    between atoms: C_13  and  C_14 
ROOT
HETATM    1  C   UNL     1       5.443  26.431  53.906  1.00  0.00     0.222 C 
HETATM    2  N   UNL     1       5.807  25.986  55.136  1.00  0.00    -0.327 N 
HETATM    3  O   UNL     1       4.525  27.263  53.874  1.00  0.00    -0.273 OA
HETATM    4  H   UNL     1       5.195  26.403  55.830  1.00  0.00     0.169 HD
ENDROOT
BRANCH   1   5
HETATM    5  C   UNL     1       6.063  25.963  52.610  1.00  0.00     0.108 C 
BRANCH   5   6
HETATM    6  C   UNL     1       5.055  25.677  51.497  1.00  0.00     0.048 C 
BRANCH   6   7
HETATM    7  C   UNL     1       5.008  26.605  50.300  1.00  0.00    -0.057 A 
HETATM    8  C   UNL     1       5.376  27.957  50.345  1.00  0.00     0.024 A 
HETATM    9  C   UNL     1       5.218  28.786  49.223  1.00  0.00     0.032 A 
HETATM   10  C   UNL     1       4.735  28.246  48.025  1.00  0.00     0.017 A 
HETATM   11  C   UNL     1       4.378  26.902  47.961  1.00  0.00     0.002 A 
HETATM   12  C   UNL     1       4.501  26.094  49.092  1.00  0.00     0.007 A 
BRANCH   9  13
HETATM   13  C   UNL     1       5.543  30.240  49.261  1.00  0.00     0.251 C 
HETATM   14  N   UNL     1       4.899  31.041  48.340  1.00  0.00    -0.361 N 
HETATM   15  C   UNL     1       5.239  32.435  48.214  1.00  0.00     0.149 C 
HETATM   16  H   UNL     1       4.355  30.619  47.598  1.00  0.00     0.162 HD
HETATM   17  O   UNL     1       6.380  30.665  50.051  1.00  0.00    -0.268 OA
ENDBRANCH   9  13
ENDBRANCH   6   7
ENDBRANCH   5   6
ENDBRANCH   1   5
BRANCH   2  18
HETATM   18  C   UNL     1       6.782  25.115  55.651  1.00  0.00     0.035 A 
HETATM   19  C   UNL     1       7.110  23.856  55.148  1.00  0.00     0.042 A 
HETATM   20  C   UNL     1       8.075  23.048  55.780  1.00  0.00    -0.021 A 
HETATM   21  C   UNL     1       8.736  23.532  56.913  1.00  0.00     0.012 A 
HETATM   22  C   UNL     1       8.446  24.800  57.405  1.00  0.00     0.003 A 
HETATM   23  C   UNL     1       7.477  25.583  56.777  1.00  0.00     0.029 A 
BRANCH  20  24
HETATM   24  C   UNL     1       8.370  21.712  55.288  1.00  0.00     0.010 A 
HETATM   25  C   UNL     1       8.259  21.164  53.988  1.00  0.00     0.152 A 
HETATM   26  N   UNL     1       8.627  19.883  53.933  1.00  0.00    -0.187 NA
HETATM   27  N   UNL     1       8.969  19.600  55.200  1.00  0.00    -0.289 N 
HETATM   28  H   UNL     1       9.283  18.658  55.414  1.00  0.00     0.188 HD
HETATM   29  C   UNL     1       8.835  20.661  56.050  1.00  0.00     0.123 A 
ENDBRANCH  20  24
ENDBRANCH   2  18
TORSDOF 6
ENDMDL
