MODEL 1
REMARK VINA RESULT:     -11.3      0.000      0.000
REMARK  9 active torsions:
REMARK  status: ('A' for Active; 'I' for Inactive)
REMARK    1  A    between atoms: C_2  and  C_3 
REMARK    2  A    between atoms: C_3  and  O_4 
REMARK    3  A    between atoms: O_4  and  C_5 
REMARK    4  A    between atoms: C_7  and  C_8 
REMARK       I    between atoms: C_8  and  N_9 
REMARK    5  A    between atoms: N_9  and  C_10 
REMARK    6  A    between atoms: C_10  and  N_11 
REMARK    7  A    between atoms: N_11  and  C_12 
REMARK    8  A    between atoms: C_14  and  O_15 
REMARK    9  A    between atoms: C_16  and  C_17 
ROOT
HETATM    1  C   UNL     1       6.783  29.369  57.949  1.00  0.00     0.036 A 
HETATM    2  C   UNL     1       5.676  28.837  57.289  1.00  0.00     0.067 A 
HETATM    3  C   UNL     1       5.747  27.586  56.665  1.00  0.00     0.082 A 
HETATM    4  C   UNL     1       6.926  26.828  56.693  1.00  0.00     0.050 A 
HETATM    5  C   UNL     1       8.013  27.348  57.420  1.00  0.00     0.021 A 
HETATM    6  C   UNL     1       7.936  28.594  58.061  1.00  0.00     0.030 A 
ENDROOT
BRANCH   1   7
HETATM    7  N   UNL     1       6.767  30.646  58.548  1.00  0.00    -0.333 N 
HETATM    8  H   UNL     1       5.881  31.153  58.515  1.00  0.00     0.168 HD
BRANCH   7   9
HETATM    9  C   UNL     1       7.709  31.225  59.369  1.00  0.00     0.179 C 
HETATM   10  S   UNL     1       9.303  31.613  59.029  1.00  0.00    -0.040 SA
BRANCH   9  11
HETATM   11  N   UNL     1       7.289  31.509  60.650  1.00  0.00    -0.299 N 
HETATM   12  C   UNL     1       6.298  32.379  61.081  1.00  0.00     0.257 C 
HETATM   13  O   UNL     1       5.368  32.761  60.378  1.00  0.00    -0.267 OA
HETATM   14  H   UNL     1       7.875  31.074  61.350  1.00  0.00     0.171 HD
BRANCH  12  15
HETATM   15  C   UNL     1       6.378  32.742  62.523  1.00  0.00     0.035 A 
HETATM   16  C   UNL     1       5.216  32.919  63.286  1.00  0.00     0.053 A 
HETATM   17  C   UNL     1       5.294  33.324  64.619  1.00  0.00     0.069 A 
HETATM   18  C   UNL     1       6.544  33.503  65.210  1.00  0.00     0.037 A 
HETATM   19  C   UNL     1       7.709  33.287  64.464  1.00  0.00     0.004 A 
HETATM   20  C   UNL     1       7.629  32.907  63.122  1.00  0.00     0.017 A 
BRANCH  17  21
HETATM   21  O   UNL     1       4.084  33.487  65.228  1.00  0.00    -0.351 OA
BRANCH  21  22
HETATM   22  C   UNL     1       3.440  34.752  65.064  1.00  0.00     0.175 C 
BRANCH  22  23
HETATM   23  C   UNL     1       3.275  35.360  66.454  1.00  0.00     0.022 C 
HETATM   24  C   UNL     1       4.503  36.139  66.887  1.00  0.00     0.007 C 
ENDBRANCH  22  23
ENDBRANCH  21  22
ENDBRANCH  17  21
ENDBRANCH  12  15
ENDBRANCH   9  11
ENDBRANCH   7   9
ENDBRANCH   1   7
BRANCH   3  25
HETATM   25  O   UNL     1       4.632  27.133  56.011  1.00  0.00    -0.360 OA
HETATM   26  H   UNL     1       4.876  26.413  55.408  1.00  0.00     0.217 HD
ENDBRANCH   3  25
BRANCH   4  27
HETATM   27  C   UNL     1       7.104  25.565  55.972  1.00  0.00     0.183 A 
HETATM   28  O   UNL     1       7.193  25.627  54.606  1.00  0.00    -0.288 OA
HETATM   29  C   UNL     1       7.454  24.349  54.218  1.00  0.00     0.112 A 
HETATM   30  C   UNL     1       7.482  23.567  55.359  1.00  0.00     0.094 A 
HETATM   31  C   UNL     1       7.672  23.892  52.919  1.00  0.00    -0.025 A 
HETATM   32  N   UNL     1       7.232  24.342  56.466  1.00  0.00    -0.221 NA
HETATM   33  C   UNL     1       7.757  22.199  55.235  1.00  0.00     0.041 A 
HETATM   34  C   UNL     1       8.013  21.678  53.951  1.00  0.00    -0.059 A 
HETATM   35  C   UNL     1       7.957  22.516  52.823  1.00  0.00     0.016 A 
HETATM   36  C   UNL     1       8.319  20.215  53.796  1.00  0.00     0.048 C 
HETATM   37  C   UNL     1       7.645  24.769  51.710  1.00  0.00     0.051 C 
ENDBRANCH   4  27
TORSDOF 9
ENDMDL
MODEL 2
REMARK VINA RESULT:     -11.1      0.949      1.696
REMARK  9 active torsions:
REMARK  status: ('A' for Active; 'I' for Inactive)
REMARK    1  A    between atoms: C_2  and  C_3 
REMARK    2  A    between atoms: C_3  and  O_4 
REMARK    3  A    between atoms: O_4  and  C_5 
REMARK    4  A    between atoms: C_7  and  C_8 
REMARK       I    between atoms: C_8  and  N_9 
REMARK    5  A    between atoms: N_9  and  C_10 
REMARK    6  A    between atoms: C_10  and  N_11 
REMARK    7  A    between atoms: N_11  and  C_12 
REMARK    8  A    between atoms: C_14  and  O_15 
REMARK    9  A    between atoms: C_16  and  C_17 
ROOT
HETATM    1  C   UNL     1       6.853  28.929  57.693  1.00  0.00     0.036 A 
HETATM    2  C   UNL     1       5.876  28.419  56.839  1.00  0.00     0.067 A 
HETATM    3  C   UNL     1       6.042  27.174  56.221  1.00  0.00     0.082 A 
HETATM    4  C   UNL     1       7.189  26.400  56.448  1.00  0.00     0.050 A 
HETATM    5  C   UNL     1       8.134  26.897  57.365  1.00  0.00     0.021 A 
HETATM    6  C   UNL     1       7.959  28.137  57.998  1.00  0.00     0.030 A 
ENDROOT
BRANCH   1   7
HETATM    7  N   UNL     1       6.746  30.199  58.298  1.00  0.00    -0.333 N 
HETATM    8  H   UNL     1       5.812  30.613  58.322  1.00  0.00     0.168 HD
BRANCH   7   9
HETATM    9  C   UNL     1       7.673  30.872  59.060  1.00  0.00     0.179 C 
HETATM   10  S   UNL     1       9.242  31.309  58.664  1.00  0.00    -0.040 SA
BRANCH   9  11
HETATM   11  N   UNL     1       7.263  31.220  60.328  1.00  0.00    -0.299 N 
HETATM   12  C   UNL     1       6.397  32.227  60.730  1.00  0.00     0.257 C 
HETATM   13  O   UNL     1       5.554  32.737  60.000  1.00  0.00    -0.267 OA
HETATM   14  H   UNL     1       7.758  30.706  61.045  1.00  0.00     0.171 HD
BRANCH  12  15
HETATM   15  C   UNL     1       6.488  32.581  62.174  1.00  0.00     0.035 A 
HETATM   16  C   UNL     1       5.331  32.768  62.942  1.00  0.00     0.053 A 
HETATM   17  C   UNL     1       5.420  33.164  64.277  1.00  0.00     0.069 A 
HETATM   18  C   UNL     1       6.673  33.323  64.865  1.00  0.00     0.037 A 
HETATM   19  C   UNL     1       7.833  33.097  64.113  1.00  0.00     0.004 A 
HETATM   20  C   UNL     1       7.743  32.726  62.769  1.00  0.00     0.017 A 
BRANCH  17  21
HETATM   21  O   UNL     1       4.214  33.338  64.893  1.00  0.00    -0.351 OA
BRANCH  21  22
HETATM   22  C   UNL     1       3.424  34.450  64.467  1.00  0.00     0.175 C 
BRANCH  22  23
HETATM   23  C   UNL     1       3.927  35.679  65.220  1.00  0.00     0.022 C 
HETATM   24  C   UNL     1       3.460  35.697  66.663  1.00  0.00     0.007 C 
ENDBRANCH  22  23
ENDBRANCH  21  22
ENDBRANCH  17  21
ENDBRANCH  12  15
ENDBRANCH   9  11
ENDBRANCH   7   9
ENDBRANCH   1   7
BRANCH   3  25
HETATM   25  O   UNL     1       5.057  26.744  55.372  1.00  0.00    -0.360 OA
HETATM   26  H   UNL     1       5.442  26.518  54.511  1.00  0.00     0.217 HD
ENDBRANCH   3  25
BRANCH   4  27
HETATM   27  C   UNL     1       7.478  25.143  55.753  1.00  0.00     0.183 A 
HETATM   28  O   UNL     1       7.738  24.041  56.527  1.00  0.00    -0.288 OA
HETATM   29  C   UNL     1       7.865  23.018  55.638  1.00  0.00     0.112 A 
HETATM   30  C   UNL     1       7.706  23.547  54.370  1.00  0.00     0.094 A 
HETATM   31  C   UNL     1       8.096  21.675  55.931  1.00  0.00    -0.025 A 
HETATM   32  N   UNL     1       7.488  24.902  54.450  1.00  0.00    -0.221 NA
HETATM   33  C   UNL     1       7.770  22.688  53.266  1.00  0.00     0.041 A 
HETATM   34  C   UNL     1       7.975  21.313  53.494  1.00  0.00    -0.059 A 
HETATM   35  C   UNL     1       8.145  20.830  54.805  1.00  0.00     0.016 A 
HETATM   36  C   UNL     1       8.039  20.372  52.325  1.00  0.00     0.048 C 
HETATM   37  C   UNL     1       8.252  21.136  57.316  1.00  0.00     0.051 C 
ENDBRANCH   4  27
TORSDOF 9
ENDMDL
MODEL 3
REMARK VINA RESULT:     -10.7      1.728      2.543
REMARK  9 active torsions:
REMARK  status: ('A' for Active; 'I' for Inactive)
REMARK    1  A    between atoms: C_2  and  C_3 
REMARK    2  A    between atoms: C_3  and  O_4 
REMARK    3  A    between atoms: O_4  and  C_5 
REMARK    4  A    between atoms: C_7  and  C_8 
REMARK       I    between atoms: C_8  and  N_9 
REMARK    5  A    between atoms: N_9  and  C_10 
REMARK    6  A    between atoms: C_10  and  N_11 
REMARK    7  A    between atoms: N_11  and  C_12 
REMARK    8  A    between atoms: C_14  and  O_15 
REMARK    9  A    between atoms: C_16  and  C_17 
ROOT
HETATM    1  C   UNL     1       5.412  28.712  57.417  1.00  0.00     0.036 A 
HETATM    2  C   UNL     1       6.726  28.336  57.696  1.00  0.00     0.067 A 
HETATM    3  C   UNL     1       7.295  27.213  57.083  1.00  0.00     0.082 A 
HETATM    4  C   UNL     1       6.568  26.441  56.166  1.00  0.00     0.050 A 
HETATM    5  C   UNL     1       5.267  26.872  55.845  1.00  0.00     0.021 A 
HETATM    6  C   UNL     1       4.703  28.007  56.446  1.00  0.00     0.030 A 
ENDROOT
BRANCH   1   7
HETATM    7  N   UNL     1       4.786  29.807  58.049  1.00  0.00    -0.333 N 
HETATM    8  H   UNL     1       4.107  29.583  58.779  1.00  0.00     0.168 HD
BRANCH   7   9
HETATM    9  C   UNL     1       5.113  31.142  57.984  1.00  0.00     0.179 C 
HETATM   10  S   UNL     1       5.052  32.177  56.667  1.00  0.00    -0.040 SA
BRANCH   9  11
HETATM   11  N   UNL     1       5.569  31.702  59.157  1.00  0.00    -0.299 N 
HETATM   12  C   UNL     1       6.871  31.867  59.608  1.00  0.00     0.257 C 
HETATM   13  O   UNL     1       7.853  31.887  58.874  1.00  0.00    -0.267 OA
HETATM   14  H   UNL     1       4.815  31.926  59.793  1.00  0.00     0.171 HD
BRANCH  12  15
HETATM   15  C   UNL     1       6.990  32.133  61.069  1.00  0.00     0.035 A 
HETATM   16  C   UNL     1       5.848  32.277  61.868  1.00  0.00     0.053 A 
HETATM   17  C   UNL     1       5.962  32.591  63.223  1.00  0.00     0.069 A 
HETATM   18  C   UNL     1       7.227  32.713  63.796  1.00  0.00     0.037 A 
HETATM   19  C   UNL     1       8.372  32.530  63.010  1.00  0.00     0.004 A 
HETATM   20  C   UNL     1       8.256  32.240  61.648  1.00  0.00     0.017 A 
BRANCH  17  21
HETATM   21  O   UNL     1       4.768  32.731  63.870  1.00  0.00    -0.351 OA
BRANCH  21  22
HETATM   22  C   UNL     1       4.750  33.577  65.021  1.00  0.00     0.175 C 
BRANCH  22  23
HETATM   23  C   UNL     1       4.124  34.903  64.599  1.00  0.00     0.022 C 
HETATM   24  C   UNL     1       4.226  35.956  65.687  1.00  0.00     0.007 C 
ENDBRANCH  22  23
ENDBRANCH  21  22
ENDBRANCH  17  21
ENDBRANCH  12  15
ENDBRANCH   9  11
ENDBRANCH   7   9
ENDBRANCH   1   7
BRANCH   3  25
HETATM   25  O   UNL     1       8.581  26.883  57.421  1.00  0.00    -0.360 OA
HETATM   26  H   UNL     1       8.599  26.508  58.315  1.00  0.00     0.217 HD
ENDBRANCH   3  25
BRANCH   4  27
HETATM   27  C   UNL     1       7.062  25.196  55.572  1.00  0.00     0.183 A 
HETATM   28  O   UNL     1       7.423  24.189  56.430  1.00  0.00    -0.288 OA
HETATM   29  C   UNL     1       7.737  23.141  55.620  1.00  0.00     0.112 A 
HETATM   30  C   UNL     1       7.580  23.567  54.313  1.00  0.00     0.094 A 
HETATM   31  C   UNL     1       8.129  21.863  56.013  1.00  0.00    -0.025 A 
HETATM   32  N   UNL     1       7.178  24.880  54.291  1.00  0.00    -0.221 NA
HETATM   33  C   UNL     1       7.821  22.659  53.273  1.00  0.00     0.041 A 
HETATM   34  C   UNL     1       8.196  21.341  53.603  1.00  0.00    -0.059 A 
HETATM   35  C   UNL     1       8.355  20.967  54.950  1.00  0.00     0.016 A 
HETATM   36  C   UNL     1       8.451  20.349  52.504  1.00  0.00     0.048 C 
HETATM   37  C   UNL     1       8.278  21.435  57.437  1.00  0.00     0.051 C 
ENDBRANCH   4  27
TORSDOF 9
ENDMDL
MODEL 4
REMARK VINA RESULT:     -10.4      1.125      2.025
REMARK  9 active torsions:
REMARK  status: ('A' for Active; 'I' for Inactive)
REMARK    1  A    between atoms: C_2  and  C_3 
REMARK    2  A    between atoms: C_3  and  O_4 
REMARK    3  A    between atoms: O_4  and  C_5 
REMARK    4  A    between atoms: C_7  and  C_8 
REMARK       I    between atoms: C_8  and  N_9 
REMARK    5  A    between atoms: N_9  and  C_10 
REMARK    6  A    between atoms: C_10  and  N_11 
REMARK    7  A    between atoms: N_11  and  C_12 
REMARK    8  A    between atoms: C_14  and  O_15 
REMARK    9  A    between atoms: C_16  and  C_17 
ROOT
HETATM    1  C   UNL     1       6.784  29.777  57.754  1.00  0.00     0.036 A 
HETATM    2  C   UNL     1       5.669  29.199  57.149  1.00  0.00     0.067 A 
HETATM    3  C   UNL     1       5.730  27.902  56.625  1.00  0.00     0.082 A 
HETATM    4  C   UNL     1       6.907  27.143  56.701  1.00  0.00     0.050 A 
HETATM    5  C   UNL     1       8.003  27.715  57.375  1.00  0.00     0.021 A 
HETATM    6  C   UNL     1       7.936  29.008  57.916  1.00  0.00     0.030 A 
ENDROOT
BRANCH   1   7
HETATM    7  N   UNL     1       6.779  31.097  58.251  1.00  0.00    -0.333 N 
HETATM    8  H   UNL     1       6.247  31.783  57.713  1.00  0.00     0.168 HD
BRANCH   7   9
HETATM    9  C   UNL     1       7.202  31.558  59.477  1.00  0.00     0.179 C 
HETATM   10  S   UNL     1       8.767  31.769  60.038  1.00  0.00    -0.040 SA
BRANCH   9  11
HETATM   11  N   UNL     1       6.204  31.875  60.372  1.00  0.00    -0.299 N 
HETATM   12  C   UNL     1       4.924  32.356  60.132  1.00  0.00     0.257 C 
HETATM   13  O   UNL     1       4.331  32.222  59.068  1.00  0.00    -0.267 OA
HETATM   14  H   UNL     1       6.520  31.826  61.331  1.00  0.00     0.171 HD
BRANCH  12  15
HETATM   15  C   UNL     1       4.260  32.964  61.319  1.00  0.00     0.035 A 
HETATM   16  C   UNL     1       4.806  32.819  62.601  1.00  0.00     0.053 A 
HETATM   17  C   UNL     1       4.148  33.334  63.718  1.00  0.00     0.069 A 
HETATM   18  C   UNL     1       2.961  34.045  63.548  1.00  0.00     0.037 A 
HETATM   19  C   UNL     1       2.433  34.229  62.264  1.00  0.00     0.004 A 
HETATM   20  C   UNL     1       3.079  33.691  61.150  1.00  0.00     0.017 A 
BRANCH  17  21
HETATM   21  O   UNL     1       4.778  33.091  64.904  1.00  0.00    -0.351 OA
BRANCH  21  22
HETATM   22  C   UNL     1       5.447  34.193  65.521  1.00  0.00     0.175 C 
BRANCH  22  23
HETATM   23  C   UNL     1       6.884  33.757  65.793  1.00  0.00     0.022 C 
HETATM   24  C   UNL     1       7.601  33.328  64.526  1.00  0.00     0.007 C 
ENDBRANCH  22  23
ENDBRANCH  21  22
ENDBRANCH  17  21
ENDBRANCH  12  15
ENDBRANCH   9  11
ENDBRANCH   7   9
ENDBRANCH   1   7
BRANCH   3  25
HETATM   25  O   UNL     1       4.607  27.403  56.019  1.00  0.00    -0.360 OA
HETATM   26  H   UNL     1       3.850  27.979  56.208  1.00  0.00     0.217 HD
ENDBRANCH   3  25
BRANCH   4  27
HETATM   27  C   UNL     1       7.074  25.827  56.080  1.00  0.00     0.183 A 
HETATM   28  O   UNL     1       7.179  25.784  54.714  1.00  0.00    -0.288 OA
HETATM   29  C   UNL     1       7.425  24.476  54.428  1.00  0.00     0.112 A 
HETATM   30  C   UNL     1       7.428  23.783  55.625  1.00  0.00     0.094 A 
HETATM   31  C   UNL     1       7.650  23.919  53.171  1.00  0.00    -0.025 A 
HETATM   32  N   UNL     1       7.178  24.643  56.667  1.00  0.00    -0.221 NA
HETATM   33  C   UNL     1       7.684  22.406  55.609  1.00  0.00     0.041 A 
HETATM   34  C   UNL     1       7.946  21.785  54.371  1.00  0.00    -0.059 A 
HETATM   35  C   UNL     1       7.915  22.536  53.182  1.00  0.00     0.016 A 
HETATM   36  C   UNL     1       8.231  20.310  54.331  1.00  0.00     0.048 C 
HETATM   37  C   UNL     1       7.650  24.702  51.897  1.00  0.00     0.051 C 
ENDBRANCH   4  27
TORSDOF 9
ENDMDL
MODEL 5
REMARK VINA RESULT:     -10.2      1.748      2.100
REMARK  9 active torsions:
REMARK  status: ('A' for Active; 'I' for Inactive)
REMARK    1  A    between atoms: C_2  and  C_3 
REMARK    2  A    between atoms: C_3  and  O_4 
REMARK    3  A    between atoms: O_4  and  C_5 
REMARK    4  A    between atoms: C_7  and  C_8 
REMARK       I    between atoms: C_8  and  N_9 
REMARK    5  A    between atoms: N_9  and  C_10 
REMARK    6  A    between atoms: C_10  and  N_11 
REMARK    7  A    between atoms: N_11  and  C_12 
REMARK    8  A    between atoms: C_14  and  O_15 
REMARK    9  A    between atoms: C_16  and  C_17 
ROOT
HETATM    1  C   UNL     1       4.913  29.631  57.390  1.00  0.00     0.036 A 
HETATM    2  C   UNL     1       6.140  29.126  57.820  1.00  0.00     0.067 A 
HETATM    3  C   UNL     1       6.652  27.937  57.286  1.00  0.00     0.082 A 
HETATM    4  C   UNL     1       5.954  27.225  56.300  1.00  0.00     0.050 A 
HETATM    5  C   UNL     1       4.751  27.784  55.829  1.00  0.00     0.021 A 
HETATM    6  C   UNL     1       4.246  28.984  56.351  1.00  0.00     0.030 A 
ENDROOT
BRANCH   1   7
HETATM    7  N   UNL     1       4.340  30.798  57.937  1.00  0.00    -0.333 N 
HETATM    8  H   UNL     1       3.502  30.669  58.506  1.00  0.00     0.168 HD
BRANCH   7   9
HETATM    9  C   UNL     1       4.867  32.068  58.001  1.00  0.00     0.179 C 
HETATM   10  S   UNL     1       4.951  33.234  56.800  1.00  0.00    -0.040 SA
BRANCH   9  11
HETATM   11  N   UNL     1       5.414  32.426  59.214  1.00  0.00    -0.299 N 
HETATM   12  C   UNL     1       6.715  32.274  59.674  1.00  0.00     0.257 C 
HETATM   13  O   UNL     1       7.689  32.141  58.941  1.00  0.00    -0.267 OA
HETATM   14  H   UNL     1       4.716  32.755  59.867  1.00  0.00     0.171 HD
BRANCH  12  15
HETATM   15  C   UNL     1       6.866  32.395  61.151  1.00  0.00     0.035 A 
HETATM   16  C   UNL     1       5.747  32.563  61.976  1.00  0.00     0.053 A 
HETATM   17  C   UNL     1       5.897  32.742  63.352  1.00  0.00     0.069 A 
HETATM   18  C   UNL     1       7.172  32.702  63.915  1.00  0.00     0.037 A 
HETATM   19  C   UNL     1       8.291  32.494  63.098  1.00  0.00     0.004 A 
HETATM   20  C   UNL     1       8.141  32.340  61.718  1.00  0.00     0.017 A 
BRANCH  17  21
HETATM   21  O   UNL     1       4.725  32.924  64.026  1.00  0.00    -0.351 OA
BRANCH  21  22
HETATM   22  C   UNL     1       3.976  34.101  63.718  1.00  0.00     0.175 C 
BRANCH  22  23
HETATM   23  C   UNL     1       4.561  35.241  64.546  1.00  0.00     0.022 C 
HETATM   24  C   UNL     1       5.268  36.271  63.685  1.00  0.00     0.007 C 
ENDBRANCH  22  23
ENDBRANCH  21  22
ENDBRANCH  17  21
ENDBRANCH  12  15
ENDBRANCH   9  11
ENDBRANCH   7   9
ENDBRANCH   1   7
BRANCH   3  25
HETATM   25  O   UNL     1       7.849  27.481  57.771  1.00  0.00    -0.360 OA
HETATM   26  H   UNL     1       8.278  28.178  58.293  1.00  0.00     0.217 HD
ENDBRANCH   3  25
BRANCH   4  27
HETATM   27  C   UNL     1       6.376  25.924  55.777  1.00  0.00     0.183 A 
HETATM   28  O   UNL     1       6.711  25.857  54.450  1.00  0.00    -0.288 OA
HETATM   29  C   UNL     1       7.154  24.583  54.269  1.00  0.00     0.112 A 
HETATM   30  C   UNL     1       7.041  23.929  55.483  1.00  0.00     0.094 A 
HETATM   31  C   UNL     1       7.649  24.024  53.092  1.00  0.00    -0.025 A 
HETATM   32  N   UNL     1       6.521  24.779  56.429  1.00  0.00    -0.221 NA
HETATM   33  C   UNL     1       7.458  22.594  55.573  1.00  0.00     0.041 A 
HETATM   34  C   UNL     1       7.994  21.977  54.425  1.00  0.00    -0.059 A 
HETATM   35  C   UNL     1       8.071  22.685  53.212  1.00  0.00     0.016 A 
HETATM   36  C   UNL     1       8.454  20.549  54.501  1.00  0.00     0.048 C 
HETATM   37  C   UNL     1       7.767  24.765  51.800  1.00  0.00     0.051 C 
ENDBRANCH   4  27
TORSDOF 9
ENDMDL
MODEL 6
REMARK VINA RESULT:      -9.5      2.015      3.065
REMARK  9 active torsions:
REMARK  status: ('A' for Active; 'I' for Inactive)
REMARK    1  A    between atoms: C_2  and  C_3 
REMARK    2  A    between atoms: C_3  and  O_4 
REMARK    3  A    between atoms: O_4  and  C_5 
REMARK    4  A    between atoms: C_7  and  C_8 
REMARK       I    between atoms: C_8  and  N_9 
REMARK    5  A    between atoms: N_9  and  C_10 
REMARK    6  A    between atoms: C_10  and  N_11 
REMARK    7  A    between atoms: N_11  and  C_12 
REMARK    8  A    between atoms: C_14  and  O_15 
REMARK    9  A    between atoms: C_16  and  C_17 
ROOT
HETATM    1  C   UNL     1       5.544  28.755  57.448  1.00  0.00     0.036 A 
HETATM    2  C   UNL     1       6.857  28.361  57.703  1.00  0.00     0.067 A 
HETATM    3  C   UNL     1       7.398  27.228  57.085  1.00  0.00     0.082 A 
HETATM    4  C   UNL     1       6.641  26.462  56.185  1.00  0.00     0.050 A 
HETATM    5  C   UNL     1       5.341  26.911  55.888  1.00  0.00     0.021 A 
HETATM    6  C   UNL     1       4.805  28.058  56.494  1.00  0.00     0.030 A 
ENDROOT
BRANCH   1   7
HETATM    7  N   UNL     1       4.946  29.862  58.087  1.00  0.00    -0.333 N 
HETATM    8  H   UNL     1       4.745  29.758  59.083  1.00  0.00     0.168 HD
BRANCH   7   9
HETATM    9  C   UNL     1       4.793  31.148  57.620  1.00  0.00     0.179 C 
HETATM   10  S   UNL     1       4.941  31.721  56.053  1.00  0.00    -0.040 SA
BRANCH   9  11
HETATM   11  N   UNL     1       4.494  32.097  58.573  1.00  0.00    -0.299 N 
HETATM   12  C   UNL     1       5.117  32.356  59.786  1.00  0.00     0.257 C 
HETATM   13  O   UNL     1       6.272  32.036  60.045  1.00  0.00    -0.267 OA
HETATM   14  H   UNL     1       3.637  32.591  58.366  1.00  0.00     0.171 HD
BRANCH  12  15
HETATM   15  C   UNL     1       4.305  33.165  60.737  1.00  0.00     0.035 A 
HETATM   16  C   UNL     1       4.482  33.038  62.121  1.00  0.00     0.053 A 
HETATM   17  C   UNL     1       3.675  33.749  63.010  1.00  0.00     0.069 A 
HETATM   18  C   UNL     1       2.718  34.633  62.513  1.00  0.00     0.037 A 
HETATM   19  C   UNL     1       2.566  34.794  61.131  1.00  0.00     0.004 A 
HETATM   20  C   UNL     1       3.357  34.063  60.242  1.00  0.00     0.017 A 
BRANCH  17  21
HETATM   21  O   UNL     1       3.937  33.503  64.327  1.00  0.00    -0.351 OA
BRANCH  21  22
HETATM   22  C   UNL     1       5.298  33.247  64.680  1.00  0.00     0.175 C 
BRANCH  22  23
HETATM   23  C   UNL     1       5.617  34.098  65.906  1.00  0.00     0.022 C 
HETATM   24  C   UNL     1       4.460  34.144  66.886  1.00  0.00     0.007 C 
ENDBRANCH  22  23
ENDBRANCH  21  22
ENDBRANCH  17  21
ENDBRANCH  12  15
ENDBRANCH   9  11
ENDBRANCH   7   9
ENDBRANCH   1   7
BRANCH   3  25
HETATM   25  O   UNL     1       8.685  26.880  57.398  1.00  0.00    -0.360 OA
HETATM   26  H   UNL     1       8.788  26.843  58.363  1.00  0.00     0.217 HD
ENDBRANCH   3  25
BRANCH   4  27
HETATM   27  C   UNL     1       7.105  25.208  55.587  1.00  0.00     0.183 A 
HETATM   28  O   UNL     1       7.455  24.195  56.442  1.00  0.00    -0.288 OA
HETATM   29  C   UNL     1       7.740  23.140  55.629  1.00  0.00     0.112 A 
HETATM   30  C   UNL     1       7.579  23.568  54.324  1.00  0.00     0.094 A 
HETATM   31  C   UNL     1       8.111  21.855  56.020  1.00  0.00    -0.025 A 
HETATM   32  N   UNL     1       7.202  24.890  54.305  1.00  0.00    -0.221 NA
HETATM   33  C   UNL     1       7.792  22.656  53.282  1.00  0.00     0.041 A 
HETATM   34  C   UNL     1       8.144  21.331  53.609  1.00  0.00    -0.059 A 
HETATM   35  C   UNL     1       8.309  20.954  54.955  1.00  0.00     0.016 A 
HETATM   36  C   UNL     1       8.369  20.334  52.509  1.00  0.00     0.048 C 
HETATM   37  C   UNL     1       8.265  21.425  57.442  1.00  0.00     0.051 C 
ENDBRANCH   4  27
TORSDOF 9
ENDMDL
MODEL 7
REMARK VINA RESULT:      -9.5      1.958      3.229
REMARK  9 active torsions:
REMARK  status: ('A' for Active; 'I' for Inactive)
REMARK    1  A    between atoms: C_2  and  C_3 
REMARK    2  A    between atoms: C_3  and  O_4 
REMARK    3  A    between atoms: O_4  and  C_5 
REMARK    4  A    between atoms: C_7  and  C_8 
REMARK       I    between atoms: C_8  and  N_9 
REMARK    5  A    between atoms: N_9  and  C_10 
REMARK    6  A    between atoms: C_10  and  N_11 
REMARK    7  A    between atoms: N_11  and  C_12 
REMARK    8  A    between atoms: C_14  and  O_15 
REMARK    9  A    between atoms: C_16  and  C_17 
ROOT
HETATM    1  C   UNL     1       6.155  29.965  57.101  1.00  0.00     0.036 A 
HETATM    2  C   UNL     1       5.149  29.013  57.259  1.00  0.00     0.067 A 
HETATM    3  C   UNL     1       5.353  27.683  56.870  1.00  0.00     0.082 A 
HETATM    4  C   UNL     1       6.575  27.268  56.321  1.00  0.00     0.050 A 
HETATM    5  C   UNL     1       7.602  28.226  56.230  1.00  0.00     0.021 A 
HETATM    6  C   UNL     1       7.404  29.554  56.637  1.00  0.00     0.030 A 
ENDROOT
BRANCH   1   7
HETATM    7  N   UNL     1       5.974  31.323  57.435  1.00  0.00    -0.333 N 
HETATM    8  H   UNL     1       6.711  31.966  57.141  1.00  0.00     0.168 HD
BRANCH   7   9
HETATM    9  C   UNL     1       4.844  31.952  57.907  1.00  0.00     0.179 C 
HETATM   10  S   UNL     1       3.500  32.477  57.054  1.00  0.00    -0.040 SA
BRANCH   9  11
HETATM   11  N   UNL     1       4.819  32.197  59.262  1.00  0.00    -0.299 N 
HETATM   12  C   UNL     1       4.798  33.408  59.939  1.00  0.00     0.257 C 
HETATM   13  O   UNL     1       4.414  34.462  59.445  1.00  0.00    -0.267 OA
HETATM   14  H   UNL     1       4.929  31.352  59.806  1.00  0.00     0.171 HD
BRANCH  12  15
HETATM   15  C   UNL     1       5.179  33.319  61.377  1.00  0.00     0.035 A 
HETATM   16  C   UNL     1       6.404  32.761  61.762  1.00  0.00     0.053 A 
HETATM   17  C   UNL     1       6.730  32.619  63.111  1.00  0.00     0.069 A 
HETATM   18  C   UNL     1       5.847  33.086  64.083  1.00  0.00     0.037 A 
HETATM   19  C   UNL     1       4.638  33.682  63.703  1.00  0.00     0.004 A 
HETATM   20  C   UNL     1       4.302  33.800  62.352  1.00  0.00     0.017 A 
BRANCH  17  21
HETATM   21  O   UNL     1       7.940  32.031  63.339  1.00  0.00    -0.351 OA
BRANCH  21  22
HETATM   22  C   UNL     1       8.894  32.077  62.275  1.00  0.00     0.175 C 
BRANCH  22  23
HETATM   23  C   UNL     1       9.123  30.642  61.810  1.00  0.00     0.022 C 
HETATM   24  C   UNL     1       8.897  30.481  60.319  1.00  0.00     0.007 C 
ENDBRANCH  22  23
ENDBRANCH  21  22
ENDBRANCH  17  21
ENDBRANCH  12  15
ENDBRANCH   9  11
ENDBRANCH   7   9
ENDBRANCH   1   7
BRANCH   3  25
HETATM   25  O   UNL     1       4.316  26.804  57.028  1.00  0.00    -0.360 OA
HETATM   26  H   UNL     1       3.680  27.159  57.669  1.00  0.00     0.217 HD
ENDBRANCH   3  25
BRANCH   4  27
HETATM   27  C   UNL     1       6.820  25.923  55.793  1.00  0.00     0.183 A 
HETATM   28  O   UNL     1       7.067  25.809  54.450  1.00  0.00    -0.288 OA
HETATM   29  C   UNL     1       7.356  24.492  54.263  1.00  0.00     0.112 A 
HETATM   30  C   UNL     1       7.242  23.864  55.491  1.00  0.00     0.094 A 
HETATM   31  C   UNL     1       7.717  23.873  53.068  1.00  0.00    -0.025 A 
HETATM   32  N   UNL     1       6.875  24.775  56.452  1.00  0.00    -0.221 NA
HETATM   33  C   UNL     1       7.514  22.492  55.576  1.00  0.00     0.041 A 
HETATM   34  C   UNL     1       7.910  21.811  54.408  1.00  0.00    -0.059 A 
HETATM   35  C   UNL     1       7.995  22.496  53.182  1.00  0.00     0.016 A 
HETATM   36  C   UNL     1       8.214  20.341  54.479  1.00  0.00     0.048 C 
HETATM   37  C   UNL     1       7.840  24.586  51.760  1.00  0.00     0.051 C 
ENDBRANCH   4  27
TORSDOF 9
ENDMDL
MODEL 8
REMARK VINA RESULT:      -9.5      3.316      5.199
REMARK  9 active torsions:
REMARK  status: ('A' for Active; 'I' for Inactive)
REMARK    1  A    between atoms: C_2  and  C_3 
REMARK    2  A    between atoms: C_3  and  O_4 
REMARK    3  A    between atoms: O_4  and  C_5 
REMARK    4  A    between atoms: C_7  and  C_8 
REMARK       I    between atoms: C_8  and  N_9 
REMARK    5  A    between atoms: N_9  and  C_10 
REMARK    6  A    between atoms: C_10  and  N_11 
REMARK    7  A    between atoms: N_11  and  C_12 
REMARK    8  A    between atoms: C_14  and  O_15 
REMARK    9  A    between atoms: C_16  and  C_17 
ROOT
HETATM    1  C   UNL     1       3.989  29.708  55.104  1.00  0.00     0.036 A 
HETATM    2  C   UNL     1       3.930  28.711  56.077  1.00  0.00     0.067 A 
HETATM    3  C   UNL     1       4.672  27.532  55.940  1.00  0.00     0.082 A 
HETATM    4  C   UNL     1       5.504  27.324  54.830  1.00  0.00     0.050 A 
HETATM    5  C   UNL     1       5.605  28.368  53.892  1.00  0.00     0.021 A 
HETATM    6  C   UNL     1       4.874  29.557  54.038  1.00  0.00     0.030 A 
ENDROOT
BRANCH   1   7
HETATM    7  N   UNL     1       3.220  30.889  55.180  1.00  0.00    -0.333 N 
HETATM    8  H   UNL     1       2.305  30.865  54.726  1.00  0.00     0.168 HD
BRANCH   7   9
HETATM    9  C   UNL     1       3.422  32.000  55.967  1.00  0.00     0.179 C 
HETATM   10  S   UNL     1       2.676  33.498  55.881  1.00  0.00    -0.040 SA
BRANCH   9  11
HETATM   11  N   UNL     1       4.380  31.870  56.949  1.00  0.00    -0.299 N 
HETATM   12  C   UNL     1       4.223  31.696  58.316  1.00  0.00     0.257 C 
HETATM   13  O   UNL     1       3.207  31.249  58.838  1.00  0.00    -0.267 OA
HETATM   14  H   UNL     1       5.314  32.022  56.594  1.00  0.00     0.171 HD
BRANCH  12  15
HETATM   15  C   UNL     1       5.441  31.993  59.121  1.00  0.00     0.035 A 
HETATM   16  C   UNL     1       6.721  31.802  58.584  1.00  0.00     0.053 A 
HETATM   17  C   UNL     1       7.859  32.019  59.362  1.00  0.00     0.069 A 
HETATM   18  C   UNL     1       7.719  32.480  60.670  1.00  0.00     0.037 A 
HETATM   19  C   UNL     1       6.443  32.713  61.197  1.00  0.00     0.004 A 
HETATM   20  C   UNL     1       5.304  32.471  60.426  1.00  0.00     0.017 A 
BRANCH  17  21
HETATM   21  O   UNL     1       9.036  31.763  58.720  1.00  0.00    -0.351 OA
BRANCH  21  22
HETATM   22  C   UNL     1       9.513  30.417  58.753  1.00  0.00     0.175 C 
BRANCH  22  23
HETATM   23  C   UNL     1       9.930  30.048  57.332  1.00  0.00     0.022 C 
HETATM   24  C   UNL     1       8.867  29.236  56.617  1.00  0.00     0.007 C 
ENDBRANCH  22  23
ENDBRANCH  21  22
ENDBRANCH  17  21
ENDBRANCH  12  15
ENDBRANCH   9  11
ENDBRANCH   7   9
ENDBRANCH   1   7
BRANCH   3  25
HETATM   25  O   UNL     1       4.549  26.580  56.917  1.00  0.00    -0.360 OA
HETATM   26  H   UNL     1       5.429  26.296  57.210  1.00  0.00     0.217 HD
ENDBRANCH   3  25
BRANCH   4  27
HETATM   27  C   UNL     1       6.223  26.074  54.570  1.00  0.00     0.183 A 
HETATM   28  O   UNL     1       7.005  25.576  55.579  1.00  0.00    -0.288 OA
HETATM   29  C   UNL     1       7.459  24.382  55.107  1.00  0.00     0.112 A 
HETATM   30  C   UNL     1       6.958  24.225  53.827  1.00  0.00     0.094 A 
HETATM   31  C   UNL     1       8.267  23.466  55.778  1.00  0.00    -0.025 A 
HETATM   32  N   UNL     1       6.197  25.316  53.483  1.00  0.00    -0.221 NA
HETATM   33  C   UNL     1       7.263  23.054  53.121  1.00  0.00     0.041 A 
HETATM   34  C   UNL     1       8.054  22.074  53.752  1.00  0.00    -0.059 A 
HETATM   35  C   UNL     1       8.550  22.293  55.051  1.00  0.00     0.016 A 
HETATM   36  C   UNL     1       8.386  20.807  53.016  1.00  0.00     0.048 C 
HETATM   37  C   UNL     1       8.781  23.664  57.167  1.00  0.00     0.051 C 
ENDBRANCH   4  27
TORSDOF 9
ENDMDL
MODEL 9
REMARK VINA RESULT:      -9.4      2.120      3.252
REMARK  9 active torsions:
REMARK  status: ('A' for Active; 'I' for Inactive)
REMARK    1  A    between atoms: C_2  and  C_3 
REMARK    2  A    between atoms: C_3  and  O_4 
REMARK    3  A    between atoms: O_4  and  C_5 
REMARK    4  A    between atoms: C_7  and  C_8 
REMARK       I    between atoms: C_8  and  N_9 
REMARK    5  A    between atoms: N_9  and  C_10 
REMARK    6  A    between atoms: C_10  and  N_11 
REMARK    7  A    between atoms: N_11  and  C_12 
REMARK    8  A    between atoms: C_14  and  O_15 
REMARK    9  A    between atoms: C_16  and  C_17 
ROOT
HETATM    1  C   UNL     1       5.032  29.177  56.164  1.00  0.00     0.036 A 
HETATM    2  C   UNL     1       4.577  28.005  56.766  1.00  0.00     0.067 A 
HETATM    3  C   UNL     1       5.149  26.767  56.449  1.00  0.00     0.082 A 
HETATM    4  C   UNL     1       6.201  26.670  55.527  1.00  0.00     0.050 A 
HETATM    5  C   UNL     1       6.694  27.869  54.979  1.00  0.00     0.021 A 
HETATM    6  C   UNL     1       6.132  29.112  55.310  1.00  0.00     0.030 A 
ENDROOT
BRANCH   1   7
HETATM    7  N   UNL     1       4.450  30.436  56.419  1.00  0.00    -0.333 N 
HETATM    8  H   UNL     1       3.430  30.470  56.439  1.00  0.00     0.168 HD
BRANCH   7   9
HETATM    9  C   UNL     1       5.054  31.590  56.866  1.00  0.00     0.179 C 
HETATM   10  S   UNL     1       4.861  33.160  56.313  1.00  0.00    -0.040 SA
BRANCH   9  11
HETATM   11  N   UNL     1       5.952  31.431  57.899  1.00  0.00    -0.299 N 
HETATM   12  C   UNL     1       5.887  31.898  59.204  1.00  0.00     0.257 C 
HETATM   13  O   UNL     1       4.845  32.210  59.769  1.00  0.00    -0.267 OA
HETATM   14  H   UNL     1       6.808  30.987  57.597  1.00  0.00     0.171 HD
BRANCH  12  15
HETATM   15  C   UNL     1       7.189  31.893  59.928  1.00  0.00     0.035 A 
HETATM   16  C   UNL     1       7.253  32.192  61.295  1.00  0.00     0.053 A 
HETATM   17  C   UNL     1       8.481  32.251  61.955  1.00  0.00     0.069 A 
HETATM   18  C   UNL     1       9.651  31.958  61.256  1.00  0.00     0.037 A 
HETATM   19  C   UNL     1       9.589  31.618  59.899  1.00  0.00     0.004 A 
HETATM   20  C   UNL     1       8.361  31.584  59.233  1.00  0.00     0.017 A 
BRANCH  17  21
HETATM   21  O   UNL     1       8.394  32.584  63.276  1.00  0.00    -0.351 OA
BRANCH  21  22
HETATM   22  C   UNL     1       7.096  32.538  63.872  1.00  0.00     0.175 C 
BRANCH  22  23
HETATM   23  C   UNL     1       6.784  33.940  64.388  1.00  0.00     0.022 C 
HETATM   24  C   UNL     1       5.299  34.148  64.618  1.00  0.00     0.007 C 
ENDBRANCH  22  23
ENDBRANCH  21  22
ENDBRANCH  17  21
ENDBRANCH  12  15
ENDBRANCH   9  11
ENDBRANCH   7   9
ENDBRANCH   1   7
BRANCH   3  25
HETATM   25  O   UNL     1       4.638  25.651  57.055  1.00  0.00    -0.360 OA
HETATM   26  H   UNL     1       4.505  25.824  58.001  1.00  0.00     0.217 HD
ENDBRANCH   3  25
BRANCH   4  27
HETATM   27  C   UNL     1       6.773  25.401  55.068  1.00  0.00     0.183 A 
HETATM   28  O   UNL     1       7.197  24.519  56.028  1.00  0.00    -0.288 OA
HETATM   29  C   UNL     1       7.576  23.411  55.334  1.00  0.00     0.112 A 
HETATM   30  C   UNL     1       7.393  23.681  53.989  1.00  0.00     0.094 A 
HETATM   31  C   UNL     1       8.049  22.210  55.861  1.00  0.00    -0.025 A 
HETATM   32  N   UNL     1       6.909  24.956  53.827  1.00  0.00    -0.221 NA
HETATM   33  C   UNL     1       7.691  22.682  53.053  1.00  0.00     0.041 A 
HETATM   34  C   UNL     1       8.148  21.434  53.522  1.00  0.00    -0.059 A 
HETATM   35  C   UNL     1       8.330  21.220  54.900  1.00  0.00     0.016 A 
HETATM   36  C   UNL     1       8.466  20.347  52.535  1.00  0.00     0.048 C 
HETATM   37  C   UNL     1       8.224  21.950  57.322  1.00  0.00     0.051 C 
ENDBRANCH   4  27
TORSDOF 9
ENDMDL
MODEL 10
REMARK VINA RESULT:      -9.3      4.907      7.954
REMARK  9 active torsions:
REMARK  status: ('A' for Active; 'I' for Inactive)
REMARK    1  A    between atoms: C_2  and  C_3 
REMARK    2  A    between atoms: C_3  and  O_4 
REMARK    3  A    between atoms: O_4  and  C_5 
REMARK    4  A    between atoms: C_7  and  C_8 
REMARK       I    between atoms: C_8  and  N_9 
REMARK    5  A    between atoms: N_9  and  C_10 
REMARK    6  A    between atoms: C_10  and  N_11 
REMARK    7  A    between atoms: N_11  and  C_12 
REMARK    8  A    between atoms: C_14  and  O_15 
REMARK    9  A    between atoms: C_16  and  C_17 
ROOT
HETATM    1  C   UNL     1       5.441  28.555  57.314  1.00  0.00     0.036 A 
HETATM    2  C   UNL     1       6.752  28.187  57.613  1.00  0.00     0.067 A 
HETATM    3  C   UNL     1       7.329  27.053  57.029  1.00  0.00     0.082 A 
HETATM    4  C   UNL     1       6.612  26.261  56.120  1.00  0.00     0.050 A 
HETATM    5  C   UNL     1       5.314  26.684  55.778  1.00  0.00     0.021 A 
HETATM    6  C   UNL     1       4.742  27.831  56.350  1.00  0.00     0.030 A 
ENDROOT
BRANCH   1   7
HETATM    7  N   UNL     1       4.807  29.662  57.918  1.00  0.00    -0.333 N 
HETATM    8  H   UNL     1       4.401  29.504  58.841  1.00  0.00     0.168 HD
BRANCH   7   9
HETATM    9  C   UNL     1       4.845  30.986  57.545  1.00  0.00     0.179 C 
HETATM   10  S   UNL     1       5.172  32.334  58.485  1.00  0.00    -0.040 SA
BRANCH   9  11
HETATM   11  N   UNL     1       4.560  31.241  56.221  1.00  0.00    -0.299 N 
HETATM   12  C   UNL     1       3.335  31.262  55.570  1.00  0.00     0.257 C 
HETATM   13  O   UNL     1       2.261  31.430  56.138  1.00  0.00    -0.267 OA
HETATM   14  H   UNL     1       5.397  31.327  55.659  1.00  0.00     0.171 HD
BRANCH  12  15
HETATM   15  C   UNL     1       3.422  31.173  54.086  1.00  0.00     0.035 A 
HETATM   16  C   UNL     1       4.222  30.202  53.471  1.00  0.00     0.053 A 
HETATM   17  C   UNL     1       4.353  30.162  52.082  1.00  0.00     0.069 A 
HETATM   18  C   UNL     1       3.638  31.067  51.299  1.00  0.00     0.037 A 
HETATM   19  C   UNL     1       2.804  32.013  51.908  1.00  0.00     0.004 A 
HETATM   20  C   UNL     1       2.694  32.068  53.299  1.00  0.00     0.017 A 
BRANCH  17  21
HETATM   21  O   UNL     1       5.188  29.185  51.623  1.00  0.00    -0.351 OA
BRANCH  21  22
HETATM   22  C   UNL     1       5.894  28.423  52.604  1.00  0.00     0.175 C 
BRANCH  22  23
HETATM   23  C   UNL     1       6.097  27.023  52.030  1.00  0.00     0.022 C 
HETATM   24  C   UNL     1       4.837  26.182  52.113  1.00  0.00     0.007 C 
ENDBRANCH  22  23
ENDBRANCH  21  22
ENDBRANCH  17  21
ENDBRANCH  12  15
ENDBRANCH   9  11
ENDBRANCH   7   9
ENDBRANCH   1   7
BRANCH   3  25
HETATM   25  O   UNL     1       8.612  26.731  57.386  1.00  0.00    -0.360 OA
HETATM   26  H   UNL     1       8.764  26.971  58.314  1.00  0.00     0.217 HD
ENDBRANCH   3  25
BRANCH   4  27
HETATM   27  C   UNL     1       7.114  25.006  55.556  1.00  0.00     0.183 A 
HETATM   28  O   UNL     1       7.451  24.011  56.437  1.00  0.00    -0.288 OA
HETATM   29  C   UNL     1       7.778  22.949  55.649  1.00  0.00     0.112 A 
HETATM   30  C   UNL     1       7.652  23.356  54.333  1.00  0.00     0.094 A 
HETATM   31  C   UNL     1       8.156  21.676  56.070  1.00  0.00    -0.025 A 
HETATM   32  N   UNL     1       7.257  24.671  54.282  1.00  0.00    -0.221 NA
HETATM   33  C   UNL     1       7.912  22.432  53.312  1.00  0.00     0.041 A 
HETATM   34  C   UNL     1       8.274  21.117  53.670  1.00  0.00    -0.059 A 
HETATM   35  C   UNL     1       8.401  20.763  55.026  1.00  0.00     0.016 A 
HETATM   36  C   UNL     1       8.549  20.108  52.592  1.00  0.00     0.048 C 
HETATM   37  C   UNL     1       8.270  21.268  57.503  1.00  0.00     0.051 C 
ENDBRANCH   4  27
TORSDOF 9
ENDMDL
