MODEL 1
REMARK VINA RESULT:     -10.9      0.000      0.000
REMARK  5 active torsions:
REMARK  status: ('A' for Active; 'I' for Inactive)
REMARK    1  A    between atoms: C_5  and  C_6 
REMARK    2  A    between atoms: C_10  and  C_11 
REMARK       I    between atoms: C_11  and  N_12 
REMARK    3  A    between atoms: N_12  and  N_13 
REMARK       I    between atoms: N_13  and  C_14 
REMARK       I    between atoms: C_14  and  N_15 
REMARK    4  A    between atoms: N_15  and  C_16 
REMARK    5  A    between atoms: C_16  and  C_17 
ROOT
HETATM    1  C   UNL     1       9.354  29.421  57.685  1.00  0.00     0.288 C 
HETATM    2  N   UNL     1       8.344  28.491  57.591  1.00  0.00    -0.261 N 
HETATM    3  O   UNL     1      10.368  29.364  56.992  1.00  0.00    -0.264 OA
HETATM    4  H   UNL     1       7.509  28.497  58.171  1.00  0.00     0.190 HD
ENDROOT
BRANCH   2   5
HETATM    5  N   UNL     1       8.466  27.412  56.703  1.00  0.00    -0.249 N 
HETATM    6  C   UNL     1       8.204  26.164  57.228  1.00  0.00     0.334 C 
HETATM    7  N   UNL     1       8.195  25.187  56.266  1.00  0.00    -0.341 N 
HETATM    8  O   UNL     1       8.015  25.973  58.426  1.00  0.00    -0.246 OA
HETATM    9  H   UNL     1       8.749  25.388  55.445  1.00  0.00     0.164 HD
HETATM   10  H   UNL     1       8.200  27.609  55.744  1.00  0.00     0.192 HD
BRANCH   7  11
HETATM   11  C   UNL     1       8.041  23.790  56.627  1.00  0.00     0.129 C 
BRANCH  11  12
HETATM   12  C   UNL     1       7.114  23.013  55.671  1.00  0.00     0.004 C 
HETATM   13  C   UNL     1       6.826  23.775  54.365  1.00  0.00     0.010 C 
HETATM   14  C   UNL     1       8.035  23.834  53.419  1.00  0.00    -0.018 C 
HETATM   15  C   UNL     1       7.658  24.534  52.113  1.00  0.00     0.010 C 
HETATM   16  C   UNL     1       8.577  22.426  53.137  1.00  0.00     0.004 C 
HETATM   17  C   UNL     1       8.893  21.668  54.423  1.00  0.00     0.001 C 
HETATM   18  C   UNL     1       7.687  21.620  55.359  1.00  0.00     0.006 C 
ENDBRANCH  11  12
ENDBRANCH   7  11
ENDBRANCH   2   5
BRANCH   1  19
HETATM   19  C   UNL     1       9.134  30.458  58.656  1.00  0.00     0.121 A 
HETATM   20  N   UNL     1       9.792  31.655  58.605  1.00  0.00    -0.272 N 
HETATM   21  N   UNL     1       9.490  32.492  59.608  1.00  0.00    -0.174 NA
HETATM   22  H   UNL     1      10.475  31.946  57.911  1.00  0.00     0.189 HD
HETATM   23  C   UNL     1       8.563  31.840  60.327  1.00  0.00     0.089 A 
HETATM   24  C   UNL     1       8.317  30.557  59.764  1.00  0.00     0.071 A 
BRANCH  23  25
HETATM   25  C   UNL     1       7.949  32.426  61.520  1.00  0.00    -0.006 A 
HETATM   26  C   UNL     1       8.492  32.201  62.793  1.00  0.00     0.014 A 
HETATM   27  C   UNL     1       7.915  32.781  63.927  1.00  0.00     0.007 A 
HETATM   28  C   UNL     1       6.780  33.590  63.811  1.00  0.00    -0.062 A 
HETATM   29  C   UNL     1       6.179  34.245  65.019  1.00  0.00     0.048 C 
HETATM   30  C   UNL     1       6.238  33.821  62.542  1.00  0.00     0.007 A 
HETATM   31  C   UNL     1       6.812  33.237  61.409  1.00  0.00     0.014 A 
ENDBRANCH  23  25
ENDBRANCH   1  19
TORSDOF 5
ENDMDL
MODEL 2
REMARK VINA RESULT:     -10.6      0.956      1.775
REMARK  5 active torsions:
REMARK  status: ('A' for Active; 'I' for Inactive)
REMARK    1  A    between atoms: C_5  and  C_6 
REMARK    2  A    between atoms: C_10  and  C_11 
REMARK       I    between atoms: C_11  and  N_12 
REMARK    3  A    between atoms: N_12  and  N_13 
REMARK       I    between atoms: N_13  and  C_14 
REMARK       I    between atoms: C_14  and  N_15 
REMARK    4  A    between atoms: N_15  and  C_16 
REMARK    5  A    between atoms: C_16  and  C_17 
ROOT
HETATM    1  C   UNL     1       8.855  29.707  57.212  1.00  0.00     0.288 C 
HETATM    2  N   UNL     1       7.662  29.085  56.920  1.00  0.00    -0.261 N 
HETATM    3  O   UNL     1       9.884  29.487  56.576  1.00  0.00    -0.264 OA
HETATM    4  H   UNL     1       6.803  29.226  57.445  1.00  0.00     0.190 HD
ENDROOT
BRANCH   2   5
HETATM    5  N   UNL     1       7.601  28.139  55.886  1.00  0.00    -0.249 N 
HETATM    6  C   UNL     1       7.471  26.824  56.277  1.00  0.00     0.334 C 
HETATM    7  N   UNL     1       7.263  25.983  55.214  1.00  0.00    -0.341 N 
HETATM    8  O   UNL     1       7.546  26.468  57.450  1.00  0.00    -0.246 OA
HETATM    9  H   UNL     1       7.625  26.313  54.330  1.00  0.00     0.164 HD
HETATM   10  H   UNL     1       7.131  28.451  55.042  1.00  0.00     0.192 HD
BRANCH   7  11
HETATM   11  C   UNL     1       7.205  24.545  55.404  1.00  0.00     0.129 C 
BRANCH  11  12
HETATM   12  C   UNL     1       8.492  23.820  54.961  1.00  0.00     0.004 C 
HETATM   13  C   UNL     1       8.756  22.530  55.758  1.00  0.00     0.010 C 
HETATM   14  C   UNL     1       7.788  21.391  55.404  1.00  0.00    -0.018 C 
HETATM   15  C   UNL     1       8.154  20.121  56.172  1.00  0.00     0.010 C 
HETATM   16  C   UNL     1       7.787  21.124  53.893  1.00  0.00     0.004 C 
HETATM   17  C   UNL     1       7.500  22.389  53.091  1.00  0.00     0.001 C 
HETATM   18  C   UNL     1       8.464  23.517  53.453  1.00  0.00     0.006 C 
ENDBRANCH  11  12
ENDBRANCH   7  11
ENDBRANCH   2   5
BRANCH   1  19
HETATM   19  C   UNL     1       8.805  30.627  58.314  1.00  0.00     0.121 A 
HETATM   20  N   UNL     1       9.711  31.639  58.461  1.00  0.00    -0.272 N 
HETATM   21  N   UNL     1       9.535  32.380  59.565  1.00  0.00    -0.174 NA
HETATM   22  H   UNL     1      10.486  31.858  57.841  1.00  0.00     0.189 HD
HETATM   23  C   UNL     1       8.441  31.865  60.149  1.00  0.00     0.089 A 
HETATM   24  C   UNL     1       7.958  30.759  59.397  1.00  0.00     0.071 A 
BRANCH  23  25
HETATM   25  C   UNL     1       7.893  32.409  61.392  1.00  0.00    -0.006 A 
HETATM   26  C   UNL     1       8.508  32.147  62.625  1.00  0.00     0.014 A 
HETATM   27  C   UNL     1       7.993  32.687  63.808  1.00  0.00     0.007 A 
HETATM   28  C   UNL     1       6.851  33.493  63.782  1.00  0.00    -0.062 A 
HETATM   29  C   UNL     1       6.317  34.107  65.042  1.00  0.00     0.048 C 
HETATM   30  C   UNL     1       6.238  33.763  62.553  1.00  0.00     0.007 A 
HETATM   31  C   UNL     1       6.750  33.218  61.371  1.00  0.00     0.014 A 
ENDBRANCH  23  25
ENDBRANCH   1  19
TORSDOF 5
ENDMDL
MODEL 3
REMARK VINA RESULT:     -10.3      1.655      2.580
REMARK  5 active torsions:
REMARK  status: ('A' for Active; 'I' for Inactive)
REMARK    1  A    between atoms: C_5  and  C_6 
REMARK    2  A    between atoms: C_10  and  C_11 
REMARK       I    between atoms: C_11  and  N_12 
REMARK    3  A    between atoms: N_12  and  N_13 
REMARK       I    between atoms: N_13  and  C_14 
REMARK       I    between atoms: C_14  and  N_15 
REMARK    4  A    between atoms: N_15  and  C_16 
REMARK    5  A    between atoms: C_16  and  C_17 
ROOT
HETATM    1  C   UNL     1       8.038  30.687  58.994  1.00  0.00     0.288 C 
HETATM    2  N   UNL     1       7.036  29.883  58.499  1.00  0.00    -0.261 N 
HETATM    3  O   UNL     1       8.981  31.065  58.301  1.00  0.00    -0.264 OA
HETATM    4  H   UNL     1       6.261  29.532  59.056  1.00  0.00     0.190 HD
ENDROOT
BRANCH   2   5
HETATM    5  N   UNL     1       7.087  29.439  57.170  1.00  0.00    -0.249 N 
HETATM    6  C   UNL     1       7.459  28.125  56.984  1.00  0.00     0.334 C 
HETATM    7  N   UNL     1       7.336  27.728  55.677  1.00  0.00    -0.341 N 
HETATM    8  O   UNL     1       7.862  27.412  57.899  1.00  0.00    -0.246 OA
HETATM    9  H   UNL     1       7.401  28.472  54.996  1.00  0.00     0.164 HD
HETATM   10  H   UNL     1       6.394  29.847  56.550  1.00  0.00     0.192 HD
BRANCH   7  11
HETATM   11  C   UNL     1       7.775  26.411  55.255  1.00  0.00     0.129 C 
BRANCH  11  12
HETATM   12  C   UNL     1       6.649  25.358  55.274  1.00  0.00     0.004 C 
HETATM   13  C   UNL     1       6.714  24.393  54.077  1.00  0.00     0.010 C 
HETATM   14  C   UNL     1       7.880  23.396  54.165  1.00  0.00    -0.018 C 
HETATM   15  C   UNL     1       7.839  22.420  52.989  1.00  0.00     0.010 C 
HETATM   16  C   UNL     1       7.848  22.635  55.497  1.00  0.00     0.004 C 
HETATM   17  C   UNL     1       7.811  23.580  56.694  1.00  0.00     0.001 C 
HETATM   18  C   UNL     1       6.652  24.570  56.594  1.00  0.00     0.006 C 
ENDBRANCH  11  12
ENDBRANCH   7  11
ENDBRANCH   2   5
BRANCH   1  19
HETATM   19  C   UNL     1       7.898  31.046  60.379  1.00  0.00     0.121 A 
HETATM   20  N   UNL     1       8.628  30.444  61.364  1.00  0.00    -0.272 N 
HETATM   21  N   UNL     1       8.346  30.877  62.602  1.00  0.00    -0.174 NA
HETATM   22  H   UNL     1       9.325  29.714  61.247  1.00  0.00     0.189 HD
HETATM   23  C   UNL     1       7.423  31.836  62.423  1.00  0.00     0.089 A 
HETATM   24  C   UNL     1       7.111  31.967  61.041  1.00  0.00     0.071 A 
BRANCH  23  25
HETATM   25  C   UNL     1       6.853  32.586  63.543  1.00  0.00    -0.006 A 
HETATM   26  C   UNL     1       5.464  32.690  63.706  1.00  0.00     0.014 A 
HETATM   27  C   UNL     1       4.924  33.390  64.791  1.00  0.00     0.007 A 
HETATM   28  C   UNL     1       5.761  34.004  65.727  1.00  0.00    -0.062 A 
HETATM   29  C   UNL     1       5.188  34.722  66.913  1.00  0.00     0.048 C 
HETATM   30  C   UNL     1       7.147  33.897  65.571  1.00  0.00     0.007 A 
HETATM   31  C   UNL     1       7.687  33.202  64.484  1.00  0.00     0.014 A 
ENDBRANCH  23  25
ENDBRANCH   1  19
TORSDOF 5
ENDMDL
MODEL 4
REMARK VINA RESULT:      -9.8      2.500      3.174
REMARK  5 active torsions:
REMARK  status: ('A' for Active; 'I' for Inactive)
REMARK    1  A    between atoms: C_5  and  C_6 
REMARK    2  A    between atoms: C_10  and  C_11 
REMARK       I    between atoms: C_11  and  N_12 
REMARK    3  A    between atoms: N_12  and  N_13 
REMARK       I    between atoms: N_13  and  C_14 
REMARK       I    between atoms: C_14  and  N_15 
REMARK    4  A    between atoms: N_15  and  C_16 
REMARK    5  A    between atoms: C_16  and  C_17 
ROOT
HETATM    1  C   UNL     1       5.744  29.737  55.760  1.00  0.00     0.288 C 
HETATM    2  N   UNL     1       6.617  28.672  55.765  1.00  0.00    -0.261 N 
HETATM    3  O   UNL     1       4.912  29.901  54.869  1.00  0.00    -0.264 OA
HETATM    4  H   UNL     1       7.332  28.527  56.472  1.00  0.00     0.190 HD
ENDROOT
BRANCH   2   5
HETATM    5  N   UNL     1       6.598  27.747  54.711  1.00  0.00    -0.249 N 
HETATM    6  C   UNL     1       6.652  26.417  55.072  1.00  0.00     0.334 C 
HETATM    7  N   UNL     1       6.475  25.580  54.001  1.00  0.00    -0.341 N 
HETATM    8  O   UNL     1       6.848  26.050  56.227  1.00  0.00    -0.246 OA
HETATM    9  H   UNL     1       6.734  25.969  53.105  1.00  0.00     0.164 HD
HETATM   10  H   UNL     1       6.039  28.017  53.907  1.00  0.00     0.192 HD
BRANCH   7  11
HETATM   11  C   UNL     1       6.600  24.142  54.153  1.00  0.00     0.129 C 
BRANCH  11  12
HETATM   12  C   UNL     1       8.060  23.649  54.098  1.00  0.00     0.004 C 
HETATM   13  C   UNL     1       8.503  22.945  55.393  1.00  0.00     0.010 C 
HETATM   14  C   UNL     1       7.862  21.560  55.578  1.00  0.00    -0.018 C 
HETATM   15  C   UNL     1       8.403  20.886  56.839  1.00  0.00     0.010 C 
HETATM   16  C   UNL     1       8.107  20.676  54.349  1.00  0.00     0.004 C 
HETATM   17  C   UNL     1       7.648  21.351  53.060  1.00  0.00     0.001 C 
HETATM   18  C   UNL     1       8.286  22.728  52.888  1.00  0.00     0.006 C 
ENDBRANCH  11  12
ENDBRANCH   7  11
ENDBRANCH   2   5
BRANCH   1  19
HETATM   19  C   UNL     1       5.882  30.639  56.870  1.00  0.00     0.121 A 
HETATM   20  N   UNL     1       5.470  31.939  56.807  1.00  0.00    -0.272 N 
HETATM   21  N   UNL     1       5.706  32.647  57.922  1.00  0.00    -0.174 NA
HETATM   22  H   UNL     1       5.034  32.404  56.015  1.00  0.00     0.189 HD
HETATM   23  C   UNL     1       6.257  31.765  58.772  1.00  0.00     0.089 A 
HETATM   24  C   UNL     1       6.390  30.495  58.146  1.00  0.00     0.071 A 
BRANCH  23  25
HETATM   25  C   UNL     1       6.655  32.139  60.131  1.00  0.00    -0.006 A 
HETATM   26  C   UNL     1       5.928  33.093  60.857  1.00  0.00     0.014 A 
HETATM   27  C   UNL     1       6.299  33.430  62.163  1.00  0.00     0.007 A 
HETATM   28  C   UNL     1       7.408  32.826  62.764  1.00  0.00    -0.062 A 
HETATM   29  C   UNL     1       7.787  33.155  64.177  1.00  0.00     0.048 C 
HETATM   30  C   UNL     1       8.132  31.869  62.045  1.00  0.00     0.007 A 
HETATM   31  C   UNL     1       7.764  31.536  60.738  1.00  0.00     0.014 A 
ENDBRANCH  23  25
ENDBRANCH   1  19
TORSDOF 5
ENDMDL
MODEL 5
REMARK VINA RESULT:      -9.7      2.234     11.031
REMARK  5 active torsions:
REMARK  status: ('A' for Active; 'I' for Inactive)
REMARK    1  A    between atoms: C_5  and  C_6 
REMARK    2  A    between atoms: C_10  and  C_11 
REMARK       I    between atoms: C_11  and  N_12 
REMARK    3  A    between atoms: N_12  and  N_13 
REMARK       I    between atoms: N_13  and  C_14 
REMARK       I    between atoms: C_14  and  N_15 
REMARK    4  A    between atoms: N_15  and  C_16 
REMARK    5  A    between atoms: C_16  and  C_17 
ROOT
HETATM    1  C   UNL     1       7.384  28.654  57.563  1.00  0.00     0.288 C 
HETATM    2  N   UNL     1       6.710  29.816  57.262  1.00  0.00    -0.261 N 
HETATM    3  O   UNL     1       8.164  28.573  58.510  1.00  0.00    -0.264 OA
HETATM    4  H   UNL     1       6.082  29.921  56.469  1.00  0.00     0.190 HD
ENDROOT
BRANCH   2   5
HETATM    5  N   UNL     1       6.928  30.970  58.028  1.00  0.00    -0.249 N 
HETATM    6  C   UNL     1       5.809  31.538  58.599  1.00  0.00     0.334 C 
HETATM    7  N   UNL     1       6.123  32.565  59.451  1.00  0.00    -0.341 N 
HETATM    8  O   UNL     1       4.669  31.158  58.347  1.00  0.00    -0.246 OA
HETATM    9  H   UNL     1       6.999  33.030  59.258  1.00  0.00     0.164 HD
HETATM   10  H   UNL     1       7.806  30.992  58.539  1.00  0.00     0.192 HD
BRANCH   7  11
HETATM   11  C   UNL     1       5.081  33.361  60.072  1.00  0.00     0.129 C 
BRANCH  11  12
HETATM   12  C   UNL     1       4.691  32.864  61.479  1.00  0.00     0.004 C 
HETATM   13  C   UNL     1       5.885  32.291  62.263  1.00  0.00     0.010 C 
HETATM   14  C   UNL     1       6.874  33.369  62.732  1.00  0.00    -0.018 C 
HETATM   15  C   UNL     1       7.990  32.743  63.568  1.00  0.00     0.010 C 
HETATM   16  C   UNL     1       6.153  34.462  63.531  1.00  0.00     0.004 C 
HETATM   17  C   UNL     1       4.983  35.059  62.754  1.00  0.00     0.001 C 
HETATM   18  C   UNL     1       4.008  33.979  62.288  1.00  0.00     0.006 C 
ENDBRANCH  11  12
ENDBRANCH   7  11
ENDBRANCH   2   5
BRANCH   1  19
HETATM   19  C   UNL     1       7.110  27.550  56.686  1.00  0.00     0.121 A 
HETATM   20  N   UNL     1       5.961  27.472  55.951  1.00  0.00    -0.272 N 
HETATM   21  N   UNL     1       5.854  26.358  55.212  1.00  0.00    -0.174 NA
HETATM   22  H   UNL     1       5.204  28.149  55.929  1.00  0.00     0.189 HD
HETATM   23  C   UNL     1       6.999  25.692  55.435  1.00  0.00     0.089 A 
HETATM   24  C   UNL     1       7.810  26.406  56.360  1.00  0.00     0.071 A 
BRANCH  23  25
HETATM   25  C   UNL     1       7.291  24.409  54.792  1.00  0.00    -0.006 A 
HETATM   26  C   UNL     1       7.492  24.328  53.407  1.00  0.00     0.014 A 
HETATM   27  C   UNL     1       7.793  23.104  52.801  1.00  0.00     0.007 A 
HETATM   28  C   UNL     1       7.890  21.938  53.566  1.00  0.00    -0.062 A 
HETATM   29  C   UNL     1       8.250  20.629  52.927  1.00  0.00     0.048 C 
HETATM   30  C   UNL     1       7.695  22.016  54.950  1.00  0.00     0.007 A 
HETATM   31  C   UNL     1       7.390  23.239  55.555  1.00  0.00     0.014 A 
ENDBRANCH  23  25
ENDBRANCH   1  19
TORSDOF 5
ENDMDL
MODEL 6
REMARK VINA RESULT:      -9.6      2.484     10.708
REMARK  5 active torsions:
REMARK  status: ('A' for Active; 'I' for Inactive)
REMARK    1  A    between atoms: C_5  and  C_6 
REMARK    2  A    between atoms: C_10  and  C_11 
REMARK       I    between atoms: C_11  and  N_12 
REMARK    3  A    between atoms: N_12  and  N_13 
REMARK       I    between atoms: N_13  and  C_14 
REMARK       I    between atoms: C_14  and  N_15 
REMARK    4  A    between atoms: N_15  and  C_16 
REMARK    5  A    between atoms: C_16  and  C_17 
ROOT
HETATM    1  C   UNL     1       5.723  28.474  55.038  1.00  0.00     0.288 C 
HETATM    2  N   UNL     1       6.803  29.119  55.596  1.00  0.00    -0.261 N 
HETATM    3  O   UNL     1       4.598  28.970  55.019  1.00  0.00    -0.264 OA
HETATM    4  H   UNL     1       7.738  28.722  55.651  1.00  0.00     0.190 HD
ENDROOT
BRANCH   2   5
HETATM    5  N   UNL     1       6.634  30.374  56.199  1.00  0.00    -0.249 N 
HETATM    6  C   UNL     1       6.714  30.400  57.575  1.00  0.00     0.334 C 
HETATM    7  N   UNL     1       6.693  31.677  58.074  1.00  0.00    -0.341 N 
HETATM    8  O   UNL     1       6.786  29.381  58.256  1.00  0.00    -0.246 OA
HETATM    9  H   UNL     1       6.231  32.358  57.487  1.00  0.00     0.164 HD
HETATM   10  H   UNL     1       6.996  31.161  55.669  1.00  0.00     0.192 HD
BRANCH   7  11
HETATM   11  C   UNL     1       6.662  31.916  59.505  1.00  0.00     0.129 C 
BRANCH  11  12
HETATM   12  C   UNL     1       7.941  32.596  60.036  1.00  0.00     0.004 C 
HETATM   13  C   UNL     1       7.772  33.156  61.460  1.00  0.00     0.010 C 
HETATM   14  C   UNL     1       7.702  32.062  62.536  1.00  0.00    -0.018 C 
HETATM   15  C   UNL     1       7.614  32.688  63.928  1.00  0.00     0.010 C 
HETATM   16  C   UNL     1       8.912  31.125  62.443  1.00  0.00     0.004 C 
HETATM   17  C   UNL     1       9.076  30.540  61.044  1.00  0.00     0.001 C 
HETATM   18  C   UNL     1       9.140  31.635  59.981  1.00  0.00     0.006 C 
ENDBRANCH  11  12
ENDBRANCH   7  11
ENDBRANCH   2   5
BRANCH   1  19
HETATM   19  C   UNL     1       6.011  27.179  54.485  1.00  0.00     0.121 A 
HETATM   20  N   UNL     1       5.607  26.817  53.231  1.00  0.00    -0.272 N 
HETATM   21  N   UNL     1       5.932  25.561  52.889  1.00  0.00    -0.174 NA
HETATM   22  H   UNL     1       5.089  27.387  52.569  1.00  0.00     0.189 HD
HETATM   23  C   UNL     1       6.616  25.088  53.944  1.00  0.00     0.089 A 
HETATM   24  C   UNL     1       6.681  26.073  54.969  1.00  0.00     0.071 A 
BRANCH  23  25
HETATM   25  C   UNL     1       7.171  23.734  53.968  1.00  0.00    -0.006 A 
HETATM   26  C   UNL     1       7.611  23.116  52.789  1.00  0.00     0.014 A 
HETATM   27  C   UNL     1       8.161  21.830  52.820  1.00  0.00     0.007 A 
HETATM   28  C   UNL     1       8.275  21.136  54.028  1.00  0.00    -0.062 A 
HETATM   29  C   UNL     1       8.899  19.773  54.074  1.00  0.00     0.048 C 
HETATM   30  C   UNL     1       7.842  21.752  55.208  1.00  0.00     0.007 A 
HETATM   31  C   UNL     1       7.287  23.035  55.176  1.00  0.00     0.014 A 
ENDBRANCH  23  25
ENDBRANCH   1  19
TORSDOF 5
ENDMDL
MODEL 7
REMARK VINA RESULT:      -9.3      7.558     12.060
REMARK  5 active torsions:
REMARK  status: ('A' for Active; 'I' for Inactive)
REMARK    1  A    between atoms: C_5  and  C_6 
REMARK    2  A    between atoms: C_10  and  C_11 
REMARK       I    between atoms: C_11  and  N_12 
REMARK    3  A    between atoms: N_12  and  N_13 
REMARK       I    between atoms: N_13  and  C_14 
REMARK       I    between atoms: C_14  and  N_15 
REMARK    4  A    between atoms: N_15  and  C_16 
REMARK    5  A    between atoms: C_16  and  C_17 
ROOT
HETATM    1  C   UNL     1       4.637  27.409  50.317  1.00  0.00     0.288 C 
HETATM    2  N   UNL     1       4.258  26.860  51.521  1.00  0.00    -0.261 N 
HETATM    3  O   UNL     1       5.750  27.901  50.140  1.00  0.00    -0.264 OA
HETATM    4  H   UNL     1       3.336  26.472  51.705  1.00  0.00     0.190 HD
ENDROOT
BRANCH   2   5
HETATM    5  N   UNL     1       5.143  26.879  52.609  1.00  0.00    -0.249 N 
HETATM    6  C   UNL     1       5.344  25.674  53.248  1.00  0.00     0.334 C 
HETATM    7  N   UNL     1       6.333  25.744  54.195  1.00  0.00    -0.341 N 
HETATM    8  O   UNL     1       4.690  24.667  52.988  1.00  0.00    -0.246 OA
HETATM    9  H   UNL     1       6.486  26.663  54.586  1.00  0.00     0.164 HD
HETATM   10  H   UNL     1       5.921  27.526  52.522  1.00  0.00     0.192 HD
BRANCH   7  11
HETATM   11  C   UNL     1       6.625  24.610  55.050  1.00  0.00     0.129 C 
BRANCH  11  12
HETATM   12  C   UNL     1       8.065  24.081  54.890  1.00  0.00     0.004 C 
HETATM   13  C   UNL     1       8.363  22.873  55.796  1.00  0.00     0.010 C 
HETATM   14  C   UNL     1       7.658  21.586  55.340  1.00  0.00    -0.018 C 
HETATM   15  C   UNL     1       8.057  20.412  56.234  1.00  0.00     0.010 C 
HETATM   16  C   UNL     1       7.980  21.278  53.872  1.00  0.00     0.004 C 
HETATM   17  C   UNL     1       7.664  22.458  52.958  1.00  0.00     0.001 C 
HETATM   18  C   UNL     1       8.365  23.733  53.423  1.00  0.00     0.006 C 
ENDBRANCH  11  12
ENDBRANCH   7  11
ENDBRANCH   2   5
BRANCH   1  19
HETATM   19  C   UNL     1       3.633  27.366  49.289  1.00  0.00     0.121 A 
HETATM   20  N   UNL     1       3.241  26.196  48.704  1.00  0.00    -0.272 N 
HETATM   21  N   UNL     1       2.319  26.344  47.740  1.00  0.00    -0.174 NA
HETATM   22  H   UNL     1       3.585  25.263  48.914  1.00  0.00     0.189 HD
HETATM   23  C   UNL     1       2.060  27.662  47.719  1.00  0.00     0.089 A 
HETATM   24  C   UNL     1       2.871  28.338  48.673  1.00  0.00     0.071 A 
BRANCH  23  25
HETATM   25  C   UNL     1       1.081  28.248  46.802  1.00  0.00    -0.006 A 
HETATM   26  C   UNL     1       0.178  27.437  46.099  1.00  0.00     0.014 A 
HETATM   27  C   UNL     1      -0.771  28.003  45.242  1.00  0.00     0.007 A 
HETATM   28  C   UNL     1      -0.830  29.388  45.064  1.00  0.00    -0.062 A 
HETATM   29  C   UNL     1      -1.870  30.004  44.176  1.00  0.00     0.048 C 
HETATM   30  C   UNL     1       0.065  30.202  45.768  1.00  0.00     0.007 A 
HETATM   31  C   UNL     1       1.017  29.635  46.622  1.00  0.00     0.014 A 
ENDBRANCH  23  25
ENDBRANCH   1  19
TORSDOF 5
ENDMDL
MODEL 8
REMARK VINA RESULT:      -9.1      5.165      8.580
REMARK  5 active torsions:
REMARK  status: ('A' for Active; 'I' for Inactive)
REMARK    1  A    between atoms: C_5  and  C_6 
REMARK    2  A    between atoms: C_10  and  C_11 
REMARK       I    between atoms: C_11  and  N_12 
REMARK    3  A    between atoms: N_12  and  N_13 
REMARK       I    between atoms: N_13  and  C_14 
REMARK       I    between atoms: C_14  and  N_15 
REMARK    4  A    between atoms: N_15  and  C_16 
REMARK    5  A    between atoms: C_16  and  C_17 
ROOT
HETATM    1  C   UNL     1       5.003  33.452  64.739  1.00  0.00     0.288 C 
HETATM    2  N   UNL     1       6.091  32.832  64.168  1.00  0.00    -0.261 N 
HETATM    3  O   UNL     1       3.969  33.674  64.112  1.00  0.00    -0.264 OA
HETATM    4  H   UNL     1       6.968  32.661  64.653  1.00  0.00     0.190 HD
ENDROOT
BRANCH   2   5
HETATM    5  N   UNL     1       6.056  32.459  62.816  1.00  0.00    -0.249 N 
HETATM    6  C   UNL     1       7.212  31.903  62.311  1.00  0.00     0.334 C 
HETATM    7  N   UNL     1       7.047  31.428  61.036  1.00  0.00    -0.341 N 
HETATM    8  O   UNL     1       8.262  31.860  62.947  1.00  0.00    -0.246 OA
HETATM    9  H   UNL     1       6.315  31.876  60.503  1.00  0.00     0.164 HD
HETATM   10  H   UNL     1       5.159  32.117  62.485  1.00  0.00     0.192 HD
BRANCH   7  11
HETATM   11  C   UNL     1       8.172  30.900  60.288  1.00  0.00     0.129 C 
BRANCH  11  12
HETATM   12  C   UNL     1       8.124  31.249  58.787  1.00  0.00     0.004 C 
HETATM   13  C   UNL     1       9.506  31.181  58.112  1.00  0.00     0.010 C 
HETATM   14  C   UNL     1      10.024  29.745  57.936  1.00  0.00    -0.018 C 
HETATM   15  C   UNL     1      11.359  29.746  57.192  1.00  0.00     0.010 C 
HETATM   16  C   UNL     1       8.996  28.880  57.195  1.00  0.00     0.004 C 
HETATM   17  C   UNL     1       7.628  28.916  57.868  1.00  0.00     0.001 C 
HETATM   18  C   UNL     1       7.124  30.347  58.043  1.00  0.00     0.006 C 
ENDBRANCH  11  12
ENDBRANCH   7  11
ENDBRANCH   2   5
BRANCH   1  19
HETATM   19  C   UNL     1       5.170  33.822  66.117  1.00  0.00     0.121 A 
HETATM   20  N   UNL     1       4.107  34.040  66.947  1.00  0.00    -0.272 N 
HETATM   21  N   UNL     1       4.446  34.410  68.191  1.00  0.00    -0.174 NA
HETATM   22  H   UNL     1       3.122  33.967  66.708  1.00  0.00     0.189 HD
HETATM   23  C   UNL     1       5.788  34.392  68.196  1.00  0.00     0.089 A 
HETATM   24  C   UNL     1       6.280  34.034  66.910  1.00  0.00     0.071 A 
BRANCH  23  25
HETATM   25  C   UNL     1       6.566  34.724  69.391  1.00  0.00    -0.006 A 
HETATM   26  C   UNL     1       5.931  34.992  70.611  1.00  0.00     0.014 A 
HETATM   27  C   UNL     1       6.680  35.287  71.755  1.00  0.00     0.007 A 
HETATM   28  C   UNL     1       8.076  35.328  71.699  1.00  0.00    -0.062 A 
HETATM   29  C   UNL     1       8.886  35.606  72.931  1.00  0.00     0.048 C 
HETATM   30  C   UNL     1       8.715  35.055  70.484  1.00  0.00     0.007 A 
HETATM   31  C   UNL     1       7.965  34.765  69.339  1.00  0.00     0.014 A 
ENDBRANCH  23  25
ENDBRANCH   1  19
TORSDOF 5
ENDMDL
MODEL 9
REMARK VINA RESULT:      -9.1      2.734      3.571
REMARK  5 active torsions:
REMARK  status: ('A' for Active; 'I' for Inactive)
REMARK    1  A    between atoms: C_5  and  C_6 
REMARK    2  A    between atoms: C_10  and  C_11 
REMARK       I    between atoms: C_11  and  N_12 
REMARK    3  A    between atoms: N_12  and  N_13 
REMARK       I    between atoms: N_13  and  C_14 
REMARK       I    between atoms: C_14  and  N_15 
REMARK    4  A    between atoms: N_15  and  C_16 
REMARK    5  A    between atoms: C_16  and  C_17 
ROOT
HETATM    1  C   UNL     1       5.662  31.592  58.477  1.00  0.00     0.288 C 
HETATM    2  N   UNL     1       5.378  30.286  58.146  1.00  0.00    -0.261 N 
HETATM    3  O   UNL     1       6.111  32.394  57.661  1.00  0.00    -0.264 OA
HETATM    4  H   UNL     1       5.033  29.594  58.806  1.00  0.00     0.190 HD
ENDROOT
BRANCH   2   5
HETATM    5  N   UNL     1       5.631  29.822  56.847  1.00  0.00    -0.249 N 
HETATM    6  C   UNL     1       6.325  28.634  56.754  1.00  0.00     0.334 C 
HETATM    7  N   UNL     1       6.397  28.173  55.464  1.00  0.00    -0.341 N 
HETATM    8  O   UNL     1       6.822  28.076  57.728  1.00  0.00    -0.246 OA
HETATM    9  H   UNL     1       6.328  28.886  54.750  1.00  0.00     0.164 HD
HETATM   10  H   UNL     1       4.906  30.024  56.166  1.00  0.00     0.192 HD
BRANCH   7  11
HETATM   11  C   UNL     1       7.173  26.992  55.139  1.00  0.00     0.129 C 
BRANCH  11  12
HETATM   12  C   UNL     1       6.302  25.760  54.818  1.00  0.00     0.004 C 
HETATM   13  C   UNL     1       5.473  25.933  53.532  1.00  0.00     0.010 C 
HETATM   14  C   UNL     1       6.322  25.880  52.253  1.00  0.00    -0.018 C 
HETATM   15  C   UNL     1       5.430  25.980  51.015  1.00  0.00     0.010 C 
HETATM   16  C   UNL     1       7.163  24.598  52.207  1.00  0.00     0.004 C 
HETATM   17  C   UNL     1       8.011  24.428  53.464  1.00  0.00     0.001 C 
HETATM   18  C   UNL     1       7.160  24.486  54.730  1.00  0.00     0.006 C 
ENDBRANCH  11  12
ENDBRANCH   7  11
ENDBRANCH   2   5
BRANCH   1  19
HETATM   19  C   UNL     1       5.397  31.941  59.846  1.00  0.00     0.121 A 
HETATM   20  N   UNL     1       4.146  31.859  60.389  1.00  0.00    -0.272 N 
HETATM   21  N   UNL     1       4.074  32.256  61.668  1.00  0.00    -0.174 NA
HETATM   22  H   UNL     1       3.297  31.552  59.923  1.00  0.00     0.189 HD
HETATM   23  C   UNL     1       5.337  32.572  61.997  1.00  0.00     0.089 A 
HETATM   24  C   UNL     1       6.196  32.394  60.876  1.00  0.00     0.071 A 
BRANCH  23  25
HETATM   25  C   UNL     1       5.699  33.044  63.335  1.00  0.00    -0.006 A 
HETATM   26  C   UNL     1       4.711  33.348  64.282  1.00  0.00     0.014 A 
HETATM   27  C   UNL     1       5.061  33.777  65.566  1.00  0.00     0.007 A 
HETATM   28  C   UNL     1       6.405  33.917  65.925  1.00  0.00    -0.062 A 
HETATM   29  C   UNL     1       6.788  34.340  67.313  1.00  0.00     0.048 C 
HETATM   30  C   UNL     1       7.395  33.609  64.985  1.00  0.00     0.007 A 
HETATM   31  C   UNL     1       7.044  33.185  63.699  1.00  0.00     0.014 A 
ENDBRANCH  23  25
ENDBRANCH   1  19
TORSDOF 5
ENDMDL
MODEL 10
REMARK VINA RESULT:      -8.9      2.463      3.206
REMARK  5 active torsions:
REMARK  status: ('A' for Active; 'I' for Inactive)
REMARK    1  A    between atoms: C_5  and  C_6 
REMARK    2  A    between atoms: C_10  and  C_11 
REMARK       I    between atoms: C_11  and  N_12 
REMARK    3  A    between atoms: N_12  and  N_13 
REMARK       I    between atoms: N_13  and  C_14 
REMARK       I    between atoms: C_14  and  N_15 
REMARK    4  A    between atoms: N_15  and  C_16 
REMARK    5  A    between atoms: C_16  and  C_17 
ROOT
HETATM    1  C   UNL     1       5.655  30.237  57.441  1.00  0.00     0.288 C 
HETATM    2  N   UNL     1       4.911  29.115  57.731  1.00  0.00    -0.261 N 
HETATM    3  O   UNL     1       6.067  30.478  56.308  1.00  0.00    -0.264 OA
HETATM    4  H   UNL     1       4.582  28.876  58.662  1.00  0.00     0.190 HD
ENDROOT
BRANCH   2   5
HETATM    5  N   UNL     1       4.628  28.183  56.722  1.00  0.00    -0.249 N 
HETATM    6  C   UNL     1       5.440  27.070  56.680  1.00  0.00     0.334 C 
HETATM    7  N   UNL     1       5.005  26.141  55.771  1.00  0.00    -0.341 N 
HETATM    8  O   UNL     1       6.442  26.952  57.380  1.00  0.00    -0.246 OA
HETATM    9  H   UNL     1       4.458  26.513  55.007  1.00  0.00     0.164 HD
HETATM   10  H   UNL     1       3.645  28.084  56.488  1.00  0.00     0.192 HD
BRANCH   7  11
HETATM   11  C   UNL     1       5.780  24.945  55.501  1.00  0.00     0.129 C 
BRANCH  11  12
HETATM   12  C   UNL     1       7.219  25.244  55.033  1.00  0.00     0.004 C 
HETATM   13  C   UNL     1       8.188  24.078  55.298  1.00  0.00     0.010 C 
HETATM   14  C   UNL     1       7.955  22.875  54.371  1.00  0.00    -0.018 C 
HETATM   15  C   UNL     1       8.998  21.788  54.633  1.00  0.00     0.010 C 
HETATM   16  C   UNL     1       7.986  23.305  52.899  1.00  0.00     0.004 C 
HETATM   17  C   UNL     1       7.010  24.443  52.616  1.00  0.00     0.001 C 
HETATM   18  C   UNL     1       7.246  25.632  53.546  1.00  0.00     0.006 C 
ENDBRANCH  11  12
ENDBRANCH   7  11
ENDBRANCH   2   5
BRANCH   1  19
HETATM   19  C   UNL     1       5.914  31.098  58.562  1.00  0.00     0.121 A 
HETATM   20  N   UNL     1       7.055  31.002  59.306  1.00  0.00    -0.272 N 
HETATM   21  N   UNL     1       7.117  31.861  60.334  1.00  0.00    -0.174 NA
HETATM   22  H   UNL     1       7.822  30.350  59.164  1.00  0.00     0.189 HD
HETATM   23  C   UNL     1       5.989  32.584  60.239  1.00  0.00     0.089 A 
HETATM   24  C   UNL     1       5.205  32.130  59.143  1.00  0.00     0.071 A 
BRANCH  23  25
HETATM   25  C   UNL     1       5.674  33.660  61.180  1.00  0.00    -0.006 A 
HETATM   26  C   UNL     1       4.608  34.537  60.939  1.00  0.00     0.014 A 
HETATM   27  C   UNL     1       4.296  35.550  61.852  1.00  0.00     0.007 A 
HETATM   28  C   UNL     1       5.050  35.710  63.019  1.00  0.00    -0.062 A 
HETATM   29  C   UNL     1       4.697  36.770  64.020  1.00  0.00     0.048 C 
HETATM   30  C   UNL     1       6.111  34.833  63.267  1.00  0.00     0.007 A 
HETATM   31  C   UNL     1       6.425  33.823  62.351  1.00  0.00     0.014 A 
ENDBRANCH  23  25
ENDBRANCH   1  19
TORSDOF 5
ENDMDL
