MODEL 1
REMARK VINA RESULT:     -11.1      0.000      0.000
REMARK  7 active torsions:
REMARK  status: ('A' for Active; 'I' for Inactive)
REMARK    1  A    between atoms: C_5  and  C_6 
REMARK    2  A    between atoms: C_10  and  C_11 
REMARK       I    between atoms: C_11  and  N_12 
REMARK    3  A    between atoms: N_12  and  N_13 
REMARK       I    between atoms: N_13  and  C_14 
REMARK       I    between atoms: C_14  and  N_15 
REMARK    4  A    between atoms: N_15  and  C_16 
REMARK    5  A    between atoms: C_16  and  C_17 
REMARK    6  A    between atoms: C_17  and  C_18 
REMARK    7  A    between atoms: C_21  and  O_22 
ROOT
HETATM    1  C   UNL     1       9.000  29.238  57.657  1.00  0.00     0.288 C 
HETATM    2  N   UNL     1       8.017  28.274  57.697  1.00  0.00    -0.261 N 
HETATM    3  O   UNL     1       9.978  29.139  56.917  1.00  0.00    -0.264 OA
HETATM    4  H   UNL     1       7.155  28.358  58.228  1.00  0.00     0.190 HD
ENDROOT
BRANCH   2   5
HETATM    5  N   UNL     1       8.182  27.093  56.958  1.00  0.00    -0.249 N 
HETATM    6  C   UNL     1       7.452  26.979  55.794  1.00  0.00     0.335 C 
HETATM    7  N   UNL     1       7.705  25.798  55.148  1.00  0.00    -0.337 N 
HETATM    8  O   UNL     1       6.648  27.825  55.419  1.00  0.00    -0.246 OA
HETATM    9  H   UNL     1       8.128  25.065  55.698  1.00  0.00     0.164 HD
HETATM   10  H   UNL     1       9.129  26.718  56.961  1.00  0.00     0.192 HD
BRANCH   7  11
HETATM   11  C   UNL     1       7.033  25.425  53.907  1.00  0.00     0.086 C 
HETATM   12  C   UNL     1       5.712  24.704  54.197  1.00  0.00     0.032 C 
BRANCH  11  13
HETATM   13  C   UNL     1       7.928  24.522  53.031  1.00  0.00     0.063 C 
BRANCH  13  14
HETATM   14  C   UNL     1       8.197  23.127  53.556  1.00  0.00    -0.056 A 
HETATM   15  C   UNL     1       7.757  22.016  52.816  1.00  0.00     0.010 A 
HETATM   16  C   UNL     1       8.006  20.714  53.259  1.00  0.00     0.037 A 
HETATM   17  C   UNL     1       8.709  20.520  54.441  1.00  0.00     0.065 A 
HETATM   18  C   UNL     1       9.168  21.603  55.180  1.00  0.00     0.037 A 
HETATM   19  C   UNL     1       8.921  22.903  54.735  1.00  0.00     0.010 A 
BRANCH  17  20
HETATM   20  O   UNL     1       8.975  19.269  54.913  1.00  0.00    -0.361 OA
HETATM   21  H   UNL     1       9.258  19.340  55.839  1.00  0.00     0.217 HD
ENDBRANCH  17  20
ENDBRANCH  13  14
ENDBRANCH  11  13
ENDBRANCH   7  11
ENDBRANCH   2   5
BRANCH   1  22
HETATM   22  C   UNL     1       8.817  30.342  58.557  1.00  0.00     0.121 A 
HETATM   23  N   UNL     1       9.566  31.482  58.460  1.00  0.00    -0.272 N 
HETATM   24  N   UNL     1       9.340  32.373  59.434  1.00  0.00    -0.174 NA
HETATM   25  H   UNL     1      10.275  31.686  57.762  1.00  0.00     0.189 HD
HETATM   26  C   UNL     1       8.381  31.815  60.190  1.00  0.00     0.089 A 
HETATM   27  C   UNL     1       8.006  30.551  59.654  1.00  0.00     0.071 A 
BRANCH  26  28
HETATM   28  C   UNL     1       7.884  32.455  61.409  1.00  0.00    -0.006 A 
HETATM   29  C   UNL     1       6.777  33.313  61.378  1.00  0.00     0.014 A 
HETATM   30  C   UNL     1       6.279  33.877  62.558  1.00  0.00     0.007 A 
HETATM   31  C   UNL     1       6.884  33.600  63.788  1.00  0.00    -0.062 A 
HETATM   32  C   UNL     1       6.316  34.161  65.059  1.00  0.00     0.048 C 
HETATM   33  C   UNL     1       7.989  32.744  63.824  1.00  0.00     0.007 A 
HETATM   34  C   UNL     1       8.489  32.185  62.644  1.00  0.00     0.014 A 
ENDBRANCH  26  28
ENDBRANCH   1  22
TORSDOF 7
ENDMDL
MODEL 2
REMARK VINA RESULT:     -10.5      2.785     11.598
REMARK  7 active torsions:
REMARK  status: ('A' for Active; 'I' for Inactive)
REMARK    1  A    between atoms: C_5  and  C_6 
REMARK    2  A    between atoms: C_10  and  C_11 
REMARK       I    between atoms: C_11  and  N_12 
REMARK    3  A    between atoms: N_12  and  N_13 
REMARK       I    between atoms: N_13  and  C_14 
REMARK       I    between atoms: C_14  and  N_15 
REMARK    4  A    between atoms: N_15  and  C_16 
REMARK    5  A    between atoms: C_16  and  C_17 
REMARK    6  A    between atoms: C_17  and  C_18 
REMARK    7  A    between atoms: C_21  and  O_22 
ROOT
HETATM    1  C   UNL     1       5.543  28.550  57.047  1.00  0.00     0.288 C 
HETATM    2  N   UNL     1       6.633  28.999  57.760  1.00  0.00    -0.261 N 
HETATM    3  O   UNL     1       4.552  29.255  56.860  1.00  0.00    -0.264 OA
HETATM    4  H   UNL     1       7.501  28.482  57.863  1.00  0.00     0.190 HD
ENDROOT
BRANCH   2   5
HETATM    5  N   UNL     1       6.573  30.252  58.389  1.00  0.00    -0.249 N 
HETATM    6  C   UNL     1       7.612  30.573  59.238  1.00  0.00     0.335 C 
HETATM    7  N   UNL     1       7.460  31.821  59.779  1.00  0.00    -0.337 N 
HETATM    8  O   UNL     1       8.532  29.804  59.495  1.00  0.00    -0.246 OA
HETATM    9  H   UNL     1       6.532  32.218  59.744  1.00  0.00     0.164 HD
HETATM   10  H   UNL     1       6.184  30.998  57.816  1.00  0.00     0.192 HD
BRANCH   7  11
HETATM   11  C   UNL     1       8.411  32.381  60.734  1.00  0.00     0.086 C 
HETATM   12  C   UNL     1       9.848  32.236  60.222  1.00  0.00     0.032 C 
BRANCH  11  13
HETATM   13  C   UNL     1       8.288  31.701  62.116  1.00  0.00     0.063 C 
BRANCH  13  14
HETATM   14  C   UNL     1       7.357  32.361  63.111  1.00  0.00    -0.056 A 
HETATM   15  C   UNL     1       5.969  32.185  62.977  1.00  0.00     0.010 A 
HETATM   16  C   UNL     1       5.081  32.761  63.889  1.00  0.00     0.037 A 
HETATM   17  C   UNL     1       5.581  33.506  64.949  1.00  0.00     0.065 A 
HETATM   18  C   UNL     1       6.950  33.678  65.111  1.00  0.00     0.037 A 
HETATM   19  C   UNL     1       7.836  33.100  64.201  1.00  0.00     0.010 A 
BRANCH  17  20
HETATM   20  O   UNL     1       4.753  34.086  65.863  1.00  0.00    -0.361 OA
HETATM   21  H   UNL     1       4.011  34.498  65.393  1.00  0.00     0.217 HD
ENDBRANCH  17  20
ENDBRANCH  13  14
ENDBRANCH  11  13
ENDBRANCH   7  11
ENDBRANCH   2   5
BRANCH   1  22
HETATM   22  C   UNL     1       5.635  27.201  56.566  1.00  0.00     0.121 A 
HETATM   23  N   UNL     1       4.797  26.218  57.013  1.00  0.00    -0.272 N 
HETATM   24  N   UNL     1       5.078  24.997  56.540  1.00  0.00    -0.174 NA
HETATM   25  H   UNL     1       4.033  26.324  57.674  1.00  0.00     0.189 HD
HETATM   26  C   UNL     1       6.127  25.182  55.722  1.00  0.00     0.089 A 
HETATM   27  C   UNL     1       6.487  26.559  55.689  1.00  0.00     0.071 A 
BRANCH  26  28
HETATM   28  C   UNL     1       6.784  24.067  55.039  1.00  0.00    -0.006 A 
HETATM   29  C   UNL     1       7.284  22.972  55.755  1.00  0.00     0.014 A 
HETATM   30  C   UNL     1       7.863  21.887  55.087  1.00  0.00     0.007 A 
HETATM   31  C   UNL     1       7.960  21.881  53.692  1.00  0.00    -0.062 A 
HETATM   32  C   UNL     1       8.530  20.695  52.973  1.00  0.00     0.048 C 
HETATM   33  C   UNL     1       7.462  22.972  52.972  1.00  0.00     0.007 A 
HETATM   34  C   UNL     1       6.888  24.058  53.641  1.00  0.00     0.014 A 
ENDBRANCH  26  28
ENDBRANCH   1  22
TORSDOF 7
ENDMDL
MODEL 3
REMARK VINA RESULT:     -10.4      2.121      2.948
REMARK  7 active torsions:
REMARK  status: ('A' for Active; 'I' for Inactive)
REMARK    1  A    between atoms: C_5  and  C_6 
REMARK    2  A    between atoms: C_10  and  C_11 
REMARK       I    between atoms: C_11  and  N_12 
REMARK    3  A    between atoms: N_12  and  N_13 
REMARK       I    between atoms: N_13  and  C_14 
REMARK       I    between atoms: C_14  and  N_15 
REMARK    4  A    between atoms: N_15  and  C_16 
REMARK    5  A    between atoms: C_16  and  C_17 
REMARK    6  A    between atoms: C_17  and  C_18 
REMARK    7  A    between atoms: C_21  and  O_22 
ROOT
HETATM    1  C   UNL     1       8.962  29.706  57.747  1.00  0.00     0.288 C 
HETATM    2  N   UNL     1       7.790  29.113  57.333  1.00  0.00    -0.261 N 
HETATM    3  O   UNL     1      10.057  29.365  57.302  1.00  0.00    -0.264 OA
HETATM    4  H   UNL     1       6.863  29.422  57.611  1.00  0.00     0.190 HD
ENDROOT
BRANCH   2   5
HETATM    5  N   UNL     1       7.847  28.015  56.461  1.00  0.00    -0.249 N 
HETATM    6  C   UNL     1       7.739  26.763  57.029  1.00  0.00     0.335 C 
HETATM    7  N   UNL     1       7.789  25.771  56.087  1.00  0.00    -0.337 N 
HETATM    8  O   UNL     1       7.649  26.578  58.238  1.00  0.00    -0.246 OA
HETATM    9  H   UNL     1       8.174  26.021  55.188  1.00  0.00     0.164 HD
HETATM   10  H   UNL     1       7.402  28.164  55.558  1.00  0.00     0.192 HD
BRANCH   7  11
HETATM   11  C   UNL     1       7.726  24.355  56.437  1.00  0.00     0.086 C 
HETATM   12  C   UNL     1       9.128  23.793  56.690  1.00  0.00     0.032 C 
BRANCH  11  13
HETATM   13  C   UNL     1       7.036  23.531  55.327  1.00  0.00     0.063 C 
BRANCH  13  14
HETATM   14  C   UNL     1       6.732  24.261  54.036  1.00  0.00    -0.056 A 
HETATM   15  C   UNL     1       7.728  24.361  53.050  1.00  0.00     0.010 A 
HETATM   16  C   UNL     1       7.475  25.008  51.838  1.00  0.00     0.037 A 
HETATM   17  C   UNL     1       6.217  25.548  51.603  1.00  0.00     0.065 A 
HETATM   18  C   UNL     1       5.212  25.445  52.557  1.00  0.00     0.037 A 
HETATM   19  C   UNL     1       5.465  24.796  53.766  1.00  0.00     0.010 A 
BRANCH  17  20
HETATM   20  O   UNL     1       5.925  26.188  50.436  1.00  0.00    -0.361 OA
HETATM   21  H   UNL     1       6.744  26.292  49.925  1.00  0.00     0.217 HD
ENDBRANCH  17  20
ENDBRANCH  13  14
ENDBRANCH  11  13
ENDBRANCH   7  11
ENDBRANCH   2   5
BRANCH   1  22
HETATM   22  C   UNL     1       8.817  30.722  58.752  1.00  0.00     0.121 A 
HETATM   23  N   UNL     1       9.737  31.721  58.904  1.00  0.00    -0.272 N 
HETATM   24  N   UNL     1       9.506  32.528  59.948  1.00  0.00    -0.174 NA
HETATM   25  H   UNL     1      10.567  31.875  58.339  1.00  0.00     0.189 HD
HETATM   26  C   UNL     1       8.369  32.064  60.491  1.00  0.00     0.089 A 
HETATM   27  C   UNL     1       7.889  30.947  59.750  1.00  0.00     0.071 A 
BRANCH  26  28
HETATM   28  C   UNL     1       7.797  32.645  61.707  1.00  0.00    -0.006 A 
HETATM   29  C   UNL     1       6.655  33.455  61.655  1.00  0.00     0.014 A 
HETATM   30  C   UNL     1       6.087  33.961  62.830  1.00  0.00     0.007 A 
HETATM   31  C   UNL     1       6.655  33.674  64.076  1.00  0.00    -0.062 A 
HETATM   32  C   UNL     1       6.014  34.171  65.338  1.00  0.00     0.048 C 
HETATM   33  C   UNL     1       7.795  32.866  64.132  1.00  0.00     0.007 A 
HETATM   34  C   UNL     1       8.365  32.364  62.957  1.00  0.00     0.014 A 
ENDBRANCH  26  28
ENDBRANCH   1  22
TORSDOF 7
ENDMDL
MODEL 4
REMARK VINA RESULT:     -10.4      1.611      2.047
REMARK  7 active torsions:
REMARK  status: ('A' for Active; 'I' for Inactive)
REMARK    1  A    between atoms: C_5  and  C_6 
REMARK    2  A    between atoms: C_10  and  C_11 
REMARK       I    between atoms: C_11  and  N_12 
REMARK    3  A    between atoms: N_12  and  N_13 
REMARK       I    between atoms: N_13  and  C_14 
REMARK       I    between atoms: C_14  and  N_15 
REMARK    4  A    between atoms: N_15  and  C_16 
REMARK    5  A    between atoms: C_16  and  C_17 
REMARK    6  A    between atoms: C_17  and  C_18 
REMARK    7  A    between atoms: C_21  and  O_22 
ROOT
HETATM    1  C   UNL     1       8.667  30.363  58.938  1.00  0.00     0.288 C 
HETATM    2  N   UNL     1       7.960  29.249  58.545  1.00  0.00    -0.261 N 
HETATM    3  O   UNL     1       9.469  30.922  58.191  1.00  0.00    -0.264 OA
HETATM    4  H   UNL     1       7.229  28.811  59.098  1.00  0.00     0.190 HD
ENDROOT
BRANCH   2   5
HETATM    5  N   UNL     1       8.237  28.663  57.300  1.00  0.00    -0.249 N 
HETATM    6  C   UNL     1       7.440  27.604  56.919  1.00  0.00     0.335 C 
HETATM    7  N   UNL     1       7.786  27.125  55.684  1.00  0.00    -0.337 N 
HETATM    8  O   UNL     1       6.557  27.137  57.630  1.00  0.00    -0.246 OA
HETATM    9  H   UNL     1       8.705  27.373  55.346  1.00  0.00     0.164 HD
HETATM   10  H   UNL     1       8.531  29.317  56.578  1.00  0.00     0.192 HD
BRANCH   7  11
HETATM   11  C   UNL     1       7.113  25.985  55.070  1.00  0.00     0.086 C 
HETATM   12  C   UNL     1       5.603  26.228  54.978  1.00  0.00     0.032 C 
BRANCH  11  13
HETATM   13  C   UNL     1       7.375  24.683  55.860  1.00  0.00     0.063 C 
BRANCH  13  14
HETATM   14  C   UNL     1       7.573  23.426  55.040  1.00  0.00    -0.056 A 
HETATM   15  C   UNL     1       7.704  23.527  53.644  1.00  0.00     0.010 A 
HETATM   16  C   UNL     1       7.910  22.390  52.859  1.00  0.00     0.037 A 
HETATM   17  C   UNL     1       7.998  21.145  53.471  1.00  0.00     0.065 A 
HETATM   18  C   UNL     1       7.889  21.024  54.851  1.00  0.00     0.037 A 
HETATM   19  C   UNL     1       7.686  22.162  55.634  1.00  0.00     0.010 A 
BRANCH  17  20
HETATM   20  O   UNL     1       8.197  20.009  52.745  1.00  0.00    -0.361 OA
HETATM   21  H   UNL     1       7.733  20.097  51.897  1.00  0.00     0.217 HD
ENDBRANCH  17  20
ENDBRANCH  13  14
ENDBRANCH  11  13
ENDBRANCH   7  11
ENDBRANCH   2   5
BRANCH   1  22
HETATM   22  C   UNL     1       8.425  30.804  60.283  1.00  0.00     0.121 A 
HETATM   23  N   UNL     1       8.947  30.147  61.362  1.00  0.00    -0.272 N 
HETATM   24  N   UNL     1       8.545  30.628  62.546  1.00  0.00    -0.174 NA
HETATM   25  H   UNL     1       9.559  29.336  61.343  1.00  0.00     0.189 HD
HETATM   26  C   UNL     1       7.749  31.665  62.240  1.00  0.00     0.089 A 
HETATM   27  C   UNL     1       7.672  31.826  60.828  1.00  0.00     0.071 A 
BRANCH  26  28
HETATM   28  C   UNL     1       7.052  32.436  63.270  1.00  0.00    -0.006 A 
HETATM   29  C   UNL     1       5.653  32.463  63.333  1.00  0.00     0.014 A 
HETATM   30  C   UNL     1       4.999  33.162  64.355  1.00  0.00     0.007 A 
HETATM   31  C   UNL     1       5.731  33.852  65.326  1.00  0.00    -0.062 A 
HETATM   32  C   UNL     1       5.031  34.554  66.452  1.00  0.00     0.048 C 
HETATM   33  C   UNL     1       7.128  33.828  65.267  1.00  0.00     0.007 A 
HETATM   34  C   UNL     1       7.781  33.134  64.243  1.00  0.00     0.014 A 
ENDBRANCH  26  28
ENDBRANCH   1  22
TORSDOF 7
ENDMDL
MODEL 5
REMARK VINA RESULT:      -9.4      2.787     11.284
REMARK  7 active torsions:
REMARK  status: ('A' for Active; 'I' for Inactive)
REMARK    1  A    between atoms: C_5  and  C_6 
REMARK    2  A    between atoms: C_10  and  C_11 
REMARK       I    between atoms: C_11  and  N_12 
REMARK    3  A    between atoms: N_12  and  N_13 
REMARK       I    between atoms: N_13  and  C_14 
REMARK       I    between atoms: C_14  and  N_15 
REMARK    4  A    between atoms: N_15  and  C_16 
REMARK    5  A    between atoms: C_16  and  C_17 
REMARK    6  A    between atoms: C_17  and  C_18 
REMARK    7  A    between atoms: C_21  and  O_22 
ROOT
HETATM    1  C   UNL     1       6.672  29.591  56.453  1.00  0.00     0.288 C 
HETATM    2  N   UNL     1       7.283  29.549  57.686  1.00  0.00    -0.261 N 
HETATM    3  O   UNL     1       5.912  30.504  56.133  1.00  0.00    -0.264 OA
HETATM    4  H   UNL     1       7.981  28.861  57.956  1.00  0.00     0.190 HD
ENDROOT
BRANCH   2   5
HETATM    5  N   UNL     1       6.950  30.512  58.651  1.00  0.00    -0.249 N 
HETATM    6  C   UNL     1       7.846  30.695  59.683  1.00  0.00     0.335 C 
HETATM    7  N   UNL     1       7.429  31.668  60.552  1.00  0.00    -0.337 N 
HETATM    8  O   UNL     1       8.868  30.031  59.812  1.00  0.00    -0.246 OA
HETATM    9  H   UNL     1       6.449  31.911  60.520  1.00  0.00     0.164 HD
HETATM   10  H   UNL     1       6.475  31.335  58.285  1.00  0.00     0.192 HD
BRANCH   7  11
HETATM   11  C   UNL     1       8.187  32.028  61.746  1.00  0.00     0.086 C 
HETATM   12  C   UNL     1       8.527  30.784  62.574  1.00  0.00     0.032 C 
BRANCH  11  13
HETATM   13  C   UNL     1       7.409  33.032  62.626  1.00  0.00     0.063 C 
BRANCH  13  14
HETATM   14  C   UNL     1       5.957  33.261  62.263  1.00  0.00    -0.056 A 
HETATM   15  C   UNL     1       5.017  32.246  62.509  1.00  0.00     0.010 A 
HETATM   16  C   UNL     1       3.665  32.430  62.207  1.00  0.00     0.037 A 
HETATM   17  C   UNL     1       3.246  33.641  61.668  1.00  0.00     0.065 A 
HETATM   18  C   UNL     1       4.156  34.665  61.433  1.00  0.00     0.037 A 
HETATM   19  C   UNL     1       5.505  34.480  61.738  1.00  0.00     0.010 A 
BRANCH  17  20
HETATM   20  O   UNL     1       1.939  33.866  61.358  1.00  0.00    -0.361 OA
HETATM   21  H   UNL     1       1.729  33.395  60.535  1.00  0.00     0.217 HD
ENDBRANCH  17  20
ENDBRANCH  13  14
ENDBRANCH  11  13
ENDBRANCH   7  11
ENDBRANCH   2   5
BRANCH   1  22
HETATM   22  C   UNL     1       6.960  28.484  55.584  1.00  0.00     0.121 A 
HETATM   23  N   UNL     1       6.928  28.608  54.224  1.00  0.00    -0.272 N 
HETATM   24  N   UNL     1       7.123  27.460  53.561  1.00  0.00    -0.174 NA
HETATM   25  H   UNL     1       6.741  29.455  53.694  1.00  0.00     0.189 HD
HETATM   26  C   UNL     1       7.323  26.543  54.522  1.00  0.00     0.089 A 
HETATM   27  C   UNL     1       7.257  27.153  55.806  1.00  0.00     0.071 A 
BRANCH  26  28
HETATM   28  C   UNL     1       7.519  25.126  54.211  1.00  0.00    -0.006 A 
HETATM   29  C   UNL     1       7.306  24.136  55.179  1.00  0.00     0.014 A 
HETATM   30  C   UNL     1       7.445  22.781  54.855  1.00  0.00     0.007 A 
HETATM   31  C   UNL     1       7.807  22.393  53.561  1.00  0.00    -0.062 A 
HETATM   32  C   UNL     1       7.902  20.940  53.200  1.00  0.00     0.048 C 
HETATM   33  C   UNL     1       8.021  23.379  52.592  1.00  0.00     0.007 A 
HETATM   34  C   UNL     1       7.886  24.732  52.917  1.00  0.00     0.014 A 
ENDBRANCH  26  28
ENDBRANCH   1  22
TORSDOF 7
ENDMDL
MODEL 6
REMARK VINA RESULT:      -9.1      3.183     11.666
REMARK  7 active torsions:
REMARK  status: ('A' for Active; 'I' for Inactive)
REMARK    1  A    between atoms: C_5  and  C_6 
REMARK    2  A    between atoms: C_10  and  C_11 
REMARK       I    between atoms: C_11  and  N_12 
REMARK    3  A    between atoms: N_12  and  N_13 
REMARK       I    between atoms: N_13  and  C_14 
REMARK       I    between atoms: C_14  and  N_15 
REMARK    4  A    between atoms: N_15  and  C_16 
REMARK    5  A    between atoms: C_16  and  C_17 
REMARK    6  A    between atoms: C_17  and  C_18 
REMARK    7  A    between atoms: C_21  and  O_22 
ROOT
HETATM    1  C   UNL     1       4.925  28.743  56.321  1.00  0.00     0.288 C 
HETATM    2  N   UNL     1       5.382  29.139  57.558  1.00  0.00    -0.261 N 
HETATM    3  O   UNL     1       3.874  29.172  55.847  1.00  0.00    -0.264 OA
HETATM    4  H   UNL     1       6.283  28.875  57.947  1.00  0.00     0.190 HD
ENDROOT
BRANCH   2   5
HETATM    5  N   UNL     1       4.579  29.971  58.353  1.00  0.00    -0.249 N 
HETATM    6  C   UNL     1       5.164  31.120  58.842  1.00  0.00     0.335 C 
HETATM    7  N   UNL     1       4.286  31.862  59.586  1.00  0.00    -0.337 N 
HETATM    8  O   UNL     1       6.341  31.407  58.655  1.00  0.00    -0.246 OA
HETATM    9  H   UNL     1       3.465  31.381  59.926  1.00  0.00     0.164 HD
HETATM   10  H   UNL     1       3.604  30.023  58.065  1.00  0.00     0.192 HD
BRANCH   7  11
HETATM   11  C   UNL     1       4.672  33.108  60.239  1.00  0.00     0.086 C 
HETATM   12  C   UNL     1       4.411  34.308  59.323  1.00  0.00     0.032 C 
BRANCH  11  13
HETATM   13  C   UNL     1       6.161  33.092  60.649  1.00  0.00     0.063 C 
BRANCH  13  14
HETATM   14  C   UNL     1       6.465  33.403  62.099  1.00  0.00    -0.056 A 
HETATM   15  C   UNL     1       5.788  34.459  62.733  1.00  0.00     0.010 A 
HETATM   16  C   UNL     1       6.027  34.762  64.076  1.00  0.00     0.037 A 
HETATM   17  C   UNL     1       6.938  33.997  64.795  1.00  0.00     0.065 A 
HETATM   18  C   UNL     1       7.606  32.938  64.193  1.00  0.00     0.037 A 
HETATM   19  C   UNL     1       7.364  32.635  62.852  1.00  0.00     0.010 A 
BRANCH  17  20
HETATM   20  O   UNL     1       7.204  34.255  66.106  1.00  0.00    -0.361 OA
HETATM   21  H   UNL     1       7.579  33.456  66.510  1.00  0.00     0.217 HD
ENDBRANCH  17  20
ENDBRANCH  13  14
ENDBRANCH  11  13
ENDBRANCH   7  11
ENDBRANCH   2   5
BRANCH   1  22
HETATM   22  C   UNL     1       5.742  27.776  55.643  1.00  0.00     0.121 A 
HETATM   23  N   UNL     1       6.559  28.125  54.604  1.00  0.00    -0.272 N 
HETATM   24  N   UNL     1       7.177  27.090  54.019  1.00  0.00    -0.174 NA
HETATM   25  H   UNL     1       6.703  29.058  54.230  1.00  0.00     0.189 HD
HETATM   26  C   UNL     1       6.778  26.015  54.718  1.00  0.00     0.089 A 
HETATM   27  C   UNL     1       5.899  26.409  55.766  1.00  0.00     0.071 A 
BRANCH  26  28
HETATM   28  C   UNL     1       7.190  24.658  54.356  1.00  0.00    -0.006 A 
HETATM   29  C   UNL     1       7.255  23.640  55.316  1.00  0.00     0.014 A 
HETATM   30  C   UNL     1       7.600  22.334  54.948  1.00  0.00     0.007 A 
HETATM   31  C   UNL     1       7.893  22.026  53.615  1.00  0.00    -0.062 A 
HETATM   32  C   UNL     1       8.208  20.615  53.212  1.00  0.00     0.048 C 
HETATM   33  C   UNL     1       7.829  23.039  52.654  1.00  0.00     0.007 A 
HETATM   34  C   UNL     1       7.490  24.344  53.023  1.00  0.00     0.014 A 
ENDBRANCH  26  28
ENDBRANCH   1  22
TORSDOF 7
ENDMDL
MODEL 7
REMARK VINA RESULT:      -8.9      2.320      4.188
REMARK  7 active torsions:
REMARK  status: ('A' for Active; 'I' for Inactive)
REMARK    1  A    between atoms: C_5  and  C_6 
REMARK    2  A    between atoms: C_10  and  C_11 
REMARK       I    between atoms: C_11  and  N_12 
REMARK    3  A    between atoms: N_12  and  N_13 
REMARK       I    between atoms: N_13  and  C_14 
REMARK       I    between atoms: C_14  and  N_15 
REMARK    4  A    between atoms: N_15  and  C_16 
REMARK    5  A    between atoms: C_16  and  C_17 
REMARK    6  A    between atoms: C_17  and  C_18 
REMARK    7  A    between atoms: C_21  and  O_22 
ROOT
HETATM    1  C   UNL     1       7.469  29.493  56.816  1.00  0.00     0.288 C 
HETATM    2  N   UNL     1       8.168  28.332  56.572  1.00  0.00    -0.261 N 
HETATM    3  O   UNL     1       6.618  29.917  56.034  1.00  0.00    -0.264 OA
HETATM    4  H   UNL     1       8.814  27.904  57.229  1.00  0.00     0.190 HD
ENDROOT
BRANCH   2   5
HETATM    5  N   UNL     1       7.990  27.667  55.349  1.00  0.00    -0.249 N 
HETATM    6  C   UNL     1       7.348  26.447  55.391  1.00  0.00     0.335 C 
HETATM    7  N   UNL     1       7.214  25.899  54.143  1.00  0.00    -0.337 N 
HETATM    8  O   UNL     1       6.984  25.914  56.434  1.00  0.00    -0.246 OA
HETATM    9  H   UNL     1       7.818  26.266  53.422  1.00  0.00     0.164 HD
HETATM   10  H   UNL     1       7.796  28.276  54.557  1.00  0.00     0.192 HD
BRANCH   7  11
HETATM   11  C   UNL     1       6.595  24.596  53.923  1.00  0.00     0.086 C 
HETATM   12  C   UNL     1       7.473  23.720  53.023  1.00  0.00     0.032 C 
BRANCH  11  13
HETATM   13  C   UNL     1       5.193  24.737  53.290  1.00  0.00     0.063 C 
BRANCH  13  14
HETATM   14  C   UNL     1       4.960  25.967  52.438  1.00  0.00    -0.056 A 
HETATM   15  C   UNL     1       5.291  25.932  51.072  1.00  0.00     0.010 A 
HETATM   16  C   UNL     1       5.069  27.040  50.251  1.00  0.00     0.037 A 
HETATM   17  C   UNL     1       4.502  28.187  50.793  1.00  0.00     0.065 A 
HETATM   18  C   UNL     1       4.151  28.238  52.137  1.00  0.00     0.037 A 
HETATM   19  C   UNL     1       4.371  27.129  52.955  1.00  0.00     0.010 A 
BRANCH  17  20
HETATM   20  O   UNL     1       4.267  29.292  50.031  1.00  0.00    -0.361 OA
HETATM   21  H   UNL     1       4.933  29.965  50.247  1.00  0.00     0.217 HD
ENDBRANCH  17  20
ENDBRANCH  13  14
ENDBRANCH  11  13
ENDBRANCH   7  11
ENDBRANCH   2   5
BRANCH   1  22
HETATM   22  C   UNL     1       7.823  30.184  58.024  1.00  0.00     0.121 A 
HETATM   23  N   UNL     1       9.064  30.065  58.584  1.00  0.00    -0.272 N 
HETATM   24  N   UNL     1       9.200  30.694  59.759  1.00  0.00    -0.174 NA
HETATM   25  H   UNL     1       9.848  29.533  58.218  1.00  0.00     0.189 HD
HETATM   26  C   UNL     1       8.010  31.279  59.971  1.00  0.00     0.089 A 
HETATM   27  C   UNL     1       7.128  31.006  58.889  1.00  0.00     0.071 A 
BRANCH  26  28
HETATM   28  C   UNL     1       7.723  32.029  61.195  1.00  0.00    -0.006 A 
HETATM   29  C   UNL     1       6.717  33.003  61.229  1.00  0.00     0.014 A 
HETATM   30  C   UNL     1       6.416  33.676  62.419  1.00  0.00     0.007 A 
HETATM   31  C   UNL     1       7.120  33.392  63.593  1.00  0.00    -0.062 A 
HETATM   32  C   UNL     1       6.760  34.073  64.880  1.00  0.00     0.048 C 
HETATM   33  C   UNL     1       8.125  32.420  63.564  1.00  0.00     0.007 A 
HETATM   34  C   UNL     1       8.429  31.752  62.374  1.00  0.00     0.014 A 
ENDBRANCH  26  28
ENDBRANCH   1  22
TORSDOF 7
ENDMDL
MODEL 8
REMARK VINA RESULT:      -8.9      7.281     10.687
REMARK  7 active torsions:
REMARK  status: ('A' for Active; 'I' for Inactive)
REMARK    1  A    between atoms: C_5  and  C_6 
REMARK    2  A    between atoms: C_10  and  C_11 
REMARK       I    between atoms: C_11  and  N_12 
REMARK    3  A    between atoms: N_12  and  N_13 
REMARK       I    between atoms: N_13  and  C_14 
REMARK       I    between atoms: C_14  and  N_15 
REMARK    4  A    between atoms: N_15  and  C_16 
REMARK    5  A    between atoms: C_16  and  C_17 
REMARK    6  A    between atoms: C_17  and  C_18 
REMARK    7  A    between atoms: C_21  and  O_22 
ROOT
HETATM    1  C   UNL     1       4.896  28.083  52.820  1.00  0.00     0.288 C 
HETATM    2  N   UNL     1       5.891  28.772  52.164  1.00  0.00    -0.261 N 
HETATM    3  O   UNL     1       3.733  28.485  52.846  1.00  0.00    -0.264 OA
HETATM    4  H   UNL     1       6.841  28.432  52.047  1.00  0.00     0.190 HD
ENDROOT
BRANCH   2   5
HETATM    5  N   UNL     1       5.603  30.025  51.601  1.00  0.00    -0.249 N 
HETATM    6  C   UNL     1       5.512  30.084  50.227  1.00  0.00     0.335 C 
HETATM    7  N   UNL     1       5.210  31.346  49.790  1.00  0.00    -0.337 N 
HETATM    8  O   UNL     1       5.718  29.120  49.497  1.00  0.00    -0.246 OA
HETATM    9  H   UNL     1       5.375  32.100  50.442  1.00  0.00     0.164 HD
HETATM   10  H   UNL     1       4.958  30.597  52.143  1.00  0.00     0.192 HD
BRANCH   7  11
HETATM   11  C   UNL     1       5.089  31.677  48.374  1.00  0.00     0.086 C 
HETATM   12  C   UNL     1       5.761  33.019  48.067  1.00  0.00     0.032 C 
BRANCH  11  13
HETATM   13  C   UNL     1       3.609  31.733  47.934  1.00  0.00     0.063 C 
BRANCH  13  14
HETATM   14  C   UNL     1       2.829  30.438  48.025  1.00  0.00    -0.056 A 
HETATM   15  C   UNL     1       2.961  29.481  47.004  1.00  0.00     0.010 A 
HETATM   16  C   UNL     1       2.274  28.267  47.065  1.00  0.00     0.037 A 
HETATM   17  C   UNL     1       1.458  27.999  48.158  1.00  0.00     0.065 A 
HETATM   18  C   UNL     1       1.326  28.924  49.187  1.00  0.00     0.037 A 
HETATM   19  C   UNL     1       2.016  30.136  49.126  1.00  0.00     0.010 A 
BRANCH  17  20
HETATM   20  O   UNL     1       0.768  26.829  48.261  1.00  0.00    -0.361 OA
HETATM   21  H   UNL     1       1.399  26.092  48.221  1.00  0.00     0.217 HD
ENDBRANCH  17  20
ENDBRANCH  13  14
ENDBRANCH  11  13
ENDBRANCH   7  11
ENDBRANCH   2   5
BRANCH   1  22
HETATM   22  C   UNL     1       5.315  26.885  53.492  1.00  0.00     0.121 A 
HETATM   23  N   UNL     1       5.133  26.711  54.835  1.00  0.00    -0.272 N 
HETATM   24  N   UNL     1       5.669  25.583  55.321  1.00  0.00    -0.174 NA
HETATM   25  H   UNL     1       4.678  27.354  55.476  1.00  0.00     0.189 HD
HETATM   26  C   UNL     1       6.200  24.970  54.251  1.00  0.00     0.089 A 
HETATM   27  C   UNL     1       5.973  25.743  53.078  1.00  0.00     0.071 A 
BRANCH  26  28
HETATM   28  C   UNL     1       6.942  23.713  54.367  1.00  0.00    -0.006 A 
HETATM   29  C   UNL     1       7.235  23.157  55.619  1.00  0.00     0.014 A 
HETATM   30  C   UNL     1       7.898  21.928  55.716  1.00  0.00     0.007 A 
HETATM   31  C   UNL     1       8.286  21.237  54.563  1.00  0.00    -0.062 A 
HETATM   32  C   UNL     1       8.946  19.894  54.666  1.00  0.00     0.048 C 
HETATM   33  C   UNL     1       7.995  21.788  53.311  1.00  0.00     0.007 A 
HETATM   34  C   UNL     1       7.337  23.019  53.215  1.00  0.00     0.014 A 
ENDBRANCH  26  28
ENDBRANCH   1  22
TORSDOF 7
ENDMDL
MODEL 9
REMARK VINA RESULT:      -8.8      2.261      2.576
REMARK  7 active torsions:
REMARK  status: ('A' for Active; 'I' for Inactive)
REMARK    1  A    between atoms: C_5  and  C_6 
REMARK    2  A    between atoms: C_10  and  C_11 
REMARK       I    between atoms: C_11  and  N_12 
REMARK    3  A    between atoms: N_12  and  N_13 
REMARK       I    between atoms: N_13  and  C_14 
REMARK       I    between atoms: C_14  and  N_15 
REMARK    4  A    between atoms: N_15  and  C_16 
REMARK    5  A    between atoms: C_16  and  C_17 
REMARK    6  A    between atoms: C_17  and  C_18 
REMARK    7  A    between atoms: C_21  and  O_22 
ROOT
HETATM    1  C   UNL     1       5.044  30.215  56.211  1.00  0.00     0.288 C 
HETATM    2  N   UNL     1       6.129  29.928  55.414  1.00  0.00    -0.261 N 
HETATM    3  O   UNL     1       3.933  29.731  55.997  1.00  0.00    -0.264 OA
HETATM    4  H   UNL     1       7.078  30.237  55.607  1.00  0.00     0.190 HD
ENDROOT
BRANCH   2   5
HETATM    5  N   UNL     1       5.948  29.151  54.260  1.00  0.00    -0.249 N 
HETATM    6  C   UNL     1       6.258  27.810  54.356  1.00  0.00     0.335 C 
HETATM    7  N   UNL     1       6.026  27.149  53.180  1.00  0.00    -0.337 N 
HETATM    8  O   UNL     1       6.722  27.298  55.369  1.00  0.00    -0.246 OA
HETATM    9  H   UNL     1       5.952  27.718  52.350  1.00  0.00     0.164 HD
HETATM   10  H   UNL     1       5.142  29.410  53.694  1.00  0.00     0.192 HD
BRANCH   7  11
HETATM   11  C   UNL     1       6.305  25.726  53.015  1.00  0.00     0.086 C 
HETATM   12  C   UNL     1       5.021  24.900  53.143  1.00  0.00     0.032 C 
BRANCH  11  13
HETATM   13  C   UNL     1       7.338  25.230  54.051  1.00  0.00     0.063 C 
BRANCH  13  14
HETATM   14  C   UNL     1       7.616  23.741  54.066  1.00  0.00    -0.056 A 
HETATM   15  C   UNL     1       8.023  23.104  52.882  1.00  0.00     0.010 A 
HETATM   16  C   UNL     1       8.309  21.737  52.864  1.00  0.00     0.037 A 
HETATM   17  C   UNL     1       8.201  21.003  54.038  1.00  0.00     0.065 A 
HETATM   18  C   UNL     1       7.817  21.616  55.225  1.00  0.00     0.037 A 
HETATM   19  C   UNL     1       7.535  22.983  55.242  1.00  0.00     0.010 A 
BRANCH  17  20
HETATM   20  O   UNL     1       8.470  19.667  54.069  1.00  0.00    -0.361 OA
HETATM   21  H   UNL     1       9.422  19.545  54.212  1.00  0.00     0.217 HD
ENDBRANCH  17  20
ENDBRANCH  13  14
ENDBRANCH  11  13
ENDBRANCH   7  11
ENDBRANCH   2   5
BRANCH   1  22
HETATM   22  C   UNL     1       5.293  31.136  57.284  1.00  0.00     0.121 A 
HETATM   23  N   UNL     1       5.332  32.487  57.079  1.00  0.00    -0.272 N 
HETATM   24  N   UNL     1       5.673  33.198  58.162  1.00  0.00    -0.174 NA
HETATM   25  H   UNL     1       5.166  32.975  56.204  1.00  0.00     0.189 HD
HETATM   26  C   UNL     1       5.837  32.284  59.132  1.00  0.00     0.089 A 
HETATM   27  C   UNL     1       5.579  30.979  58.626  1.00  0.00     0.071 A 
BRANCH  26  28
HETATM   28  C   UNL     1       6.276  32.653  60.479  1.00  0.00    -0.006 A 
HETATM   29  C   UNL     1       5.449  33.394  61.332  1.00  0.00     0.014 A 
HETATM   30  C   UNL     1       5.858  33.696  62.637  1.00  0.00     0.007 A 
HETATM   31  C   UNL     1       7.103  33.267  63.108  1.00  0.00    -0.062 A 
HETATM   32  C   UNL     1       7.518  33.543  64.523  1.00  0.00     0.048 C 
HETATM   33  C   UNL     1       7.932  32.527  62.259  1.00  0.00     0.007 A 
HETATM   34  C   UNL     1       7.525  32.230  60.954  1.00  0.00     0.014 A 
ENDBRANCH  26  28
ENDBRANCH   1  22
TORSDOF 7
ENDMDL
MODEL 10
REMARK VINA RESULT:      -8.7      4.733      8.308
REMARK  7 active torsions:
REMARK  status: ('A' for Active; 'I' for Inactive)
REMARK    1  A    between atoms: C_5  and  C_6 
REMARK    2  A    between atoms: C_10  and  C_11 
REMARK       I    between atoms: C_11  and  N_12 
REMARK    3  A    between atoms: N_12  and  N_13 
REMARK       I    between atoms: N_13  and  C_14 
REMARK       I    between atoms: C_14  and  N_15 
REMARK    4  A    between atoms: N_15  and  C_16 
REMARK    5  A    between atoms: C_16  and  C_17 
REMARK    6  A    between atoms: C_17  and  C_18 
REMARK    7  A    between atoms: C_21  and  O_22 
ROOT
HETATM    1  C   UNL     1       5.620  33.673  64.048  1.00  0.00     0.288 C 
HETATM    2  N   UNL     1       5.927  32.408  63.599  1.00  0.00    -0.261 N 
HETATM    3  O   UNL     1       5.388  34.601  63.274  1.00  0.00    -0.264 OA
HETATM    4  H   UNL     1       6.040  31.599  64.202  1.00  0.00     0.190 HD
ENDROOT
BRANCH   2   5
HETATM    5  N   UNL     1       6.089  32.189  62.222  1.00  0.00    -0.249 N 
HETATM    6  C   UNL     1       7.272  31.605  61.820  1.00  0.00     0.335 C 
HETATM    7  N   UNL     1       7.315  31.423  60.464  1.00  0.00    -0.337 N 
HETATM    8  O   UNL     1       8.181  31.326  62.594  1.00  0.00    -0.246 OA
HETATM    9  H   UNL     1       6.665  31.967  59.915  1.00  0.00     0.164 HD
HETATM   10  H   UNL     1       5.239  31.923  61.730  1.00  0.00     0.192 HD
BRANCH   7  11
HETATM   11  C   UNL     1       8.474  30.851  59.787  1.00  0.00     0.086 C 
HETATM   12  C   UNL     1       9.718  31.717  60.008  1.00  0.00     0.032 C 
BRANCH  11  13
HETATM   13  C   UNL     1       8.221  30.695  58.271  1.00  0.00     0.063 C 
BRANCH  13  14
HETATM   14  C   UNL     1       7.225  29.630  57.860  1.00  0.00    -0.056 A 
HETATM   15  C   UNL     1       5.914  30.007  57.524  1.00  0.00     0.010 A 
HETATM   16  C   UNL     1       4.975  29.055  57.119  1.00  0.00     0.037 A 
HETATM   17  C   UNL     1       5.351  27.720  57.037  1.00  0.00     0.065 A 
HETATM   18  C   UNL     1       6.647  27.327  57.348  1.00  0.00     0.037 A 
HETATM   19  C   UNL     1       7.585  28.280  57.749  1.00  0.00     0.010 A 
BRANCH  17  20
HETATM   20  O   UNL     1       4.470  26.756  56.648  1.00  0.00    -0.361 OA
HETATM   21  H   UNL     1       4.926  26.139  56.053  1.00  0.00     0.217 HD
ENDBRANCH  17  20
ENDBRANCH  13  14
ENDBRANCH  11  13
ENDBRANCH   7  11
ENDBRANCH   2   5
BRANCH   1  22
HETATM   22  C   UNL     1       5.620  33.838  65.475  1.00  0.00     0.121 A 
HETATM   23  N   UNL     1       4.459  33.908  66.192  1.00  0.00    -0.272 N 
HETATM   24  N   UNL     1       4.632  34.161  67.497  1.00  0.00    -0.174 NA
HETATM   25  H   UNL     1       3.514  33.824  65.830  1.00  0.00     0.189 HD
HETATM   26  C   UNL     1       5.964  34.230  67.655  1.00  0.00     0.089 A 
HETATM   27  C   UNL     1       6.620  34.004  66.413  1.00  0.00     0.071 A 
BRANCH  26  28
HETATM   28  C   UNL     1       6.574  34.553  68.946  1.00  0.00    -0.006 A 
HETATM   29  C   UNL     1       7.955  34.759  69.064  1.00  0.00     0.014 A 
HETATM   30  C   UNL     1       8.520  35.119  70.293  1.00  0.00     0.007 A 
HETATM   31  C   UNL     1       7.716  35.272  71.427  1.00  0.00    -0.062 A 
HETATM   32  C   UNL     1       8.313  35.712  72.730  1.00  0.00     0.048 C 
HETATM   33  C   UNL     1       6.336  35.068  71.314  1.00  0.00     0.007 A 
HETATM   34  C   UNL     1       5.773  34.704  70.087  1.00  0.00     0.014 A 
ENDBRANCH  26  28
ENDBRANCH   1  22
TORSDOF 7
ENDMDL
