MODEL 1
REMARK VINA RESULT:      -9.7      0.000      0.000
REMARK  9 active torsions:
REMARK  status: ('A' for Active; 'I' for Inactive)
REMARK    1  A    between atoms: C_2  and  C_3 
REMARK    2  A    between atoms: C_5  and  O_6 
REMARK    3  A    between atoms: C_8  and  O_9 
REMARK    4  A    between atoms: O_9  and  C_10 
REMARK    5  A    between atoms: C_10  and  C_11 
REMARK       I    between atoms: C_11  and  N_12 
REMARK    6  A    between atoms: N_12  and  C_13 
REMARK    7  A    between atoms: C_13  and  C_14 
REMARK    8  A    between atoms: C_17  and  N_18 
REMARK       I    between atoms: N_18  and  C_19 
REMARK    9  A    between atoms: C_19  and  C_20 
ROOT
HETATM    1  C   UNL     1       4.865  25.830  52.854  1.00  0.00     0.242 C 
HETATM    2  N   UNL     1       4.137  26.791  53.493  1.00  0.00    -0.355 N 
HETATM    3  O   UNL     1       4.403  24.690  52.776  1.00  0.00    -0.271 OA
HETATM    4  H   UNL     1       3.246  26.455  53.835  1.00  0.00     0.162 HD
ENDROOT
BRANCH   2   5
HETATM    5  C   UNL     1       4.380  28.219  53.545  1.00  0.00     0.161 C 
BRANCH   5   6
HETATM    6  C   UNL     1       5.059  28.581  54.842  1.00  0.00    -0.040 A 
HETATM    7  C   UNL     1       4.297  28.826  55.992  1.00  0.00     0.011 A 
HETATM    8  C   UNL     1       4.907  29.236  57.183  1.00  0.00     0.030 A 
HETATM    9  C   UNL     1       6.289  29.411  57.246  1.00  0.00     0.035 A 
HETATM   10  C   UNL     1       7.055  29.144  56.106  1.00  0.00     0.030 A 
HETATM   11  C   UNL     1       6.448  28.735  54.913  1.00  0.00     0.011 A 
BRANCH   9  12
HETATM   12  N   UNL     1       6.972  29.872  58.388  1.00  0.00    -0.321 N 
HETATM   13  C   UNL     1       7.129  31.173  58.828  1.00  0.00     0.279 C 
HETATM   14  O   UNL     1       6.624  32.167  58.317  1.00  0.00    -0.265 OA
HETATM   15  H   UNL     1       7.457  29.177  58.947  1.00  0.00     0.169 HD
BRANCH  13  16
HETATM   16  C   UNL     1       7.993  31.266  59.994  1.00  0.00     0.142 A 
HETATM   17  O   UNL     1       8.685  30.156  60.414  1.00  0.00    -0.317 OA
HETATM   18  C   UNL     1       9.415  30.527  61.496  1.00  0.00     0.143 A 
HETATM   19  C   UNL     1       9.209  31.855  61.787  1.00  0.00     0.027 A 
HETATM   20  C   UNL     1       8.292  32.332  60.822  1.00  0.00     0.045 A 
ENDBRANCH  13  16
ENDBRANCH   9  12
ENDBRANCH   5   6
ENDBRANCH   2   5
BRANCH   1  21
HETATM   21  C   UNL     1       6.208  26.192  52.233  1.00  0.00     0.278 C 
BRANCH  21  22
HETATM   22  O   UNL     1       7.236  25.939  53.182  1.00  0.00    -0.339 OA
BRANCH  22  23
HETATM   23  C   UNL     1       7.477  24.631  53.514  1.00  0.00     0.102 A 
HETATM   24  C   UNL     1       7.342  24.304  54.877  1.00  0.00     0.102 A 
HETATM   25  C   UNL     1       7.607  23.001  55.318  1.00  0.00     0.054 A 
HETATM   26  C   UNL     1       7.991  22.015  54.401  1.00  0.00     0.012 A 
HETATM   27  C   UNL     1       8.105  22.341  53.044  1.00  0.00     0.018 A 
HETATM   28  C   UNL     1       7.856  23.645  52.603  1.00  0.00     0.040 A 
BRANCH  24  29
HETATM   29  O   UNL     1       6.985  25.329  55.720  1.00  0.00    -0.353 OA
HETATM   30  C   UNL     1       5.757  25.170  56.421  1.00  0.00     0.210 C 
ENDBRANCH  24  29
BRANCH  26  31
HETATM   31  C   UNL     1       8.295  20.615  54.821  1.00  0.00     0.155 C 
HETATM   32  C   UNL     1       8.220  20.253  56.281  1.00  0.00     0.096 C 
HETATM   33  O   UNL     1       8.602  19.778  53.974  1.00  0.00    -0.293 OA
ENDBRANCH  26  31
ENDBRANCH  22  23
ENDBRANCH  21  22
ENDBRANCH   1  21
TORSDOF 9
ENDMDL
MODEL 2
REMARK VINA RESULT:      -9.6      1.708      2.328
REMARK  9 active torsions:
REMARK  status: ('A' for Active; 'I' for Inactive)
REMARK    1  A    between atoms: C_2  and  C_3 
REMARK    2  A    between atoms: C_5  and  O_6 
REMARK    3  A    between atoms: C_8  and  O_9 
REMARK    4  A    between atoms: O_9  and  C_10 
REMARK    5  A    between atoms: C_10  and  C_11 
REMARK       I    between atoms: C_11  and  N_12 
REMARK    6  A    between atoms: N_12  and  C_13 
REMARK    7  A    between atoms: C_13  and  C_14 
REMARK    8  A    between atoms: C_17  and  N_18 
REMARK       I    between atoms: N_18  and  C_19 
REMARK    9  A    between atoms: C_19  and  C_20 
ROOT
HETATM    1  C   UNL     1       6.198  27.780  52.804  1.00  0.00     0.242 C 
HETATM    2  N   UNL     1       6.766  28.535  53.789  1.00  0.00    -0.355 N 
HETATM    3  O   UNL     1       5.332  28.290  52.091  1.00  0.00    -0.271 OA
HETATM    4  H   UNL     1       6.413  29.483  53.818  1.00  0.00     0.162 HD
ENDROOT
BRANCH   2   5
HETATM    5  C   UNL     1       7.915  28.223  54.615  1.00  0.00     0.161 C 
BRANCH   5   6
HETATM    6  C   UNL     1       7.837  28.980  55.917  1.00  0.00    -0.040 A 
HETATM    7  C   UNL     1       8.909  28.944  56.818  1.00  0.00     0.011 A 
HETATM    8  C   UNL     1       8.822  29.579  58.062  1.00  0.00     0.030 A 
HETATM    9  C   UNL     1       7.661  30.259  58.430  1.00  0.00     0.035 A 
HETATM   10  C   UNL     1       6.597  30.315  57.522  1.00  0.00     0.030 A 
HETATM   11  C   UNL     1       6.681  29.681  56.277  1.00  0.00     0.011 A 
BRANCH   9  12
HETATM   12  N   UNL     1       7.473  30.876  59.681  1.00  0.00    -0.321 N 
HETATM   13  C   UNL     1       8.112  31.991  60.193  1.00  0.00     0.279 C 
HETATM   14  O   UNL     1       8.924  32.688  59.593  1.00  0.00    -0.265 OA
HETATM   15  H   UNL     1       6.822  30.434  60.321  1.00  0.00     0.169 HD
BRANCH  13  16
HETATM   16  C   UNL     1       7.729  32.270  61.567  1.00  0.00     0.142 A 
HETATM   17  O   UNL     1       6.414  32.535  61.862  1.00  0.00    -0.317 OA
HETATM   18  C   UNL     1       6.339  32.738  63.203  1.00  0.00     0.143 A 
HETATM   19  C   UNL     1       7.580  32.612  63.781  1.00  0.00     0.027 A 
HETATM   20  C   UNL     1       8.477  32.313  62.729  1.00  0.00     0.045 A 
ENDBRANCH  13  16
ENDBRANCH   9  12
ENDBRANCH   5   6
ENDBRANCH   2   5
BRANCH   1  21
HETATM   21  C   UNL     1       6.663  26.344  52.596  1.00  0.00     0.278 C 
BRANCH  21  22
HETATM   22  O   UNL     1       6.139  25.535  53.640  1.00  0.00    -0.339 OA
BRANCH  22  23
HETATM   23  C   UNL     1       6.729  24.314  53.845  1.00  0.00     0.102 A 
HETATM   24  C   UNL     1       6.848  23.902  55.187  1.00  0.00     0.102 A 
HETATM   25  C   UNL     1       7.472  22.687  55.497  1.00  0.00     0.054 A 
HETATM   26  C   UNL     1       7.965  21.870  54.473  1.00  0.00     0.012 A 
HETATM   27  C   UNL     1       7.827  22.276  53.140  1.00  0.00     0.018 A 
HETATM   28  C   UNL     1       7.218  23.495  52.827  1.00  0.00     0.040 A 
BRANCH  24  29
HETATM   29  O   UNL     1       6.362  24.767  56.137  1.00  0.00    -0.353 OA
HETATM   30  C   UNL     1       7.320  25.338  57.020  1.00  0.00     0.210 C 
ENDBRANCH  24  29
BRANCH  26  31
HETATM   31  C   UNL     1       8.649  20.572  54.751  1.00  0.00     0.155 C 
HETATM   32  C   UNL     1       9.089  20.261  56.157  1.00  0.00     0.096 C 
HETATM   33  O   UNL     1       8.842  19.777  53.834  1.00  0.00    -0.293 OA
ENDBRANCH  26  31
ENDBRANCH  22  23
ENDBRANCH  21  22
ENDBRANCH   1  21
TORSDOF 9
ENDMDL
MODEL 3
REMARK VINA RESULT:      -8.8      3.603     11.269
REMARK  9 active torsions:
REMARK  status: ('A' for Active; 'I' for Inactive)
REMARK    1  A    between atoms: C_2  and  C_3 
REMARK    2  A    between atoms: C_5  and  O_6 
REMARK    3  A    between atoms: C_8  and  O_9 
REMARK    4  A    between atoms: O_9  and  C_10 
REMARK    5  A    between atoms: C_10  and  C_11 
REMARK       I    between atoms: C_11  and  N_12 
REMARK    6  A    between atoms: N_12  and  C_13 
REMARK    7  A    between atoms: C_13  and  C_14 
REMARK    8  A    between atoms: C_17  and  N_18 
REMARK       I    between atoms: N_18  and  C_19 
REMARK    9  A    between atoms: C_19  and  C_20 
ROOT
HETATM    1  C   UNL     1       8.177  32.196  59.952  1.00  0.00     0.242 C 
HETATM    2  N   UNL     1       8.028  31.330  58.908  1.00  0.00    -0.355 N 
HETATM    3  O   UNL     1       9.300  32.641  60.199  1.00  0.00    -0.271 OA
HETATM    4  H   UNL     1       8.892  31.151  58.413  1.00  0.00     0.162 HD
ENDROOT
BRANCH   2   5
HETATM    5  C   UNL     1       6.802  30.832  58.319  1.00  0.00     0.161 C 
BRANCH   5   6
HETATM    6  C   UNL     1       7.018  29.443  57.771  1.00  0.00    -0.040 A 
HETATM    7  C   UNL     1       8.312  28.913  57.683  1.00  0.00     0.011 A 
HETATM    8  C   UNL     1       8.536  27.657  57.109  1.00  0.00     0.030 A 
HETATM    9  C   UNL     1       7.471  26.908  56.608  1.00  0.00     0.035 A 
HETATM   10  C   UNL     1       6.174  27.425  56.715  1.00  0.00     0.030 A 
HETATM   11  C   UNL     1       5.948  28.681  57.289  1.00  0.00     0.011 A 
BRANCH   9  12
HETATM   12  N   UNL     1       7.617  25.663  55.968  1.00  0.00    -0.321 N 
HETATM   13  C   UNL     1       7.637  25.391  54.612  1.00  0.00     0.279 C 
HETATM   14  O   UNL     1       7.598  26.226  53.715  1.00  0.00    -0.265 OA
HETATM   15  H   UNL     1       7.672  24.842  56.562  1.00  0.00     0.169 HD
BRANCH  13  16
HETATM   16  C   UNL     1       7.699  23.966  54.331  1.00  0.00     0.142 A 
HETATM   17  O   UNL     1       7.983  23.540  53.056  1.00  0.00    -0.317 OA
HETATM   18  C   UNL     1       7.996  22.182  53.084  1.00  0.00     0.143 A 
HETATM   19  C   UNL     1       7.725  21.721  54.351  1.00  0.00     0.027 A 
HETATM   20  C   UNL     1       7.532  22.869  55.155  1.00  0.00     0.045 A 
ENDBRANCH  13  16
ENDBRANCH   9  12
ENDBRANCH   5   6
ENDBRANCH   2   5
BRANCH   1  21
HETATM   21  C   UNL     1       6.957  32.610  60.765  1.00  0.00     0.278 C 
BRANCH  21  22
HETATM   22  O   UNL     1       6.894  31.811  61.938  1.00  0.00    -0.339 OA
BRANCH  22  23
HETATM   23  C   UNL     1       6.676  32.456  63.128  1.00  0.00     0.102 A 
HETATM   24  C   UNL     1       5.332  32.572  63.533  1.00  0.00     0.102 A 
HETATM   25  C   UNL     1       5.009  33.251  64.715  1.00  0.00     0.054 A 
HETATM   26  C   UNL     1       6.023  33.802  65.507  1.00  0.00     0.012 A 
HETATM   27  C   UNL     1       7.359  33.668  65.109  1.00  0.00     0.018 A 
HETATM   28  C   UNL     1       7.684  33.004  63.922  1.00  0.00     0.040 A 
BRANCH  24  29
HETATM   29  O   UNL     1       4.392  32.027  62.693  1.00  0.00    -0.353 OA
HETATM   30  C   UNL     1       3.461  32.934  62.114  1.00  0.00     0.210 C 
ENDBRANCH  24  29
BRANCH  26  31
HETATM   31  C   UNL     1       5.731  34.545  66.769  1.00  0.00     0.155 C 
HETATM   32  C   UNL     1       6.682  34.419  67.930  1.00  0.00     0.096 C 
HETATM   33  O   UNL     1       4.725  35.247  66.845  1.00  0.00    -0.293 OA
ENDBRANCH  26  31
ENDBRANCH  22  23
ENDBRANCH  21  22
ENDBRANCH   1  21
TORSDOF 9
ENDMDL
MODEL 4
REMARK VINA RESULT:      -8.8      3.322      5.240
REMARK  9 active torsions:
REMARK  status: ('A' for Active; 'I' for Inactive)
REMARK    1  A    between atoms: C_2  and  C_3 
REMARK    2  A    between atoms: C_5  and  O_6 
REMARK    3  A    between atoms: C_8  and  O_9 
REMARK    4  A    between atoms: O_9  and  C_10 
REMARK    5  A    between atoms: C_10  and  C_11 
REMARK       I    between atoms: C_11  and  N_12 
REMARK    6  A    between atoms: N_12  and  C_13 
REMARK    7  A    between atoms: C_13  and  C_14 
REMARK    8  A    between atoms: C_17  and  N_18 
REMARK       I    between atoms: N_18  and  C_19 
REMARK    9  A    between atoms: C_19  and  C_20 
ROOT
HETATM    1  C   UNL     1       7.662  29.034  56.902  1.00  0.00     0.242 C 
HETATM    2  N   UNL     1       8.185  30.087  57.594  1.00  0.00    -0.355 N 
HETATM    3  O   UNL     1       6.997  29.261  55.889  1.00  0.00    -0.271 OA
HETATM    4  H   UNL     1       7.978  30.983  57.173  1.00  0.00     0.162 HD
ENDROOT
BRANCH   2   5
HETATM    5  C   UNL     1       9.139  30.063  58.685  1.00  0.00     0.161 C 
BRANCH   5   6
HETATM    6  C   UNL     1       8.590  30.817  59.869  1.00  0.00    -0.040 A 
HETATM    7  C   UNL     1       9.084  30.568  61.156  1.00  0.00     0.011 A 
HETATM    8  C   UNL     1       8.533  31.205  62.273  1.00  0.00     0.030 A 
HETATM    9  C   UNL     1       7.475  32.101  62.126  1.00  0.00     0.035 A 
HETATM   10  C   UNL     1       6.994  32.371  60.839  1.00  0.00     0.030 A 
HETATM   11  C   UNL     1       7.543  31.734  59.720  1.00  0.00     0.011 A 
BRANCH   9  12
HETATM   12  N   UNL     1       6.831  32.741  63.201  1.00  0.00    -0.321 N 
HETATM   13  C   UNL     1       5.585  32.472  63.740  1.00  0.00     0.279 C 
HETATM   14  O   UNL     1       4.843  31.556  63.402  1.00  0.00    -0.265 OA
HETATM   15  H   UNL     1       7.307  33.534  63.618  1.00  0.00     0.169 HD
BRANCH  13  16
HETATM   16  C   UNL     1       5.212  33.418  64.779  1.00  0.00     0.142 A 
HETATM   17  O   UNL     1       3.885  33.701  64.991  1.00  0.00    -0.317 OA
HETATM   18  C   UNL     1       3.826  34.588  66.018  1.00  0.00     0.143 A 
HETATM   19  C   UNL     1       5.089  34.885  66.474  1.00  0.00     0.027 A 
HETATM   20  C   UNL     1       5.983  34.134  65.676  1.00  0.00     0.045 A 
ENDBRANCH  13  16
ENDBRANCH   9  12
ENDBRANCH   5   6
ENDBRANCH   2   5
BRANCH   1  21
HETATM   21  C   UNL     1       7.930  27.612  57.379  1.00  0.00     0.278 C 
BRANCH  21  22
HETATM   22  O   UNL     1       6.835  26.787  57.006  1.00  0.00    -0.339 OA
BRANCH  22  23
HETATM   23  C   UNL     1       7.126  25.578  56.429  1.00  0.00     0.102 A 
HETATM   24  C   UNL     1       6.541  25.336  55.171  1.00  0.00     0.102 A 
HETATM   25  C   UNL     1       6.748  24.113  54.522  1.00  0.00     0.054 A 
HETATM   26  C   UNL     1       7.552  23.132  55.113  1.00  0.00     0.012 A 
HETATM   27  C   UNL     1       8.147  23.385  56.356  1.00  0.00     0.018 A 
HETATM   28  C   UNL     1       7.930  24.600  57.014  1.00  0.00     0.040 A 
BRANCH  24  29
HETATM   29  O   UNL     1       5.746  26.336  54.664  1.00  0.00    -0.353 OA
HETATM   30  C   UNL     1       5.087  26.056  53.435  1.00  0.00     0.210 C 
ENDBRANCH  24  29
BRANCH  26  31
HETATM   31  C   UNL     1       7.796  21.807  54.469  1.00  0.00     0.155 C 
HETATM   32  C   UNL     1       8.070  20.608  55.338  1.00  0.00     0.096 C 
HETATM   33  O   UNL     1       7.769  21.712  53.243  1.00  0.00    -0.293 OA
ENDBRANCH  26  31
ENDBRANCH  22  23
ENDBRANCH  21  22
ENDBRANCH   1  21
TORSDOF 9
ENDMDL
MODEL 5
REMARK VINA RESULT:      -8.8      2.357      4.012
REMARK  9 active torsions:
REMARK  status: ('A' for Active; 'I' for Inactive)
REMARK    1  A    between atoms: C_2  and  C_3 
REMARK    2  A    between atoms: C_5  and  O_6 
REMARK    3  A    between atoms: C_8  and  O_9 
REMARK    4  A    between atoms: O_9  and  C_10 
REMARK    5  A    between atoms: C_10  and  C_11 
REMARK       I    between atoms: C_11  and  N_12 
REMARK    6  A    between atoms: N_12  and  C_13 
REMARK    7  A    between atoms: C_13  and  C_14 
REMARK    8  A    between atoms: C_17  and  N_18 
REMARK       I    between atoms: N_18  and  C_19 
REMARK    9  A    between atoms: C_19  and  C_20 
ROOT
HETATM    1  C   UNL     1       7.900  28.295  55.029  1.00  0.00     0.242 C 
HETATM    2  N   UNL     1       8.783  29.270  55.391  1.00  0.00    -0.355 N 
HETATM    3  O   UNL     1       7.266  28.428  53.980  1.00  0.00    -0.271 OA
HETATM    4  H   UNL     1       8.841  30.024  54.719  1.00  0.00     0.162 HD
ENDROOT
BRANCH   2   5
HETATM    5  C   UNL     1       9.761  29.247  56.460  1.00  0.00     0.161 C 
BRANCH   5   6
HETATM    6  C   UNL     1       9.303  30.123  57.599  1.00  0.00    -0.040 A 
HETATM    7  C   UNL     1      10.170  31.074  58.151  1.00  0.00     0.011 A 
HETATM    8  C   UNL     1       9.785  31.841  59.256  1.00  0.00     0.030 A 
HETATM    9  C   UNL     1       8.526  31.670  59.832  1.00  0.00     0.035 A 
HETATM   10  C   UNL     1       7.648  30.737  59.268  1.00  0.00     0.030 A 
HETATM   11  C   UNL     1       8.031  29.968  58.163  1.00  0.00     0.011 A 
BRANCH   9  12
HETATM   12  N   UNL     1       8.084  32.362  60.975  1.00  0.00    -0.321 N 
HETATM   13  C   UNL     1       8.074  31.932  62.290  1.00  0.00     0.279 C 
HETATM   14  O   UNL     1       8.529  30.868  62.697  1.00  0.00    -0.265 OA
HETATM   15  H   UNL     1       7.674  33.279  60.829  1.00  0.00     0.169 HD
BRANCH  13  16
HETATM   16  C   UNL     1       7.441  32.887  63.183  1.00  0.00     0.142 A 
HETATM   17  O   UNL     1       7.705  32.832  64.530  1.00  0.00    -0.317 OA
HETATM   18  C   UNL     1       7.005  33.838  65.115  1.00  0.00     0.143 A 
HETATM   19  C   UNL     1       6.291  34.543  64.174  1.00  0.00     0.027 A 
HETATM   20  C   UNL     1       6.569  33.930  62.930  1.00  0.00     0.045 A 
ENDBRANCH  13  16
ENDBRANCH   9  12
ENDBRANCH   5   6
ENDBRANCH   2   5
BRANCH   1  21
HETATM   21  C   UNL     1       7.737  27.062  55.910  1.00  0.00     0.278 C 
BRANCH  21  22
HETATM   22  O   UNL     1       6.800  26.184  55.303  1.00  0.00    -0.339 OA
BRANCH  22  23
HETATM   23  C   UNL     1       7.230  24.917  55.000  1.00  0.00     0.102 A 
HETATM   24  C   UNL     1       6.812  24.402  53.757  1.00  0.00     0.102 A 
HETATM   25  C   UNL     1       7.168  23.102  53.379  1.00  0.00     0.054 A 
HETATM   26  C   UNL     1       7.955  22.315  54.227  1.00  0.00     0.012 A 
HETATM   27  C   UNL     1       8.384  22.839  55.453  1.00  0.00     0.018 A 
HETATM   28  C   UNL     1       8.018  24.131  55.841  1.00  0.00     0.040 A 
BRANCH  24  29
HETATM   29  O   UNL     1       6.023  25.224  52.989  1.00  0.00    -0.353 OA
HETATM   30  C   UNL     1       6.578  25.659  51.754  1.00  0.00     0.210 C 
ENDBRANCH  24  29
BRANCH  26  31
HETATM   31  C   UNL     1       8.353  20.919  53.876  1.00  0.00     0.155 C 
HETATM   32  C   UNL     1       8.732  19.965  54.978  1.00  0.00     0.096 C 
HETATM   33  O   UNL     1       8.364  20.567  52.698  1.00  0.00    -0.293 OA
ENDBRANCH  26  31
ENDBRANCH  22  23
ENDBRANCH  21  22
ENDBRANCH   1  21
TORSDOF 9
ENDMDL
MODEL 6
REMARK VINA RESULT:      -8.7      2.995     10.745
REMARK  9 active torsions:
REMARK  status: ('A' for Active; 'I' for Inactive)
REMARK    1  A    between atoms: C_2  and  C_3 
REMARK    2  A    between atoms: C_5  and  O_6 
REMARK    3  A    between atoms: C_8  and  O_9 
REMARK    4  A    between atoms: O_9  and  C_10 
REMARK    5  A    between atoms: C_10  and  C_11 
REMARK       I    between atoms: C_11  and  N_12 
REMARK    6  A    between atoms: N_12  and  C_13 
REMARK    7  A    between atoms: C_13  and  C_14 
REMARK    8  A    between atoms: C_17  and  N_18 
REMARK       I    between atoms: N_18  and  C_19 
REMARK    9  A    between atoms: C_19  and  C_20 
ROOT
HETATM    1  C   UNL     1       9.237  31.304  58.746  1.00  0.00     0.242 C 
HETATM    2  N   UNL     1       8.590  30.600  57.773  1.00  0.00    -0.355 N 
HETATM    3  O   UNL     1      10.217  31.984  58.435  1.00  0.00    -0.271 OA
HETATM    4  H   UNL     1       8.991  30.731  56.853  1.00  0.00     0.162 HD
ENDROOT
BRANCH   2   5
HETATM    5  C   UNL     1       7.327  29.895  57.859  1.00  0.00     0.161 C 
BRANCH   5   6
HETATM    6  C   UNL     1       7.444  28.543  57.201  1.00  0.00    -0.040 A 
HETATM    7  C   UNL     1       6.383  28.036  56.438  1.00  0.00     0.011 A 
HETATM    8  C   UNL     1       6.447  26.753  55.884  1.00  0.00     0.030 A 
HETATM    9  C   UNL     1       7.570  25.950  56.084  1.00  0.00     0.035 A 
HETATM   10  C   UNL     1       8.640  26.463  56.827  1.00  0.00     0.030 A 
HETATM   11  C   UNL     1       8.579  27.746  57.383  1.00  0.00     0.011 A 
BRANCH   9  12
HETATM   12  N   UNL     1       7.689  24.632  55.607  1.00  0.00    -0.321 N 
HETATM   13  C   UNL     1       7.902  24.204  54.309  1.00  0.00     0.279 C 
HETATM   14  O   UNL     1       8.096  24.929  53.340  1.00  0.00    -0.265 OA
HETATM   15  H   UNL     1       7.561  23.884  56.281  1.00  0.00     0.169 HD
BRANCH  13  16
HETATM   16  C   UNL     1       7.862  22.756  54.187  1.00  0.00     0.142 A 
HETATM   17  O   UNL     1       7.749  21.984  55.318  1.00  0.00    -0.317 OA
HETATM   18  C   UNL     1       7.718  20.688  54.915  1.00  0.00     0.143 A 
HETATM   19  C   UNL     1       7.809  20.604  53.546  1.00  0.00     0.027 A 
HETATM   20  C   UNL     1       7.905  21.935  53.075  1.00  0.00     0.045 A 
ENDBRANCH  13  16
ENDBRANCH   9  12
ENDBRANCH   5   6
ENDBRANCH   2   5
BRANCH   1  21
HETATM   21  C   UNL     1       8.721  31.254  60.179  1.00  0.00     0.278 C 
BRANCH  21  22
HETATM   22  O   UNL     1       7.660  32.189  60.319  1.00  0.00    -0.339 OA
BRANCH  22  23
HETATM   23  C   UNL     1       7.245  32.483  61.592  1.00  0.00     0.102 A 
HETATM   24  C   UNL     1       5.881  32.802  61.740  1.00  0.00     0.102 A 
HETATM   25  C   UNL     1       5.372  33.155  62.996  1.00  0.00     0.054 A 
HETATM   26  C   UNL     1       6.215  33.176  64.113  1.00  0.00     0.012 A 
HETATM   27  C   UNL     1       7.567  32.840  63.964  1.00  0.00     0.018 A 
HETATM   28  C   UNL     1       8.081  32.501  62.709  1.00  0.00     0.040 A 
BRANCH  24  29
HETATM   29  O   UNL     1       5.121  32.782  60.595  1.00  0.00    -0.353 OA
HETATM   30  C   UNL     1       4.309  33.926  60.357  1.00  0.00     0.210 C 
ENDBRANCH  24  29
BRANCH  26  31
HETATM   31  C   UNL     1       5.726  33.556  65.472  1.00  0.00     0.155 C 
HETATM   32  C   UNL     1       6.679  34.209  66.438  1.00  0.00     0.096 C 
HETATM   33  O   UNL     1       4.558  33.333  65.784  1.00  0.00    -0.293 OA
ENDBRANCH  26  31
ENDBRANCH  22  23
ENDBRANCH  21  22
ENDBRANCH   1  21
TORSDOF 9
ENDMDL
MODEL 7
REMARK VINA RESULT:      -8.2      2.555     10.037
REMARK  9 active torsions:
REMARK  status: ('A' for Active; 'I' for Inactive)
REMARK    1  A    between atoms: C_2  and  C_3 
REMARK    2  A    between atoms: C_5  and  O_6 
REMARK    3  A    between atoms: C_8  and  O_9 
REMARK    4  A    between atoms: O_9  and  C_10 
REMARK    5  A    between atoms: C_10  and  C_11 
REMARK       I    between atoms: C_11  and  N_12 
REMARK    6  A    between atoms: N_12  and  C_13 
REMARK    7  A    between atoms: C_13  and  C_14 
REMARK    8  A    between atoms: C_17  and  N_18 
REMARK       I    between atoms: N_18  and  C_19 
REMARK    9  A    between atoms: C_19  and  C_20 
ROOT
HETATM    1  C   UNL     1       4.315  31.069  57.769  1.00  0.00     0.242 C 
HETATM    2  N   UNL     1       4.662  30.136  56.836  1.00  0.00    -0.355 N 
HETATM    3  O   UNL     1       3.271  30.913  58.405  1.00  0.00    -0.271 OA
HETATM    4  H   UNL     1       4.005  29.369  56.777  1.00  0.00     0.162 HD
ENDROOT
BRANCH   2   5
HETATM    5  C   UNL     1       5.911  30.007  56.112  1.00  0.00     0.161 C 
BRANCH   5   6
HETATM    6  C   UNL     1       6.113  28.576  55.682  1.00  0.00    -0.040 A 
HETATM    7  C   UNL     1       5.382  27.547  56.288  1.00  0.00     0.011 A 
HETATM    8  C   UNL     1       5.612  26.208  55.953  1.00  0.00     0.030 A 
HETATM    9  C   UNL     1       6.581  25.872  55.007  1.00  0.00     0.035 A 
HETATM   10  C   UNL     1       7.297  26.899  54.383  1.00  0.00     0.030 A 
HETATM   11  C   UNL     1       7.069  28.239  54.716  1.00  0.00     0.011 A 
BRANCH   9  12
HETATM   12  N   UNL     1       6.910  24.550  54.654  1.00  0.00    -0.321 N 
HETATM   13  C   UNL     1       7.943  23.764  55.135  1.00  0.00     0.279 C 
HETATM   14  O   UNL     1       8.723  24.077  56.027  1.00  0.00    -0.265 OA
HETATM   15  H   UNL     1       6.358  24.116  53.921  1.00  0.00     0.169 HD
BRANCH  13  16
HETATM   16  C   UNL     1       8.031  22.484  54.453  1.00  0.00     0.142 A 
HETATM   17  O   UNL     1       8.326  21.352  55.174  1.00  0.00    -0.317 OA
HETATM   18  C   UNL     1       8.326  20.312  54.300  1.00  0.00     0.143 A 
HETATM   19  C   UNL     1       8.040  20.748  53.028  1.00  0.00     0.027 A 
HETATM   20  C   UNL     1       7.851  22.146  53.124  1.00  0.00     0.045 A 
ENDBRANCH  13  16
ENDBRANCH   9  12
ENDBRANCH   5   6
ENDBRANCH   2   5
BRANCH   1  21
HETATM   21  C   UNL     1       5.231  32.261  58.016  1.00  0.00     0.278 C 
BRANCH  21  22
HETATM   22  O   UNL     1       6.264  31.870  58.911  1.00  0.00    -0.339 OA
BRANCH  22  23
HETATM   23  C   UNL     1       6.128  32.233  60.226  1.00  0.00     0.102 A 
HETATM   24  C   UNL     1       7.190  31.877  61.080  1.00  0.00     0.102 A 
HETATM   25  C   UNL     1       7.123  32.172  62.448  1.00  0.00     0.054 A 
HETATM   26  C   UNL     1       6.006  32.836  62.968  1.00  0.00     0.012 A 
HETATM   27  C   UNL     1       4.961  33.204  62.112  1.00  0.00     0.018 A 
HETATM   28  C   UNL     1       5.018  32.899  60.748  1.00  0.00     0.040 A 
BRANCH  24  29
HETATM   29  O   UNL     1       8.241  31.207  60.501  1.00  0.00    -0.353 OA
HETATM   30  C   UNL     1       9.455  31.936  60.364  1.00  0.00     0.210 C 
ENDBRANCH  24  29
BRANCH  26  31
HETATM   31  C   UNL     1       5.880  33.163  64.420  1.00  0.00     0.155 C 
HETATM   32  C   UNL     1       7.090  33.658  65.168  1.00  0.00     0.096 C 
HETATM   33  O   UNL     1       4.797  33.025  64.984  1.00  0.00    -0.293 OA
ENDBRANCH  26  31
ENDBRANCH  22  23
ENDBRANCH  21  22
ENDBRANCH   1  21
TORSDOF 9
ENDMDL
MODEL 8
REMARK VINA RESULT:      -8.2      3.861     11.426
REMARK  9 active torsions:
REMARK  status: ('A' for Active; 'I' for Inactive)
REMARK    1  A    between atoms: C_2  and  C_3 
REMARK    2  A    between atoms: C_5  and  O_6 
REMARK    3  A    between atoms: C_8  and  O_9 
REMARK    4  A    between atoms: O_9  and  C_10 
REMARK    5  A    between atoms: C_10  and  C_11 
REMARK       I    between atoms: C_11  and  N_12 
REMARK    6  A    between atoms: N_12  and  C_13 
REMARK    7  A    between atoms: C_13  and  C_14 
REMARK    8  A    between atoms: C_17  and  N_18 
REMARK       I    between atoms: N_18  and  C_19 
REMARK    9  A    between atoms: C_19  and  C_20 
ROOT
HETATM    1  C   UNL     1       8.742  30.963  61.653  1.00  0.00     0.242 C 
HETATM    2  N   UNL     1       9.312  30.470  60.516  1.00  0.00    -0.355 N 
HETATM    3  O   UNL     1       8.854  30.321  62.700  1.00  0.00    -0.271 OA
HETATM    4  H   UNL     1       9.806  29.599  60.663  1.00  0.00     0.162 HD
ENDROOT
BRANCH   2   5
HETATM    5  C   UNL     1       9.475  31.124  59.233  1.00  0.00     0.161 C 
BRANCH   5   6
HETATM    6  C   UNL     1       8.872  30.277  58.141  1.00  0.00    -0.040 A 
HETATM    7  C   UNL     1       7.583  29.749  58.288  1.00  0.00     0.011 A 
HETATM    8  C   UNL     1       7.039  28.900  57.318  1.00  0.00     0.030 A 
HETATM    9  C   UNL     1       7.776  28.559  56.183  1.00  0.00     0.035 A 
HETATM   10  C   UNL     1       9.055  29.104  56.022  1.00  0.00     0.030 A 
HETATM   11  C   UNL     1       9.601  29.953  56.992  1.00  0.00     0.011 A 
BRANCH   9  12
HETATM   12  N   UNL     1       7.324  27.671  55.189  1.00  0.00    -0.321 N 
HETATM   13  C   UNL     1       6.296  27.850  54.281  1.00  0.00     0.279 C 
HETATM   14  O   UNL     1       5.633  28.872  54.143  1.00  0.00    -0.265 OA
HETATM   15  H   UNL     1       7.767  26.759  55.148  1.00  0.00     0.169 HD
BRANCH  13  16
HETATM   16  C   UNL     1       6.052  26.663  53.477  1.00  0.00     0.142 A 
HETATM   17  O   UNL     1       6.965  26.296  52.519  1.00  0.00    -0.317 OA
HETATM   18  C   UNL     1       6.500  25.158  51.940  1.00  0.00     0.143 A 
HETATM   19  C   UNL     1       5.304  24.783  52.504  1.00  0.00     0.027 A 
HETATM   20  C   UNL     1       5.012  25.752  53.492  1.00  0.00     0.045 A 
ENDBRANCH  13  16
ENDBRANCH   9  12
ENDBRANCH   5   6
ENDBRANCH   2   5
BRANCH   1  21
HETATM   21  C   UNL     1       8.008  32.297  61.609  1.00  0.00     0.278 C 
BRANCH  21  22
HETATM   22  O   UNL     1       6.719  32.132  62.184  1.00  0.00    -0.339 OA
BRANCH  22  23
HETATM   23  C   UNL     1       6.490  32.728  63.397  1.00  0.00     0.102 A 
HETATM   24  C   UNL     1       5.141  32.845  63.785  1.00  0.00     0.102 A 
HETATM   25  C   UNL     1       4.807  33.476  64.990  1.00  0.00     0.054 A 
HETATM   26  C   UNL     1       5.815  33.977  65.822  1.00  0.00     0.012 A 
HETATM   27  C   UNL     1       7.155  33.841  65.441  1.00  0.00     0.018 A 
HETATM   28  C   UNL     1       7.492  33.225  64.232  1.00  0.00     0.040 A 
BRANCH  24  29
HETATM   29  O   UNL     1       4.207  32.351  62.906  1.00  0.00    -0.353 OA
HETATM   30  C   UNL     1       3.350  33.306  62.292  1.00  0.00     0.210 C 
ENDBRANCH  24  29
BRANCH  26  31
HETATM   31  C   UNL     1       5.511  34.668  67.110  1.00  0.00     0.155 C 
HETATM   32  C   UNL     1       4.586  35.856  67.106  1.00  0.00     0.096 C 
HETATM   33  O   UNL     1       6.017  34.260  68.154  1.00  0.00    -0.293 OA
ENDBRANCH  26  31
ENDBRANCH  22  23
ENDBRANCH  21  22
ENDBRANCH   1  21
TORSDOF 9
ENDMDL
MODEL 9
REMARK VINA RESULT:      -8.1      5.155      8.257
REMARK  9 active torsions:
REMARK  status: ('A' for Active; 'I' for Inactive)
REMARK    1  A    between atoms: C_2  and  C_3 
REMARK    2  A    between atoms: C_5  and  O_6 
REMARK    3  A    between atoms: C_8  and  O_9 
REMARK    4  A    between atoms: O_9  and  C_10 
REMARK    5  A    between atoms: C_10  and  C_11 
REMARK       I    between atoms: C_11  and  N_12 
REMARK    6  A    between atoms: N_12  and  C_13 
REMARK    7  A    between atoms: C_13  and  C_14 
REMARK    8  A    between atoms: C_17  and  N_18 
REMARK       I    between atoms: N_18  and  C_19 
REMARK    9  A    between atoms: C_19  and  C_20 
ROOT
HETATM    1  C   UNL     1       8.350  31.912  59.657  1.00  0.00     0.242 C 
HETATM    2  N   UNL     1       7.528  32.652  60.455  1.00  0.00    -0.355 N 
HETATM    3  O   UNL     1       9.414  32.406  59.280  1.00  0.00    -0.271 OA
HETATM    4  H   UNL     1       7.905  33.564  60.679  1.00  0.00     0.162 HD
ENDROOT
BRANCH   2   5
HETATM    5  C   UNL     1       6.338  32.226  61.166  1.00  0.00     0.161 C 
BRANCH   5   6
HETATM    6  C   UNL     1       6.384  32.717  62.591  1.00  0.00    -0.040 A 
HETATM    7  C   UNL     1       7.610  33.042  63.186  1.00  0.00     0.011 A 
HETATM    8  C   UNL     1       7.675  33.427  64.530  1.00  0.00     0.030 A 
HETATM    9  C   UNL     1       6.518  33.491  65.305  1.00  0.00     0.035 A 
HETATM   10  C   UNL     1       5.289  33.191  64.706  1.00  0.00     0.030 A 
HETATM   11  C   UNL     1       5.220  32.805  63.363  1.00  0.00     0.011 A 
BRANCH   9  12
HETATM   12  N   UNL     1       6.505  33.817  66.674  1.00  0.00    -0.321 N 
HETATM   13  C   UNL     1       5.836  34.851  67.305  1.00  0.00     0.279 C 
HETATM   14  O   UNL     1       5.065  35.637  66.767  1.00  0.00    -0.265 OA
HETATM   15  H   UNL     1       7.091  33.260  67.287  1.00  0.00     0.169 HD
BRANCH  13  16
HETATM   16  C   UNL     1       6.151  34.933  68.722  1.00  0.00     0.142 A 
HETATM   17  O   UNL     1       5.371  34.257  69.629  1.00  0.00    -0.317 OA
HETATM   18  C   UNL     1       5.895  34.493  70.859  1.00  0.00     0.143 A 
HETATM   19  C   UNL     1       6.998  35.308  70.768  1.00  0.00     0.027 A 
HETATM   20  C   UNL     1       7.163  35.595  69.392  1.00  0.00     0.045 A 
ENDBRANCH  13  16
ENDBRANCH   9  12
ENDBRANCH   5   6
ENDBRANCH   2   5
BRANCH   1  21
HETATM   21  C   UNL     1       7.948  30.493  59.275  1.00  0.00     0.278 C 
BRANCH  21  22
HETATM   22  O   UNL     1       7.670  30.453  57.882  1.00  0.00    -0.339 OA
BRANCH  22  23
HETATM   23  C   UNL     1       7.408  29.227  57.328  1.00  0.00     0.102 A 
HETATM   24  C   UNL     1       6.213  29.124  56.589  1.00  0.00     0.102 A 
HETATM   25  C   UNL     1       5.841  27.900  56.019  1.00  0.00     0.054 A 
HETATM   26  C   UNL     1       6.664  26.778  56.168  1.00  0.00     0.012 A 
HETATM   27  C   UNL     1       7.859  26.890  56.888  1.00  0.00     0.018 A 
HETATM   28  C   UNL     1       8.227  28.106  57.471  1.00  0.00     0.040 A 
BRANCH  24  29
HETATM   29  O   UNL     1       5.446  30.261  56.505  1.00  0.00    -0.353 OA
HETATM   30  C   UNL     1       4.164  30.204  57.117  1.00  0.00     0.210 C 
ENDBRANCH  24  29
BRANCH  26  31
HETATM   31  C   UNL     1       6.307  25.448  55.590  1.00  0.00     0.155 C 
HETATM   32  C   UNL     1       7.011  24.216  56.095  1.00  0.00     0.096 C 
HETATM   33  O   UNL     1       5.447  25.374  54.715  1.00  0.00    -0.293 OA
ENDBRANCH  26  31
ENDBRANCH  22  23
ENDBRANCH  21  22
ENDBRANCH   1  21
TORSDOF 9
ENDMDL
MODEL 10
REMARK VINA RESULT:      -8.1      2.946      7.553
REMARK  9 active torsions:
REMARK  status: ('A' for Active; 'I' for Inactive)
REMARK    1  A    between atoms: C_2  and  C_3 
REMARK    2  A    between atoms: C_5  and  O_6 
REMARK    3  A    between atoms: C_8  and  O_9 
REMARK    4  A    between atoms: O_9  and  C_10 
REMARK    5  A    between atoms: C_10  and  C_11 
REMARK       I    between atoms: C_11  and  N_12 
REMARK    6  A    between atoms: N_12  and  C_13 
REMARK    7  A    between atoms: C_13  and  C_14 
REMARK    8  A    between atoms: C_17  and  N_18 
REMARK       I    between atoms: N_18  and  C_19 
REMARK    9  A    between atoms: C_19  and  C_20 
ROOT
HETATM    1  C   UNL     1       3.911  30.684  56.496  1.00  0.00     0.242 C 
HETATM    2  N   UNL     1       4.899  30.037  57.180  1.00  0.00    -0.355 N 
HETATM    3  O   UNL     1       2.797  30.784  57.014  1.00  0.00    -0.271 OA
HETATM    4  H   UNL     1       4.603  29.710  58.091  1.00  0.00     0.162 HD
ENDROOT
BRANCH   2   5
HETATM    5  C   UNL     1       6.311  29.960  56.865  1.00  0.00     0.161 C 
BRANCH   5   6
HETATM    6  C   UNL     1       6.660  28.571  56.392  1.00  0.00    -0.040 A 
HETATM    7  C   UNL     1       7.434  28.393  55.238  1.00  0.00     0.011 A 
HETATM    8  C   UNL     1       7.702  27.111  54.744  1.00  0.00     0.030 A 
HETATM    9  C   UNL     1       7.199  25.984  55.393  1.00  0.00     0.035 A 
HETATM   10  C   UNL     1       6.445  26.158  56.560  1.00  0.00     0.030 A 
HETATM   11  C   UNL     1       6.175  27.438  57.055  1.00  0.00     0.011 A 
BRANCH   9  12
HETATM   12  N   UNL     1       7.378  24.666  54.932  1.00  0.00    -0.321 N 
HETATM   13  C   UNL     1       8.296  23.724  55.360  1.00  0.00     0.279 C 
HETATM   14  O   UNL     1       9.084  23.864  56.289  1.00  0.00    -0.265 OA
HETATM   15  H   UNL     1       6.798  24.366  54.155  1.00  0.00     0.169 HD
BRANCH  13  16
HETATM   16  C   UNL     1       8.250  22.504  54.571  1.00  0.00     0.142 A 
HETATM   17  O   UNL     1       8.734  21.334  55.104  1.00  0.00    -0.317 OA
HETATM   18  C   UNL     1       8.551  20.365  54.171  1.00  0.00     0.143 A 
HETATM   19  C   UNL     1       7.960  20.883  53.043  1.00  0.00     0.027 A 
HETATM   20  C   UNL     1       7.767  22.261  53.298  1.00  0.00     0.045 A 
ENDBRANCH  13  16
ENDBRANCH   9  12
ENDBRANCH   5   6
ENDBRANCH   2   5
BRANCH   1  21
HETATM   21  C   UNL     1       4.213  31.283  55.128  1.00  0.00     0.278 C 
BRANCH  21  22
HETATM   22  O   UNL     1       3.371  30.671  54.161  1.00  0.00    -0.339 OA
BRANCH  22  23
HETATM   23  C   UNL     1       3.880  29.601  53.471  1.00  0.00     0.102 A 
HETATM   24  C   UNL     1       4.374  29.876  52.181  1.00  0.00     0.102 A 
HETATM   25  C   UNL     1       4.877  28.840  51.384  1.00  0.00     0.054 A 
HETATM   26  C   UNL     1       4.907  27.529  51.875  1.00  0.00     0.012 A 
HETATM   27  C   UNL     1       4.433  27.265  53.166  1.00  0.00     0.018 A 
HETATM   28  C   UNL     1       3.915  28.294  53.958  1.00  0.00     0.040 A 
BRANCH  24  29
HETATM   29  O   UNL     1       4.290  31.181  51.759  1.00  0.00    -0.353 OA
HETATM   30  C   UNL     1       5.142  31.552  50.683  1.00  0.00     0.210 C 
ENDBRANCH  24  29
BRANCH  26  31
HETATM   31  C   UNL     1       5.423  26.387  51.063  1.00  0.00     0.155 C 
HETATM   32  C   UNL     1       6.515  25.519  51.629  1.00  0.00     0.096 C 
HETATM   33  O   UNL     1       4.952  26.170  49.948  1.00  0.00    -0.293 OA
ENDBRANCH  26  31
ENDBRANCH  22  23
ENDBRANCH  21  22
ENDBRANCH   1  21
TORSDOF 9
ENDMDL
