MODEL 1
REMARK VINA RESULT:      -9.3      0.000      0.000
REMARK  5 active torsions:
REMARK  status: ('A' for Active; 'I' for Inactive)
REMARK    1  A    between atoms: C_3  and  N_4 
REMARK       I    between atoms: N_4  and  C_5 
REMARK    2  A    between atoms: C_5  and  C_6 
REMARK    3  A    between atoms: C_14  and  C_15 
REMARK    4  A    between atoms: C_21  and  O_22 
REMARK    5  A    between atoms: C_24  and  O_25 
ROOT
HETATM    1  N   UNL     1       6.127  25.744  52.040  1.00  0.00    -0.322 N 
HETATM    2  C   UNL     1       5.626  24.897  53.016  1.00  0.00     0.257 C 
HETATM    3  O   UNL     1       4.457  24.601  53.217  1.00  0.00    -0.267 OA
HETATM    4  H   UNL     1       7.100  26.007  52.142  1.00  0.00     0.169 HD
ENDROOT
BRANCH   2   5
HETATM    5  C   UNL     1       6.654  24.319  53.919  1.00  0.00     0.046 A 
HETATM    6  C   UNL     1       7.028  24.924  55.143  1.00  0.00     0.008 A 
HETATM    7  C   UNL     1       8.076  24.295  55.842  1.00  0.00     0.068 A 
HETATM    8  C   UNL     1       6.419  26.071  55.720  1.00  0.00     0.015 A 
HETATM    9  C   UNL     1       8.527  24.861  57.026  1.00  0.00     0.032 A 
HETATM   10  N   UNL     1       8.655  23.158  55.424  1.00  0.00    -0.252 NA
HETATM   11  C   UNL     1       7.955  26.017  57.561  1.00  0.00     0.002 A 
HETATM   12  C   UNL     1       6.887  26.617  56.913  1.00  0.00     0.001 A 
HETATM   13  C   UNL     1       8.217  22.558  54.291  1.00  0.00     0.039 A 
HETATM   14  C   UNL     1       7.228  23.117  53.504  1.00  0.00     0.045 A 
BRANCH  13  15
HETATM   15  C   UNL     1       8.826  21.218  53.930  1.00  0.00     0.029 C 
HETATM   16  C   UNL     1       8.868  20.285  55.141  1.00  0.00     0.016 C 
HETATM   17  C   UNL     1       8.051  20.577  52.777  1.00  0.00     0.016 C 
ENDBRANCH  13  15
ENDBRANCH   2   5
BRANCH   1  18
HETATM   18  C   UNL     1       5.348  26.594  51.221  1.00  0.00     0.043 A 
HETATM   19  C   UNL     1       4.968  27.904  51.545  1.00  0.00    -0.032 A 
HETATM   20  C   UNL     1       5.204  28.545  52.885  1.00  0.00     0.050 C 
HETATM   21  C   UNL     1       4.269  28.665  50.584  1.00  0.00     0.048 A 
HETATM   22  C   UNL     1       3.912  28.131  49.342  1.00  0.00     0.102 A 
HETATM   23  C   UNL     1       4.245  26.800  49.051  1.00  0.00     0.103 A 
HETATM   24  C   UNL     1       4.929  26.036  50.002  1.00  0.00     0.069 A 
BRANCH  22  25
HETATM   25  O   UNL     1       3.243  28.816  48.360  1.00  0.00    -0.353 OA
HETATM   26  C   UNL     1       1.883  29.149  48.598  1.00  0.00     0.210 C 
ENDBRANCH  22  25
BRANCH  23  27
HETATM   27  O   UNL     1       3.852  26.323  47.823  1.00  0.00    -0.353 OA
HETATM   28  C   UNL     1       2.984  25.199  47.815  1.00  0.00     0.210 C 
ENDBRANCH  23  27
ENDBRANCH   1  18
TORSDOF 5
ENDMDL
MODEL 2
REMARK VINA RESULT:      -9.0      1.035      3.435
REMARK  5 active torsions:
REMARK  status: ('A' for Active; 'I' for Inactive)
REMARK    1  A    between atoms: C_3  and  N_4 
REMARK       I    between atoms: N_4  and  C_5 
REMARK    2  A    between atoms: C_5  and  C_6 
REMARK    3  A    between atoms: C_14  and  C_15 
REMARK    4  A    between atoms: C_21  and  O_22 
REMARK    5  A    between atoms: C_24  and  O_25 
ROOT
HETATM    1  N   UNL     1       5.799  26.433  52.034  1.00  0.00    -0.322 N 
HETATM    2  C   UNL     1       5.404  25.491  52.970  1.00  0.00     0.257 C 
HETATM    3  O   UNL     1       4.358  24.856  52.994  1.00  0.00    -0.267 OA
HETATM    4  H   UNL     1       6.616  26.981  52.279  1.00  0.00     0.169 HD
ENDROOT
BRANCH   2   5
HETATM    5  C   UNL     1       6.376  25.265  54.070  1.00  0.00     0.046 A 
HETATM    6  C   UNL     1       7.266  24.164  54.095  1.00  0.00     0.008 A 
HETATM    7  C   UNL     1       8.065  24.047  55.248  1.00  0.00     0.068 A 
HETATM    8  C   UNL     1       7.431  23.209  53.055  1.00  0.00     0.015 A 
HETATM    9  C   UNL     1       8.925  22.965  55.362  1.00  0.00     0.032 A 
HETATM   10  N   UNL     1       8.047  24.948  56.244  1.00  0.00    -0.252 NA
HETATM   11  C   UNL     1       9.046  22.004  54.356  1.00  0.00     0.002 A 
HETATM   12  C   UNL     1       8.306  22.134  53.191  1.00  0.00     0.001 A 
HETATM   13  C   UNL     1       7.245  26.036  56.153  1.00  0.00     0.039 A 
HETATM   14  C   UNL     1       6.384  26.221  55.087  1.00  0.00     0.045 A 
BRANCH  13  15
HETATM   15  C   UNL     1       7.350  27.077  57.249  1.00  0.00     0.029 C 
HETATM   16  C   UNL     1       8.652  27.872  57.133  1.00  0.00     0.016 C 
HETATM   17  C   UNL     1       6.138  28.010  57.213  1.00  0.00     0.016 C 
ENDBRANCH  13  15
ENDBRANCH   2   5
BRANCH   1  18
HETATM   18  C   UNL     1       4.965  26.993  51.040  1.00  0.00     0.043 A 
HETATM   19  C   UNL     1       4.262  28.200  51.159  1.00  0.00    -0.032 A 
HETATM   20  C   UNL     1       4.169  29.001  52.429  1.00  0.00     0.050 C 
HETATM   21  C   UNL     1       3.543  28.680  50.044  1.00  0.00     0.048 A 
HETATM   22  C   UNL     1       3.482  27.963  48.845  1.00  0.00     0.102 A 
HETATM   23  C   UNL     1       4.140  26.727  48.755  1.00  0.00     0.103 A 
HETATM   24  C   UNL     1       4.846  26.240  49.860  1.00  0.00     0.069 A 
BRANCH  22  25
HETATM   25  O   UNL     1       2.812  28.374  47.722  1.00  0.00    -0.353 OA
HETATM   26  C   UNL     1       1.393  28.402  47.773  1.00  0.00     0.210 C 
ENDBRANCH  22  25
BRANCH  23  27
HETATM   27  O   UNL     1       4.030  26.058  47.560  1.00  0.00    -0.353 OA
HETATM   28  C   UNL     1       3.079  25.005  47.495  1.00  0.00     0.210 C 
ENDBRANCH  23  27
ENDBRANCH   1  18
TORSDOF 5
ENDMDL
MODEL 3
REMARK VINA RESULT:      -8.7      4.427      7.563
REMARK  5 active torsions:
REMARK  status: ('A' for Active; 'I' for Inactive)
REMARK    1  A    between atoms: C_3  and  N_4 
REMARK       I    between atoms: N_4  and  C_5 
REMARK    2  A    between atoms: C_5  and  C_6 
REMARK    3  A    between atoms: C_14  and  C_15 
REMARK    4  A    between atoms: C_21  and  O_22 
REMARK    5  A    between atoms: C_24  and  O_25 
ROOT
HETATM    1  N   UNL     1       7.900  28.003  56.569  1.00  0.00    -0.322 N 
HETATM    2  C   UNL     1       7.726  26.715  57.048  1.00  0.00     0.257 C 
HETATM    3  O   UNL     1       7.740  26.344  58.214  1.00  0.00    -0.267 OA
HETATM    4  H   UNL     1       8.036  28.086  55.569  1.00  0.00     0.169 HD
ENDROOT
BRANCH   2   5
HETATM    5  C   UNL     1       7.526  25.686  55.996  1.00  0.00     0.046 A 
HETATM    6  C   UNL     1       6.590  25.835  54.944  1.00  0.00     0.008 A 
HETATM    7  C   UNL     1       6.460  24.734  54.077  1.00  0.00     0.068 A 
HETATM    8  C   UNL     1       5.813  26.997  54.686  1.00  0.00     0.015 A 
HETATM    9  C   UNL     1       5.526  24.792  53.053  1.00  0.00     0.032 A 
HETATM   10  N   UNL     1       7.213  23.627  54.185  1.00  0.00    -0.252 NA
HETATM   11  C   UNL     1       4.732  25.919  52.836  1.00  0.00     0.002 A 
HETATM   12  C   UNL     1       4.886  27.032  53.647  1.00  0.00     0.001 A 
HETATM   13  C   UNL     1       8.159  23.548  55.151  1.00  0.00     0.039 A 
HETATM   14  C   UNL     1       8.334  24.552  56.085  1.00  0.00     0.045 A 
BRANCH  13  15
HETATM   15  C   UNL     1       9.057  22.327  55.153  1.00  0.00     0.029 C 
HETATM   16  C   UNL     1       8.662  21.353  56.265  1.00  0.00     0.016 C 
HETATM   17  C   UNL     1       9.018  21.637  53.788  1.00  0.00     0.016 C 
ENDBRANCH  13  15
ENDBRANCH   2   5
BRANCH   1  18
HETATM   18  C   UNL     1       8.339  29.106  57.338  1.00  0.00     0.043 A 
HETATM   19  C   UNL     1       9.641  29.624  57.339  1.00  0.00    -0.032 A 
HETATM   20  C   UNL     1      10.806  28.983  56.636  1.00  0.00     0.050 C 
HETATM   21  C   UNL     1       9.907  30.791  58.087  1.00  0.00     0.048 A 
HETATM   22  C   UNL     1       8.918  31.411  58.857  1.00  0.00     0.102 A 
HETATM   23  C   UNL     1       7.633  30.850  58.897  1.00  0.00     0.103 A 
HETATM   24  C   UNL     1       7.364  29.688  58.166  1.00  0.00     0.069 A 
BRANCH  22  25
HETATM   25  O   UNL     1       9.105  32.549  59.599  1.00  0.00    -0.353 OA
HETATM   26  C   UNL     1       9.548  32.397  60.940  1.00  0.00     0.210 C 
ENDBRANCH  22  25
BRANCH  23  27
HETATM   27  O   UNL     1       6.707  31.491  59.684  1.00  0.00    -0.353 OA
HETATM   28  C   UNL     1       5.699  32.236  59.016  1.00  0.00     0.210 C 
ENDBRANCH  23  27
ENDBRANCH   1  18
TORSDOF 5
ENDMDL
MODEL 4
REMARK VINA RESULT:      -8.6      4.232      7.250
REMARK  5 active torsions:
REMARK  status: ('A' for Active; 'I' for Inactive)
REMARK    1  A    between atoms: C_3  and  N_4 
REMARK       I    between atoms: N_4  and  C_5 
REMARK    2  A    between atoms: C_5  and  C_6 
REMARK    3  A    between atoms: C_14  and  C_15 
REMARK    4  A    between atoms: C_21  and  O_22 
REMARK    5  A    between atoms: C_24  and  O_25 
ROOT
HETATM    1  N   UNL     1       7.232  27.752  56.435  1.00  0.00    -0.322 N 
HETATM    2  C   UNL     1       7.428  26.482  56.952  1.00  0.00     0.257 C 
HETATM    3  O   UNL     1       7.699  26.180  58.107  1.00  0.00    -0.267 OA
HETATM    4  H   UNL     1       7.195  27.815  55.424  1.00  0.00     0.169 HD
ENDROOT
BRANCH   2   5
HETATM    5  C   UNL     1       7.311  25.384  55.958  1.00  0.00     0.046 A 
HETATM    6  C   UNL     1       6.477  25.467  54.817  1.00  0.00     0.008 A 
HETATM    7  C   UNL     1       6.413  24.310  54.019  1.00  0.00     0.068 A 
HETATM    8  C   UNL     1       5.741  26.614  54.411  1.00  0.00     0.015 A 
HETATM    9  C   UNL     1       5.578  24.303  52.911  1.00  0.00     0.032 A 
HETATM   10  N   UNL     1       7.139  23.208  54.270  1.00  0.00    -0.252 NA
HETATM   11  C   UNL     1       4.821  25.419  52.546  1.00  0.00     0.002 A 
HETATM   12  C   UNL     1       4.914  26.584  53.291  1.00  0.00     0.001 A 
HETATM   13  C   UNL     1       7.992  23.190  55.322  1.00  0.00     0.039 A 
HETATM   14  C   UNL     1       8.094  24.254  56.198  1.00  0.00     0.045 A 
BRANCH  13  15
HETATM   15  C   UNL     1       8.870  21.966  55.489  1.00  0.00     0.029 C 
HETATM   16  C   UNL     1       8.466  21.160  56.725  1.00  0.00     0.016 C 
HETATM   17  C   UNL     1       8.814  21.096  54.232  1.00  0.00     0.016 C 
ENDBRANCH  13  15
ENDBRANCH   2   5
BRANCH   1  18
HETATM   18  C   UNL     1       7.519  28.960  57.111  1.00  0.00     0.043 A 
HETATM   19  C   UNL     1       6.565  29.812  57.685  1.00  0.00    -0.032 A 
HETATM   20  C   UNL     1       5.079  29.644  57.527  1.00  0.00     0.050 C 
HETATM   21  C   UNL     1       7.010  30.937  58.413  1.00  0.00     0.048 A 
HETATM   22  C   UNL     1       8.369  31.241  58.536  1.00  0.00     0.102 A 
HETATM   23  C   UNL     1       9.313  30.415  57.908  1.00  0.00     0.103 A 
HETATM   24  C   UNL     1       8.880  29.304  57.177  1.00  0.00     0.069 A 
BRANCH  22  25
HETATM   25  O   UNL     1       8.870  32.310  59.235  1.00  0.00    -0.353 OA
HETATM   26  C   UNL     1       8.914  32.211  60.651  1.00  0.00     0.210 C 
ENDBRANCH  22  25
BRANCH  23  27
HETATM   27  O   UNL     1      10.632  30.772  58.049  1.00  0.00    -0.353 OA
HETATM   28  C   UNL     1      11.590  29.992  57.347  1.00  0.00     0.210 C 
ENDBRANCH  23  27
ENDBRANCH   1  18
TORSDOF 5
ENDMDL
MODEL 5
REMARK VINA RESULT:      -8.2      1.386      2.581
REMARK  5 active torsions:
REMARK  status: ('A' for Active; 'I' for Inactive)
REMARK    1  A    between atoms: C_3  and  N_4 
REMARK       I    between atoms: N_4  and  C_5 
REMARK    2  A    between atoms: C_5  and  C_6 
REMARK    3  A    between atoms: C_14  and  C_15 
REMARK    4  A    between atoms: C_21  and  O_22 
REMARK    5  A    between atoms: C_24  and  O_25 
ROOT
HETATM    1  N   UNL     1       6.136  26.413  52.545  1.00  0.00    -0.322 N 
HETATM    2  C   UNL     1       5.660  25.280  53.184  1.00  0.00     0.257 C 
HETATM    3  O   UNL     1       4.524  24.825  53.149  1.00  0.00    -0.267 OA
HETATM    4  H   UNL     1       7.053  26.730  52.837  1.00  0.00     0.169 HD
ENDROOT
BRANCH   2   5
HETATM    5  C   UNL     1       6.663  24.572  54.019  1.00  0.00     0.046 A 
HETATM    6  C   UNL     1       7.062  25.034  55.297  1.00  0.00     0.008 A 
HETATM    7  C   UNL     1       8.085  24.297  55.924  1.00  0.00     0.068 A 
HETATM    8  C   UNL     1       6.500  26.141  55.990  1.00  0.00     0.015 A 
HETATM    9  C   UNL     1       8.559  24.722  57.157  1.00  0.00     0.032 A 
HETATM   10  N   UNL     1       8.617  23.186  55.390  1.00  0.00    -0.252 NA
HETATM   11  C   UNL     1       8.034  25.839  57.809  1.00  0.00     0.002 A 
HETATM   12  C   UNL     1       6.990  26.543  57.230  1.00  0.00     0.001 A 
HETATM   13  C   UNL     1       8.156  22.722  54.204  1.00  0.00     0.039 A 
HETATM   14  C   UNL     1       7.189  23.397  53.482  1.00  0.00     0.045 A 
BRANCH  13  15
HETATM   15  C   UNL     1       8.710  21.402  53.706  1.00  0.00     0.029 C 
HETATM   16  C   UNL     1       8.906  20.415  54.857  1.00  0.00     0.016 C 
HETATM   17  C   UNL     1       7.792  20.812  52.634  1.00  0.00     0.016 C 
ENDBRANCH  13  15
ENDBRANCH   2   5
BRANCH   1  18
HETATM   18  C   UNL     1       5.334  27.380  51.895  1.00  0.00     0.043 A 
HETATM   19  C   UNL     1       4.705  27.206  50.655  1.00  0.00    -0.032 A 
HETATM   20  C   UNL     1       4.919  26.019  49.757  1.00  0.00     0.050 C 
HETATM   21  C   UNL     1       3.856  28.227  50.176  1.00  0.00     0.048 A 
HETATM   22  C   UNL     1       3.665  29.417  50.886  1.00  0.00     0.102 A 
HETATM   23  C   UNL     1       4.346  29.605  52.097  1.00  0.00     0.103 A 
HETATM   24  C   UNL     1       5.197  28.602  52.574  1.00  0.00     0.069 A 
BRANCH  22  25
HETATM   25  O   UNL     1       2.849  30.444  50.484  1.00  0.00    -0.353 OA
HETATM   26  C   UNL     1       1.490  30.138  50.211  1.00  0.00     0.210 C 
ENDBRANCH  22  25
BRANCH  23  27
HETATM   27  O   UNL     1       4.134  30.800  52.742  1.00  0.00    -0.353 OA
HETATM   28  C   UNL     1       3.422  30.753  53.970  1.00  0.00     0.210 C 
ENDBRANCH  23  27
ENDBRANCH   1  18
TORSDOF 5
ENDMDL
MODEL 6
REMARK VINA RESULT:      -8.2      7.756     11.214
REMARK  5 active torsions:
REMARK  status: ('A' for Active; 'I' for Inactive)
REMARK    1  A    between atoms: C_3  and  N_4 
REMARK       I    between atoms: N_4  and  C_5 
REMARK    2  A    between atoms: C_5  and  C_6 
REMARK    3  A    between atoms: C_14  and  C_15 
REMARK    4  A    between atoms: C_21  and  O_22 
REMARK    5  A    between atoms: C_24  and  O_25 
ROOT
HETATM    1  N   UNL     1       6.696  31.382  60.622  1.00  0.00    -0.322 N 
HETATM    2  C   UNL     1       6.590  31.808  59.307  1.00  0.00     0.257 C 
HETATM    3  O   UNL     1       6.284  32.923  58.907  1.00  0.00    -0.267 OA
HETATM    4  H   UNL     1       6.784  30.381  60.754  1.00  0.00     0.169 HD
ENDROOT
BRANCH   2   5
HETATM    5  C   UNL     1       6.865  30.759  58.292  1.00  0.00     0.046 A 
HETATM    6  C   UNL     1       8.169  30.466  57.824  1.00  0.00     0.008 A 
HETATM    7  C   UNL     1       8.251  29.503  56.801  1.00  0.00     0.068 A 
HETATM    8  C   UNL     1       9.374  31.035  58.320  1.00  0.00     0.015 A 
HETATM    9  C   UNL     1       9.493  29.202  56.260  1.00  0.00     0.032 A 
HETATM   10  N   UNL     1       7.180  28.846  56.328  1.00  0.00    -0.252 NA
HETATM   11  C   UNL     1      10.667  29.802  56.720  1.00  0.00     0.002 A 
HETATM   12  C   UNL     1      10.609  30.711  57.764  1.00  0.00     0.001 A 
HETATM   13  C   UNL     1       5.956  29.088  56.855  1.00  0.00     0.039 A 
HETATM   14  C   UNL     1       5.757  30.049  57.829  1.00  0.00     0.045 A 
BRANCH  13  15
HETATM   15  C   UNL     1       4.802  28.235  56.366  1.00  0.00     0.029 C 
HETATM   16  C   UNL     1       4.509  28.497  54.888  1.00  0.00     0.016 C 
HETATM   17  C   UNL     1       5.098  26.753  56.607  1.00  0.00     0.016 C 
ENDBRANCH  13  15
ENDBRANCH   2   5
BRANCH   1  18
HETATM   18  C   UNL     1       6.259  32.110  61.752  1.00  0.00     0.043 A 
HETATM   19  C   UNL     1       7.093  32.624  62.754  1.00  0.00    -0.032 A 
HETATM   20  C   UNL     1       8.567  32.338  62.856  1.00  0.00     0.050 C 
HETATM   21  C   UNL     1       6.522  33.415  63.774  1.00  0.00     0.048 A 
HETATM   22  C   UNL     1       5.146  33.660  63.829  1.00  0.00     0.102 A 
HETATM   23  C   UNL     1       4.313  33.092  62.855  1.00  0.00     0.103 A 
HETATM   24  C   UNL     1       4.870  32.299  61.847  1.00  0.00     0.069 A 
BRANCH  22  25
HETATM   25  O   UNL     1       4.527  34.425  64.784  1.00  0.00    -0.353 OA
HETATM   26  C   UNL     1       4.538  33.948  66.122  1.00  0.00     0.210 C 
ENDBRANCH  22  25
BRANCH  23  27
HETATM   27  O   UNL     1       2.968  33.352  62.969  1.00  0.00    -0.353 OA
HETATM   28  C   UNL     1       2.399  34.239  62.017  1.00  0.00     0.210 C 
ENDBRANCH  23  27
ENDBRANCH   1  18
TORSDOF 5
ENDMDL
MODEL 7
REMARK VINA RESULT:      -8.1      4.851      8.311
REMARK  5 active torsions:
REMARK  status: ('A' for Active; 'I' for Inactive)
REMARK    1  A    between atoms: C_3  and  N_4 
REMARK       I    between atoms: N_4  and  C_5 
REMARK    2  A    between atoms: C_5  and  C_6 
REMARK    3  A    between atoms: C_14  and  C_15 
REMARK    4  A    between atoms: C_21  and  O_22 
REMARK    5  A    between atoms: C_24  and  O_25 
ROOT
HETATM    1  N   UNL     1       7.044  28.483  57.450  1.00  0.00    -0.322 N 
HETATM    2  C   UNL     1       7.678  28.191  56.253  1.00  0.00     0.257 C 
HETATM    3  O   UNL     1       8.568  28.828  55.706  1.00  0.00    -0.267 OA
HETATM    4  H   UNL     1       6.212  27.941  57.651  1.00  0.00     0.169 HD
ENDROOT
BRANCH   2   5
HETATM    5  C   UNL     1       7.180  26.970  55.571  1.00  0.00     0.046 A 
HETATM    6  C   UNL     1       7.580  25.664  55.945  1.00  0.00     0.008 A 
HETATM    7  C   UNL     1       7.083  24.618  55.145  1.00  0.00     0.068 A 
HETATM    8  C   UNL     1       8.400  25.336  57.059  1.00  0.00     0.015 A 
HETATM    9  C   UNL     1       7.473  23.316  55.424  1.00  0.00     0.032 A 
HETATM   10  N   UNL     1       6.232  24.818  54.125  1.00  0.00    -0.252 NA
HETATM   11  C   UNL     1       8.318  23.007  56.492  1.00  0.00     0.002 A 
HETATM   12  C   UNL     1       8.772  24.020  57.322  1.00  0.00     0.001 A 
HETATM   13  C   UNL     1       5.802  26.071  53.845  1.00  0.00     0.039 A 
HETATM   14  C   UNL     1       6.267  27.174  54.537  1.00  0.00     0.045 A 
BRANCH  13  15
HETATM   15  C   UNL     1       4.754  26.225  52.761  1.00  0.00     0.029 C 
HETATM   16  C   UNL     1       4.273  27.673  52.659  1.00  0.00     0.016 C 
HETATM   17  C   UNL     1       5.304  25.739  51.418  1.00  0.00     0.016 C 
ENDBRANCH  13  15
ENDBRANCH   2   5
BRANCH   1  18
HETATM   18  C   UNL     1       7.166  29.699  58.161  1.00  0.00     0.043 A 
HETATM   19  C   UNL     1       6.300  30.794  58.045  1.00  0.00    -0.032 A 
HETATM   20  C   UNL     1       5.198  30.896  57.026  1.00  0.00     0.050 C 
HETATM   21  C   UNL     1       6.494  31.906  58.893  1.00  0.00     0.048 A 
HETATM   22  C   UNL     1       7.550  31.956  59.808  1.00  0.00     0.102 A 
HETATM   23  C   UNL     1       8.447  30.880  59.874  1.00  0.00     0.103 A 
HETATM   24  C   UNL     1       8.267  29.779  59.031  1.00  0.00     0.069 A 
BRANCH  22  25
HETATM   25  O   UNL     1       7.791  32.999  60.665  1.00  0.00    -0.353 OA
HETATM   26  C   UNL     1       6.824  33.264  61.671  1.00  0.00     0.210 C 
ENDBRANCH  22  25
BRANCH  23  27
HETATM   27  O   UNL     1       9.475  30.992  60.779  1.00  0.00    -0.353 OA
HETATM   28  C   UNL     1       9.350  30.262  61.991  1.00  0.00     0.210 C 
ENDBRANCH  23  27
ENDBRANCH   1  18
TORSDOF 5
ENDMDL
MODEL 8
REMARK VINA RESULT:      -8.0      4.185      7.329
REMARK  5 active torsions:
REMARK  status: ('A' for Active; 'I' for Inactive)
REMARK    1  A    between atoms: C_3  and  N_4 
REMARK       I    between atoms: N_4  and  C_5 
REMARK    2  A    between atoms: C_5  and  C_6 
REMARK    3  A    between atoms: C_14  and  C_15 
REMARK    4  A    between atoms: C_21  and  O_22 
REMARK    5  A    between atoms: C_24  and  O_25 
ROOT
HETATM    1  N   UNL     1       6.409  28.255  55.854  1.00  0.00    -0.322 N 
HETATM    2  C   UNL     1       7.306  27.971  54.836  1.00  0.00     0.257 C 
HETATM    3  O   UNL     1       8.324  28.585  54.547  1.00  0.00    -0.267 OA
HETATM    4  H   UNL     1       5.535  27.743  55.825  1.00  0.00     0.169 HD
ENDROOT
BRANCH   2   5
HETATM    5  C   UNL     1       6.948  26.793  54.006  1.00  0.00     0.046 A 
HETATM    6  C   UNL     1       6.251  26.902  52.778  1.00  0.00     0.008 A 
HETATM    7  C   UNL     1       5.913  25.686  52.154  1.00  0.00     0.068 A 
HETATM    8  C   UNL     1       5.904  28.118  52.128  1.00  0.00     0.015 A 
HETATM    9  C   UNL     1       5.188  25.717  50.972  1.00  0.00     0.032 A 
HETATM   10  N   UNL     1       6.274  24.489  52.644  1.00  0.00    -0.252 NA
HETATM   11  C   UNL     1       4.808  26.916  50.365  1.00  0.00     0.002 A 
HETATM   12  C   UNL     1       5.180  28.122  50.938  1.00  0.00     0.001 A 
HETATM   13  C   UNL     1       7.013  24.420  53.777  1.00  0.00     0.039 A 
HETATM   14  C   UNL     1       7.355  25.552  54.494  1.00  0.00     0.045 A 
BRANCH  13  15
HETATM   15  C   UNL     1       7.490  23.052  54.219  1.00  0.00     0.029 C 
HETATM   16  C   UNL     1       7.897  22.194  53.020  1.00  0.00     0.016 C 
HETATM   17  C   UNL     1       8.650  23.188  55.208  1.00  0.00     0.016 C 
ENDBRANCH  13  15
ENDBRANCH   2   5
BRANCH   1  18
HETATM   18  C   UNL     1       6.396  29.443  56.620  1.00  0.00     0.043 A 
HETATM   19  C   UNL     1       5.572  30.551  56.380  1.00  0.00    -0.032 A 
HETATM   20  C   UNL     1       4.689  30.701  55.172  1.00  0.00     0.050 C 
HETATM   21  C   UNL     1       5.603  31.630  57.290  1.00  0.00     0.048 A 
HETATM   22  C   UNL     1       6.462  31.635  58.393  1.00  0.00     0.102 A 
HETATM   23  C   UNL     1       7.325  30.548  58.591  1.00  0.00     0.103 A 
HETATM   24  C   UNL     1       7.308  29.480  57.688  1.00  0.00     0.069 A 
BRANCH  22  25
HETATM   25  O   UNL     1       6.537  32.644  59.319  1.00  0.00    -0.353 OA
HETATM   26  C   UNL     1       5.438  32.812  60.202  1.00  0.00     0.210 C 
ENDBRANCH  22  25
BRANCH  23  27
HETATM   27  O   UNL     1       8.160  30.616  59.681  1.00  0.00    -0.353 OA
HETATM   28  C   UNL     1       9.533  30.876  59.426  1.00  0.00     0.210 C 
ENDBRANCH  23  27
ENDBRANCH   1  18
TORSDOF 5
ENDMDL
MODEL 9
REMARK VINA RESULT:      -7.9      7.500     10.716
REMARK  5 active torsions:
REMARK  status: ('A' for Active; 'I' for Inactive)
REMARK    1  A    between atoms: C_3  and  N_4 
REMARK       I    between atoms: N_4  and  C_5 
REMARK    2  A    between atoms: C_5  and  C_6 
REMARK    3  A    between atoms: C_14  and  C_15 
REMARK    4  A    between atoms: C_21  and  O_22 
REMARK    5  A    between atoms: C_24  and  O_25 
ROOT
HETATM    1  N   UNL     1       5.803  30.894  58.780  1.00  0.00    -0.322 N 
HETATM    2  C   UNL     1       5.747  32.275  58.876  1.00  0.00     0.257 C 
HETATM    3  O   UNL     1       5.911  33.093  57.981  1.00  0.00    -0.267 OA
HETATM    4  H   UNL     1       5.821  30.392  59.659  1.00  0.00     0.169 HD
ENDROOT
BRANCH   2   5
HETATM    5  C   UNL     1       5.479  32.790  60.243  1.00  0.00     0.046 A 
HETATM    6  C   UNL     1       6.420  32.695  61.298  1.00  0.00     0.008 A 
HETATM    7  C   UNL     1       5.981  33.154  62.554  1.00  0.00     0.068 A 
HETATM    8  C   UNL     1       7.752  32.214  61.178  1.00  0.00     0.015 A 
HETATM    9  C   UNL     1       6.834  33.047  63.643  1.00  0.00     0.032 A 
HETATM   10  N   UNL     1       4.773  33.708  62.749  1.00  0.00    -0.252 NA
HETATM   11  C   UNL     1       8.125  32.527  63.527  1.00  0.00     0.002 A 
HETATM   12  C   UNL     1       8.591  32.122  62.286  1.00  0.00     0.001 A 
HETATM   13  C   UNL     1       3.927  33.860  61.702  1.00  0.00     0.039 A 
HETATM   14  C   UNL     1       4.240  33.399  60.437  1.00  0.00     0.045 A 
BRANCH  13  15
HETATM   15  C   UNL     1       2.626  34.596  61.956  1.00  0.00     0.029 C 
HETATM   16  C   UNL     1       1.671  34.455  60.770  1.00  0.00     0.016 C 
HETATM   17  C   UNL     1       1.972  34.090  63.243  1.00  0.00     0.016 C 
ENDBRANCH  13  15
ENDBRANCH   2   5
BRANCH   1  18
HETATM   18  C   UNL     1       6.272  30.174  57.657  1.00  0.00     0.043 A 
HETATM   19  C   UNL     1       5.474  29.713  56.601  1.00  0.00    -0.032 A 
HETATM   20  C   UNL     1       3.972  29.779  56.586  1.00  0.00     0.050 C 
HETATM   21  C   UNL     1       6.100  29.091  55.499  1.00  0.00     0.048 A 
HETATM   22  C   UNL     1       7.483  28.889  55.457  1.00  0.00     0.102 A 
HETATM   23  C   UNL     1       8.265  29.301  56.545  1.00  0.00     0.103 A 
HETATM   24  C   UNL     1       7.652  29.909  57.646  1.00  0.00     0.069 A 
BRANCH  22  25
HETATM   25  O   UNL     1       8.155  28.302  54.416  1.00  0.00    -0.353 OA
HETATM   26  C   UNL     1       7.561  27.166  53.804  1.00  0.00     0.210 C 
ENDBRANCH  22  25
BRANCH  23  27
HETATM   27  O   UNL     1       9.616  29.061  56.457  1.00  0.00    -0.353 OA
HETATM   28  C   UNL     1      10.485  30.098  56.888  1.00  0.00     0.210 C 
ENDBRANCH  23  27
ENDBRANCH   1  18
TORSDOF 5
ENDMDL
MODEL 10
REMARK VINA RESULT:      -7.9      4.088      7.746
REMARK  5 active torsions:
REMARK  status: ('A' for Active; 'I' for Inactive)
REMARK    1  A    between atoms: C_3  and  N_4 
REMARK       I    between atoms: N_4  and  C_5 
REMARK    2  A    between atoms: C_5  and  C_6 
REMARK    3  A    between atoms: C_14  and  C_15 
REMARK    4  A    between atoms: C_21  and  O_22 
REMARK    5  A    between atoms: C_24  and  O_25 
ROOT
HETATM    1  N   UNL     1       7.004  28.542  55.526  1.00  0.00    -0.322 N 
HETATM    2  C   UNL     1       6.943  27.162  55.635  1.00  0.00     0.257 C 
HETATM    3  O   UNL     1       6.967  26.493  56.660  1.00  0.00    -0.267 OA
HETATM    4  H   UNL     1       7.152  28.903  54.591  1.00  0.00     0.169 HD
ENDROOT
BRANCH   2   5
HETATM    5  C   UNL     1       6.864  26.442  54.339  1.00  0.00     0.046 A 
HETATM    6  C   UNL     1       7.368  25.131  54.156  1.00  0.00     0.008 A 
HETATM    7  C   UNL     1       7.292  24.622  52.847  1.00  0.00     0.068 A 
HETATM    8  C   UNL     1       7.905  24.301  55.178  1.00  0.00     0.015 A 
HETATM    9  C   UNL     1       7.812  23.362  52.585  1.00  0.00     0.032 A 
HETATM   10  N   UNL     1       6.722  25.293  51.833  1.00  0.00    -0.252 NA
HETATM   11  C   UNL     1       8.381  22.572  53.586  1.00  0.00     0.002 A 
HETATM   12  C   UNL     1       8.415  23.037  54.891  1.00  0.00     0.001 A 
HETATM   13  C   UNL     1       6.173  26.511  52.058  1.00  0.00     0.039 A 
HETATM   14  C   UNL     1       6.238  27.124  53.296  1.00  0.00     0.045 A 
BRANCH  13  15
HETATM   15  C   UNL     1       5.441  27.172  50.907  1.00  0.00     0.029 C 
HETATM   16  C   UNL     1       4.803  26.131  49.987  1.00  0.00     0.016 C 
HETATM   17  C   UNL     1       4.388  28.147  51.437  1.00  0.00     0.016 C 
ENDBRANCH  13  15
ENDBRANCH   2   5
BRANCH   1  18
HETATM   18  C   UNL     1       7.319  29.430  56.581  1.00  0.00     0.043 A 
HETATM   19  C   UNL     1       6.384  30.079  57.398  1.00  0.00    -0.032 A 
HETATM   20  C   UNL     1       4.898  30.049  57.170  1.00  0.00     0.050 C 
HETATM   21  C   UNL     1       6.852  30.863  58.475  1.00  0.00     0.048 A 
HETATM   22  C   UNL     1       8.218  31.039  58.716  1.00  0.00     0.102 A 
HETATM   23  C   UNL     1       9.146  30.432  57.856  1.00  0.00     0.103 A 
HETATM   24  C   UNL     1       8.690  29.662  56.781  1.00  0.00     0.069 A 
BRANCH  22  25
HETATM   25  O   UNL     1       8.741  31.777  59.746  1.00  0.00    -0.353 OA
HETATM   26  C   UNL     1       8.412  31.386  61.072  1.00  0.00     0.210 C 
ENDBRANCH  22  25
BRANCH  23  27
HETATM   27  O   UNL     1      10.474  30.655  58.131  1.00  0.00    -0.353 OA
HETATM   28  C   UNL     1      11.422  29.970  57.325  1.00  0.00     0.210 C 
ENDBRANCH  23  27
ENDBRANCH   1  18
TORSDOF 5
ENDMDL
