MODEL 1
REMARK VINA RESULT:      -9.9      0.000      0.000
REMARK  10 active torsions:
REMARK  status: ('A' for Active; 'I' for Inactive)
REMARK    1  A    between atoms: C_2  and  C_3 
REMARK    2  A    between atoms: C_3  and  O_4 
REMARK    3  A    between atoms: O_4  and  C_5 
REMARK    4  A    between atoms: C_7  and  C_8 
REMARK       I    between atoms: C_8  and  N_9 
REMARK    5  A    between atoms: N_9  and  C_10 
REMARK    6  A    between atoms: C_10  and  N_11 
REMARK    7  A    between atoms: N_11  and  C_12 
REMARK    8  A    between atoms: C_15  and  N_16 
REMARK    9  A    between atoms: N_19  and  C_21 
REMARK   10  A    between atoms: C_21  and  C_22 
ROOT
HETATM    1  C   UNL     1       5.131  31.654  57.737  1.00  0.00     0.034 A 
HETATM    2  C   UNL     1       6.438  31.277  58.043  1.00  0.00     0.032 A 
HETATM    3  C   UNL     1       6.857  29.952  57.864  1.00  0.00     0.031 A 
HETATM    4  C   UNL     1       5.984  28.954  57.407  1.00  0.00     0.030 A 
HETATM    5  C   UNL     1       4.661  29.346  57.151  1.00  0.00     0.031 A 
HETATM    6  C   UNL     1       4.237  30.674  57.318  1.00  0.00     0.032 A 
ENDROOT
BRANCH   1   7
HETATM    7  N   UNL     1       4.781  33.003  57.935  1.00  0.00    -0.333 N 
HETATM    8  H   UNL     1       5.224  33.654  57.295  1.00  0.00     0.168 HD
BRANCH   7   9
HETATM    9  C   UNL     1       4.191  33.602  58.992  1.00  0.00     0.179 C 
HETATM   10  S   UNL     1       2.813  34.518  58.735  1.00  0.00    -0.040 SA
BRANCH   9  11
HETATM   11  N   UNL     1       4.608  33.431  60.279  1.00  0.00    -0.299 N 
HETATM   12  C   UNL     1       5.017  34.398  61.196  1.00  0.00     0.257 C 
HETATM   13  O   UNL     1       4.650  35.563  61.263  1.00  0.00    -0.267 OA
HETATM   14  H   UNL     1       5.024  32.517  60.405  1.00  0.00     0.171 HD
BRANCH  12  15
HETATM   15  C   UNL     1       5.937  33.893  62.248  1.00  0.00     0.035 A 
HETATM   16  C   UNL     1       6.735  32.762  62.031  1.00  0.00     0.053 A 
HETATM   17  C   UNL     1       7.597  32.331  63.039  1.00  0.00     0.069 A 
HETATM   18  C   UNL     1       7.636  32.999  64.264  1.00  0.00     0.037 A 
HETATM   19  C   UNL     1       6.862  34.140  64.469  1.00  0.00     0.004 A 
HETATM   20  C   UNL     1       6.018  34.597  63.457  1.00  0.00     0.017 A 
BRANCH  17  21
HETATM   21  O   UNL     1       8.401  31.232  62.926  1.00  0.00    -0.351 OA
BRANCH  21  22
HETATM   22  C   UNL     1       8.690  30.859  61.574  1.00  0.00     0.175 C 
BRANCH  22  23
HETATM   23  C   UNL     1       9.778  31.797  61.057  1.00  0.00     0.022 C 
HETATM   24  C   UNL     1       9.687  31.996  59.555  1.00  0.00     0.007 C 
ENDBRANCH  22  23
ENDBRANCH  21  22
ENDBRANCH  17  21
ENDBRANCH  12  15
ENDBRANCH   9  11
ENDBRANCH   7   9
ENDBRANCH   1   7
BRANCH   4  25
HETATM   25  N   UNL     1       6.462  27.662  57.166  1.00  0.00    -0.378 N 
HETATM   26  C   UNL     1       5.620  26.797  56.319  1.00  0.00     0.150 C 
HETATM   27  C   UNL     1       5.953  25.314  56.589  1.00  0.00     0.255 C 
HETATM   28  N   UNL     1       7.445  25.043  56.415  1.00  0.00    -0.064 N 
HETATM   29  H   UNL     1       7.675  25.228  55.429  1.00  0.00     0.280 HD
HETATM   30  C   UNL     1       8.281  25.995  57.270  1.00  0.00     0.255 C 
HETATM   31  C   UNL     1       7.910  27.464  56.991  1.00  0.00     0.150 C 
BRANCH  28  32
HETATM   32  C   UNL     1       7.773  23.592  56.674  1.00  0.00     0.276 C 
BRANCH  32  33
HETATM   33  C   UNL     1       7.817  22.747  55.436  1.00  0.00     0.006 A 
HETATM   34  C   UNL     1       7.864  21.354  55.549  1.00  0.00     0.124 A 
HETATM   35  F   UNL     1       7.826  20.803  56.771  1.00  0.00    -0.206 F 
HETATM   36  C   UNL     1       7.910  20.532  54.430  1.00  0.00     0.043 A 
HETATM   37  C   UNL     1       7.910  21.109  53.161  1.00  0.00     0.003 A 
HETATM   38  C   UNL     1       7.865  22.496  53.025  1.00  0.00     0.001 A 
HETATM   39  C   UNL     1       7.822  23.316  54.156  1.00  0.00     0.012 A 
ENDBRANCH  32  33
ENDBRANCH  28  32
ENDBRANCH   4  25
TORSDOF 10
ENDMDL
MODEL 2
REMARK VINA RESULT:      -9.9      1.827      3.112
REMARK  10 active torsions:
REMARK  status: ('A' for Active; 'I' for Inactive)
REMARK    1  A    between atoms: C_2  and  C_3 
REMARK    2  A    between atoms: C_3  and  O_4 
REMARK    3  A    between atoms: O_4  and  C_5 
REMARK    4  A    between atoms: C_7  and  C_8 
REMARK       I    between atoms: C_8  and  N_9 
REMARK    5  A    between atoms: N_9  and  C_10 
REMARK    6  A    between atoms: C_10  and  N_11 
REMARK    7  A    between atoms: N_11  and  C_12 
REMARK    8  A    between atoms: C_15  and  N_16 
REMARK    9  A    between atoms: N_19  and  C_21 
REMARK   10  A    between atoms: C_21  and  C_22 
ROOT
HETATM    1  C   UNL     1       5.574  31.436  57.964  1.00  0.00     0.034 A 
HETATM    2  C   UNL     1       6.866  30.987  58.230  1.00  0.00     0.032 A 
HETATM    3  C   UNL     1       7.214  29.648  58.005  1.00  0.00     0.031 A 
HETATM    4  C   UNL     1       6.282  28.708  57.541  1.00  0.00     0.030 A 
HETATM    5  C   UNL     1       4.976  29.172  57.326  1.00  0.00     0.031 A 
HETATM    6  C   UNL     1       4.622  30.515  57.539  1.00  0.00     0.032 A 
ENDROOT
BRANCH   1   7
HETATM    7  N   UNL     1       5.296  32.795  58.207  1.00  0.00    -0.333 N 
HETATM    8  H   UNL     1       5.573  33.424  57.461  1.00  0.00     0.168 HD
BRANCH   7   9
HETATM    9  C   UNL     1       4.991  33.427  59.361  1.00  0.00     0.179 C 
HETATM   10  S   UNL     1       3.779  34.582  59.353  1.00  0.00    -0.040 SA
BRANCH   9  11
HETATM   11  N   UNL     1       5.560  33.114  60.560  1.00  0.00    -0.299 N 
HETATM   12  C   UNL     1       4.935  32.720  61.742  1.00  0.00     0.257 C 
HETATM   13  O   UNL     1       3.884  32.107  61.860  1.00  0.00    -0.267 OA
HETATM   14  H   UNL     1       6.437  33.604  60.681  1.00  0.00     0.171 HD
BRANCH  12  15
HETATM   15  C   UNL     1       5.710  33.021  62.973  1.00  0.00     0.035 A 
HETATM   16  C   UNL     1       5.076  33.484  64.135  1.00  0.00     0.053 A 
HETATM   17  C   UNL     1       5.840  33.739  65.273  1.00  0.00     0.069 A 
HETATM   18  C   UNL     1       7.225  33.571  65.245  1.00  0.00     0.037 A 
HETATM   19  C   UNL     1       7.851  33.086  64.098  1.00  0.00     0.004 A 
HETATM   20  C   UNL     1       7.093  32.799  62.962  1.00  0.00     0.017 A 
BRANCH  17  21
HETATM   21  O   UNL     1       5.314  34.205  66.446  1.00  0.00    -0.351 OA
BRANCH  21  22
HETATM   22  C   UNL     1       6.252  34.249  67.527  1.00  0.00     0.175 C 
BRANCH  22  23
HETATM   23  C   UNL     1       5.585  34.980  68.689  1.00  0.00     0.022 C 
HETATM   24  C   UNL     1       6.025  34.428  70.033  1.00  0.00     0.007 C 
ENDBRANCH  22  23
ENDBRANCH  21  22
ENDBRANCH  17  21
ENDBRANCH  12  15
ENDBRANCH   9  11
ENDBRANCH   7   9
ENDBRANCH   1   7
BRANCH   4  25
HETATM   25  N   UNL     1       6.689  27.401  57.253  1.00  0.00    -0.378 N 
HETATM   26  C   UNL     1       5.745  26.574  56.479  1.00  0.00     0.150 C 
HETATM   27  C   UNL     1       6.045  25.078  56.714  1.00  0.00     0.255 C 
HETATM   28  N   UNL     1       7.506  24.754  56.409  1.00  0.00    -0.064 N 
HETATM   29  H   UNL     1       7.656  24.937  55.407  1.00  0.00     0.280 HD
HETATM   30  C   UNL     1       8.448  25.668  57.191  1.00  0.00     0.255 C 
HETATM   31  C   UNL     1       8.109  27.152  56.951  1.00  0.00     0.150 C 
BRANCH  28  32
HETATM   32  C   UNL     1       7.802  23.289  56.631  1.00  0.00     0.276 C 
BRANCH  32  33
HETATM   33  C   UNL     1       7.892  22.487  55.368  1.00  0.00     0.006 A 
HETATM   34  C   UNL     1       8.085  21.104  55.439  1.00  0.00     0.124 A 
HETATM   35  F   UNL     1       8.143  20.520  56.645  1.00  0.00    -0.206 F 
HETATM   36  C   UNL     1       8.179  20.321  54.295  1.00  0.00     0.043 A 
HETATM   37  C   UNL     1       8.079  20.928  53.044  1.00  0.00     0.003 A 
HETATM   38  C   UNL     1       7.887  22.307  52.951  1.00  0.00     0.001 A 
HETATM   39  C   UNL     1       7.797  23.087  54.106  1.00  0.00     0.012 A 
ENDBRANCH  32  33
ENDBRANCH  28  32
ENDBRANCH   4  25
TORSDOF 10
ENDMDL
MODEL 3
REMARK VINA RESULT:      -9.4      1.526      3.105
REMARK  10 active torsions:
REMARK  status: ('A' for Active; 'I' for Inactive)
REMARK    1  A    between atoms: C_2  and  C_3 
REMARK    2  A    between atoms: C_3  and  O_4 
REMARK    3  A    between atoms: O_4  and  C_5 
REMARK    4  A    between atoms: C_7  and  C_8 
REMARK       I    between atoms: C_8  and  N_9 
REMARK    5  A    between atoms: N_9  and  C_10 
REMARK    6  A    between atoms: C_10  and  N_11 
REMARK    7  A    between atoms: N_11  and  C_12 
REMARK    8  A    between atoms: C_15  and  N_16 
REMARK    9  A    between atoms: N_19  and  C_21 
REMARK   10  A    between atoms: C_21  and  C_22 
ROOT
HETATM    1  C   UNL     1       5.950  31.053  58.079  1.00  0.00     0.034 A 
HETATM    2  C   UNL     1       5.039  30.156  57.523  1.00  0.00     0.032 A 
HETATM    3  C   UNL     1       5.430  28.849  57.206  1.00  0.00     0.031 A 
HETATM    4  C   UNL     1       6.746  28.401  57.400  1.00  0.00     0.030 A 
HETATM    5  C   UNL     1       7.657  29.335  57.916  1.00  0.00     0.031 A 
HETATM    6  C   UNL     1       7.269  30.644  58.246  1.00  0.00     0.032 A 
ENDROOT
BRANCH   1   7
HETATM    7  N   UNL     1       5.486  32.348  58.378  1.00  0.00    -0.333 N 
HETATM    8  H   UNL     1       5.857  33.080  57.780  1.00  0.00     0.168 HD
BRANCH   7   9
HETATM    9  C   UNL     1       4.867  32.816  59.483  1.00  0.00     0.179 C 
HETATM   10  S   UNL     1       3.206  32.643  59.613  1.00  0.00    -0.040 SA
BRANCH   9  11
HETATM   11  N   UNL     1       5.533  33.349  60.546  1.00  0.00    -0.299 N 
HETATM   12  C   UNL     1       6.334  32.700  61.485  1.00  0.00     0.257 C 
HETATM   13  O   UNL     1       7.005  31.691  61.320  1.00  0.00    -0.267 OA
HETATM   14  H   UNL     1       5.068  34.182  60.883  1.00  0.00     0.171 HD
BRANCH  12  15
HETATM   15  C   UNL     1       6.423  33.392  62.797  1.00  0.00     0.035 A 
HETATM   16  C   UNL     1       5.733  34.589  63.033  1.00  0.00     0.053 A 
HETATM   17  C   UNL     1       5.832  35.198  64.284  1.00  0.00     0.069 A 
HETATM   18  C   UNL     1       6.638  34.640  65.277  1.00  0.00     0.037 A 
HETATM   19  C   UNL     1       7.303  33.436  65.050  1.00  0.00     0.004 A 
HETATM   20  C   UNL     1       7.187  32.803  63.812  1.00  0.00     0.017 A 
BRANCH  17  21
HETATM   21  O   UNL     1       5.208  36.372  64.603  1.00  0.00    -0.351 OA
BRANCH  21  22
HETATM   22  C   UNL     1       4.459  36.945  63.525  1.00  0.00     0.175 C 
BRANCH  22  23
HETATM   23  C   UNL     1       5.215  38.179  63.040  1.00  0.00     0.022 C 
HETATM   24  C   UNL     1       5.987  38.847  64.163  1.00  0.00     0.007 C 
ENDBRANCH  22  23
ENDBRANCH  21  22
ENDBRANCH  17  21
ENDBRANCH  12  15
ENDBRANCH   9  11
ENDBRANCH   7   9
ENDBRANCH   1   7
BRANCH   4  25
HETATM   25  N   UNL     1       7.076  27.066  57.147  1.00  0.00    -0.378 N 
HETATM   26  C   UNL     1       6.184  26.332  56.229  1.00  0.00     0.150 C 
HETATM   27  C   UNL     1       6.318  24.813  56.473  1.00  0.00     0.255 C 
HETATM   28  N   UNL     1       7.773  24.363  56.374  1.00  0.00    -0.064 N 
HETATM   29  H   UNL     1       8.081  24.541  55.408  1.00  0.00     0.280 HD
HETATM   30  C   UNL     1       8.668  25.184  57.301  1.00  0.00     0.255 C 
HETATM   31  C   UNL     1       8.497  26.695  57.046  1.00  0.00     0.150 C 
BRANCH  28  32
HETATM   32  C   UNL     1       7.905  22.877  56.606  1.00  0.00     0.276 C 
BRANCH  32  33
HETATM   33  C   UNL     1       8.070  22.076  55.350  1.00  0.00     0.006 A 
HETATM   34  C   UNL     1       8.606  20.786  55.417  1.00  0.00     0.124 A 
HETATM   35  F   UNL     1       8.922  20.278  56.617  1.00  0.00    -0.206 F 
HETATM   36  C   UNL     1       8.780  20.009  54.278  1.00  0.00     0.043 A 
HETATM   37  C   UNL     1       8.413  20.526  53.037  1.00  0.00     0.003 A 
HETATM   38  C   UNL     1       7.878  21.812  52.948  1.00  0.00     0.001 A 
HETATM   39  C   UNL     1       7.709  22.588  54.097  1.00  0.00     0.012 A 
ENDBRANCH  32  33
ENDBRANCH  28  32
ENDBRANCH   4  25
TORSDOF 10
ENDMDL
MODEL 4
REMARK VINA RESULT:      -9.3      1.973      3.339
REMARK  10 active torsions:
REMARK  status: ('A' for Active; 'I' for Inactive)
REMARK    1  A    between atoms: C_2  and  C_3 
REMARK    2  A    between atoms: C_3  and  O_4 
REMARK    3  A    between atoms: O_4  and  C_5 
REMARK    4  A    between atoms: C_7  and  C_8 
REMARK       I    between atoms: C_8  and  N_9 
REMARK    5  A    between atoms: N_9  and  C_10 
REMARK    6  A    between atoms: C_10  and  N_11 
REMARK    7  A    between atoms: N_11  and  C_12 
REMARK    8  A    between atoms: C_15  and  N_16 
REMARK    9  A    between atoms: N_19  and  C_21 
REMARK   10  A    between atoms: C_21  and  C_22 
ROOT
HETATM    1  C   UNL     1       4.364  30.472  57.752  1.00  0.00     0.034 A 
HETATM    2  C   UNL     1       3.707  29.870  56.679  1.00  0.00     0.032 A 
HETATM    3  C   UNL     1       4.330  28.854  55.944  1.00  0.00     0.031 A 
HETATM    4  C   UNL     1       5.636  28.426  56.229  1.00  0.00     0.030 A 
HETATM    5  C   UNL     1       6.294  29.079  57.281  1.00  0.00     0.031 A 
HETATM    6  C   UNL     1       5.672  30.091  58.030  1.00  0.00     0.032 A 
ENDROOT
BRANCH   1   7
HETATM    7  N   UNL     1       3.675  31.482  58.450  1.00  0.00    -0.333 N 
HETATM    8  H   UNL     1       2.686  31.304  58.587  1.00  0.00     0.168 HD
BRANCH   7   9
HETATM    9  C   UNL     1       4.036  32.757  58.715  1.00  0.00     0.179 C 
HETATM   10  S   UNL     1       3.526  33.972  57.681  1.00  0.00    -0.040 SA
BRANCH   9  11
HETATM   11  N   UNL     1       4.725  33.123  59.832  1.00  0.00    -0.299 N 
HETATM   12  C   UNL     1       6.059  32.874  60.152  1.00  0.00     0.257 C 
HETATM   13  O   UNL     1       6.997  32.741  59.379  1.00  0.00    -0.267 OA
HETATM   14  H   UNL     1       4.104  33.214  60.626  1.00  0.00     0.171 HD
BRANCH  12  15
HETATM   15  C   UNL     1       6.347  32.862  61.609  1.00  0.00     0.035 A 
HETATM   16  C   UNL     1       5.314  32.933  62.553  1.00  0.00     0.053 A 
HETATM   17  C   UNL     1       5.627  32.903  63.912  1.00  0.00     0.069 A 
HETATM   18  C   UNL     1       6.958  32.840  64.326  1.00  0.00     0.037 A 
HETATM   19  C   UNL     1       7.984  32.743  63.387  1.00  0.00     0.004 A 
HETATM   20  C   UNL     1       7.679  32.743  62.025  1.00  0.00     0.017 A 
BRANCH  17  21
HETATM   21  O   UNL     1       4.690  32.980  64.905  1.00  0.00    -0.351 OA
BRANCH  21  22
HETATM   22  C   UNL     1       4.603  34.270  65.522  1.00  0.00     0.175 C 
BRANCH  22  23
HETATM   23  C   UNL     1       4.489  34.056  67.028  1.00  0.00     0.022 C 
HETATM   24  C   UNL     1       5.511  34.875  67.795  1.00  0.00     0.007 C 
ENDBRANCH  22  23
ENDBRANCH  21  22
ENDBRANCH  17  21
ENDBRANCH  12  15
ENDBRANCH   9  11
ENDBRANCH   7   9
ENDBRANCH   1   7
BRANCH   4  25
HETATM   25  N   UNL     1       6.192  27.354  55.523  1.00  0.00    -0.378 N 
HETATM   26  C   UNL     1       7.485  27.604  54.859  1.00  0.00     0.150 C 
HETATM   27  C   UNL     1       7.690  26.590  53.713  1.00  0.00     0.255 C 
HETATM   28  N   UNL     1       7.547  25.155  54.213  1.00  0.00    -0.064 N 
HETATM   29  H   UNL     1       8.300  24.994  54.896  1.00  0.00     0.280 HD
HETATM   30  C   UNL     1       6.218  24.955  54.939  1.00  0.00     0.255 C 
HETATM   31  C   UNL     1       6.035  25.994  56.063  1.00  0.00     0.150 C 
BRANCH  28  32
HETATM   32  C   UNL     1       7.753  24.160  53.096  1.00  0.00     0.276 C 
BRANCH  32  33
HETATM   33  C   UNL     1       8.112  22.783  53.564  1.00  0.00     0.006 A 
HETATM   34  C   UNL     1       8.866  22.623  54.731  1.00  0.00     0.124 A 
HETATM   35  F   UNL     1       9.215  23.713  55.430  1.00  0.00    -0.206 F 
HETATM   36  C   UNL     1       9.226  21.366  55.201  1.00  0.00     0.043 A 
HETATM   37  C   UNL     1       8.827  20.234  54.493  1.00  0.00     0.003 A 
HETATM   38  C   UNL     1       8.075  20.370  53.325  1.00  0.00     0.001 A 
HETATM   39  C   UNL     1       7.720  21.638  52.857  1.00  0.00     0.012 A 
ENDBRANCH  32  33
ENDBRANCH  28  32
ENDBRANCH   4  25
TORSDOF 10
ENDMDL
MODEL 5
REMARK VINA RESULT:      -9.2      1.948      2.830
REMARK  10 active torsions:
REMARK  status: ('A' for Active; 'I' for Inactive)
REMARK    1  A    between atoms: C_2  and  C_3 
REMARK    2  A    between atoms: C_3  and  O_4 
REMARK    3  A    between atoms: O_4  and  C_5 
REMARK    4  A    between atoms: C_7  and  C_8 
REMARK       I    between atoms: C_8  and  N_9 
REMARK    5  A    between atoms: N_9  and  C_10 
REMARK    6  A    between atoms: C_10  and  N_11 
REMARK    7  A    between atoms: N_11  and  C_12 
REMARK    8  A    between atoms: C_15  and  N_16 
REMARK    9  A    between atoms: N_19  and  C_21 
REMARK   10  A    between atoms: C_21  and  C_22 
ROOT
HETATM    1  C   UNL     1       4.304  31.262  57.485  1.00  0.00     0.034 A 
HETATM    2  C   UNL     1       3.682  30.245  56.762  1.00  0.00     0.032 A 
HETATM    3  C   UNL     1       4.333  29.022  56.551  1.00  0.00     0.031 A 
HETATM    4  C   UNL     1       5.632  28.783  57.023  1.00  0.00     0.030 A 
HETATM    5  C   UNL     1       6.256  29.837  57.706  1.00  0.00     0.031 A 
HETATM    6  C   UNL     1       5.606  31.062  57.931  1.00  0.00     0.032 A 
ENDROOT
BRANCH   1   7
HETATM    7  N   UNL     1       3.589  32.462  57.663  1.00  0.00    -0.333 N 
HETATM    8  H   UNL     1       2.748  32.542  57.101  1.00  0.00     0.168 HD
BRANCH   7   9
HETATM    9  C   UNL     1       3.973  33.627  58.228  1.00  0.00     0.179 C 
HETATM   10  S   UNL     1       4.498  34.871  57.237  1.00  0.00    -0.040 SA
BRANCH   9  11
HETATM   11  N   UNL     1       3.877  33.879  59.564  1.00  0.00    -0.299 N 
HETATM   12  C   UNL     1       2.799  34.407  60.274  1.00  0.00     0.257 C 
HETATM   13  O   UNL     1       1.610  34.301  60.009  1.00  0.00    -0.267 OA
HETATM   14  H   UNL     1       4.787  34.072  59.962  1.00  0.00     0.171 HD
BRANCH  12  15
HETATM   15  C   UNL     1       3.175  35.096  61.535  1.00  0.00     0.035 A 
HETATM   16  C   UNL     1       3.515  34.370  62.684  1.00  0.00     0.053 A 
HETATM   17  C   UNL     1       3.878  35.056  63.843  1.00  0.00     0.069 A 
HETATM   18  C   UNL     1       3.867  36.452  63.867  1.00  0.00     0.037 A 
HETATM   19  C   UNL     1       3.554  37.173  62.716  1.00  0.00     0.004 A 
HETATM   20  C   UNL     1       3.219  36.496  61.543  1.00  0.00     0.017 A 
BRANCH  17  21
HETATM   21  O   UNL     1       4.211  34.436  65.015  1.00  0.00    -0.351 OA
BRANCH  21  22
HETATM   22  C   UNL     1       5.145  33.362  64.859  1.00  0.00     0.175 C 
BRANCH  22  23
HETATM   23  C   UNL     1       6.513  33.871  65.305  1.00  0.00     0.022 C 
HETATM   24  C   UNL     1       7.632  33.322  64.438  1.00  0.00     0.007 C 
ENDBRANCH  22  23
ENDBRANCH  21  22
ENDBRANCH  17  21
ENDBRANCH  12  15
ENDBRANCH   9  11
ENDBRANCH   7   9
ENDBRANCH   1   7
BRANCH   4  25
HETATM   25  N   UNL     1       6.214  27.521  56.862  1.00  0.00    -0.378 N 
HETATM   26  C   UNL     1       5.464  26.551  56.043  1.00  0.00     0.150 C 
HETATM   27  C   UNL     1       5.902  25.114  56.400  1.00  0.00     0.255 C 
HETATM   28  N   UNL     1       7.415  24.951  56.276  1.00  0.00    -0.064 N 
HETATM   29  H   UNL     1       7.657  25.103  55.287  1.00  0.00     0.280 HD
HETATM   30  C   UNL     1       8.152  26.008  57.097  1.00  0.00     0.255 C 
HETATM   31  C   UNL     1       7.678  27.428  56.732  1.00  0.00     0.150 C 
BRANCH  28  32
HETATM   32  C   UNL     1       7.846  23.545  56.619  1.00  0.00     0.276 C 
BRANCH  32  33
HETATM   33  C   UNL     1       7.931  22.628  55.436  1.00  0.00     0.006 A 
HETATM   34  C   UNL     1       8.083  21.253  55.636  1.00  0.00     0.124 A 
HETATM   35  F   UNL     1       8.107  20.780  56.891  1.00  0.00    -0.206 F 
HETATM   36  C   UNL     1       8.170  20.366  54.570  1.00  0.00     0.043 A 
HETATM   37  C   UNL     1       8.105  20.858  53.267  1.00  0.00     0.003 A 
HETATM   38  C   UNL     1       7.954  22.227  53.045  1.00  0.00     0.001 A 
HETATM   39  C   UNL     1       7.871  23.113  54.122  1.00  0.00     0.012 A 
ENDBRANCH  32  33
ENDBRANCH  28  32
ENDBRANCH   4  25
TORSDOF 10
ENDMDL
MODEL 6
REMARK VINA RESULT:      -9.1      4.295     11.574
REMARK  10 active torsions:
REMARK  status: ('A' for Active; 'I' for Inactive)
REMARK    1  A    between atoms: C_2  and  C_3 
REMARK    2  A    between atoms: C_3  and  O_4 
REMARK    3  A    between atoms: O_4  and  C_5 
REMARK    4  A    between atoms: C_7  and  C_8 
REMARK       I    between atoms: C_8  and  N_9 
REMARK    5  A    between atoms: N_9  and  C_10 
REMARK    6  A    between atoms: C_10  and  N_11 
REMARK    7  A    between atoms: N_11  and  C_12 
REMARK    8  A    between atoms: C_15  and  N_16 
REMARK    9  A    between atoms: N_19  and  C_21 
REMARK   10  A    between atoms: C_21  and  C_22 
ROOT
HETATM    1  C   UNL     1       6.445  30.106  56.346  1.00  0.00     0.034 A 
HETATM    2  C   UNL     1       7.437  29.766  57.265  1.00  0.00     0.032 A 
HETATM    3  C   UNL     1       7.493  30.394  58.516  1.00  0.00     0.031 A 
HETATM    4  C   UNL     1       6.587  31.401  58.881  1.00  0.00     0.030 A 
HETATM    5  C   UNL     1       5.627  31.759  57.923  1.00  0.00     0.031 A 
HETATM    6  C   UNL     1       5.557  31.127  56.671  1.00  0.00     0.032 A 
ENDROOT
BRANCH   1   7
HETATM    7  N   UNL     1       6.445  29.430  55.111  1.00  0.00    -0.333 N 
HETATM    8  H   UNL     1       7.096  29.799  54.426  1.00  0.00     0.168 HD
BRANCH   7   9
HETATM    9  C   UNL     1       5.542  28.571  54.590  1.00  0.00     0.179 C 
HETATM   10  S   UNL     1       4.066  29.168  54.072  1.00  0.00    -0.040 SA
BRANCH   9  11
HETATM   11  N   UNL     1       5.799  27.249  54.381  1.00  0.00    -0.299 N 
HETATM   12  C   UNL     1       6.585  26.385  55.142  1.00  0.00     0.257 C 
HETATM   13  O   UNL     1       6.796  26.437  56.345  1.00  0.00    -0.267 OA
HETATM   14  H   UNL     1       5.743  27.022  53.396  1.00  0.00     0.171 HD
BRANCH  12  15
HETATM   15  C   UNL     1       7.141  25.235  54.383  1.00  0.00     0.035 A 
HETATM   16  C   UNL     1       7.875  24.229  55.026  1.00  0.00     0.053 A 
HETATM   17  C   UNL     1       8.364  23.158  54.279  1.00  0.00     0.069 A 
HETATM   18  C   UNL     1       8.157  23.108  52.900  1.00  0.00     0.037 A 
HETATM   19  C   UNL     1       7.404  24.096  52.265  1.00  0.00     0.004 A 
HETATM   20  C   UNL     1       6.884  25.156  53.008  1.00  0.00     0.017 A 
BRANCH  17  21
HETATM   21  O   UNL     1       9.102  22.139  54.814  1.00  0.00    -0.351 OA
BRANCH  21  22
HETATM   22  C   UNL     1       8.516  20.843  54.639  1.00  0.00     0.175 C 
BRANCH  22  23
HETATM   23  C   UNL     1       7.717  20.523  55.900  1.00  0.00     0.022 C 
HETATM   24  C   UNL     1       8.404  21.038  57.151  1.00  0.00     0.007 C 
ENDBRANCH  22  23
ENDBRANCH  21  22
ENDBRANCH  17  21
ENDBRANCH  12  15
ENDBRANCH   9  11
ENDBRANCH   7   9
ENDBRANCH   1   7
BRANCH   4  25
HETATM   25  N   UNL     1       6.626  31.945  60.169  1.00  0.00    -0.378 N 
HETATM   26  C   UNL     1       7.936  32.439  60.633  1.00  0.00     0.150 C 
HETATM   27  C   UNL     1       7.964  32.479  62.176  1.00  0.00     0.255 C 
HETATM   28  N   UNL     1       6.795  33.289  62.729  1.00  0.00    -0.064 N 
HETATM   29  H   UNL     1       6.913  34.258  62.401  1.00  0.00     0.280 HD
HETATM   30  C   UNL     1       5.463  32.777  62.182  1.00  0.00     0.255 C 
HETATM   31  C   UNL     1       5.475  32.731  60.642  1.00  0.00     0.150 C 
BRANCH  28  32
HETATM   32  C   UNL     1       6.822  33.335  64.239  1.00  0.00     0.276 C 
BRANCH  32  33
HETATM   33  C   UNL     1       5.748  34.189  64.842  1.00  0.00     0.006 A 
HETATM   34  C   UNL     1       5.554  35.491  64.372  1.00  0.00     0.124 A 
HETATM   35  F   UNL     1       6.310  35.932  63.356  1.00  0.00    -0.206 F 
HETATM   36  C   UNL     1       4.573  36.320  64.904  1.00  0.00     0.043 A 
HETATM   37  C   UNL     1       3.763  35.843  65.933  1.00  0.00     0.003 A 
HETATM   38  C   UNL     1       3.941  34.547  66.418  1.00  0.00     0.001 A 
HETATM   39  C   UNL     1       4.931  33.721  65.880  1.00  0.00     0.012 A 
ENDBRANCH  32  33
ENDBRANCH  28  32
ENDBRANCH   4  25
TORSDOF 10
ENDMDL
MODEL 7
REMARK VINA RESULT:      -9.1      2.671      3.933
REMARK  10 active torsions:
REMARK  status: ('A' for Active; 'I' for Inactive)
REMARK    1  A    between atoms: C_2  and  C_3 
REMARK    2  A    between atoms: C_3  and  O_4 
REMARK    3  A    between atoms: O_4  and  C_5 
REMARK    4  A    between atoms: C_7  and  C_8 
REMARK       I    between atoms: C_8  and  N_9 
REMARK    5  A    between atoms: N_9  and  C_10 
REMARK    6  A    between atoms: C_10  and  N_11 
REMARK    7  A    between atoms: N_11  and  C_12 
REMARK    8  A    between atoms: C_15  and  N_16 
REMARK    9  A    between atoms: N_19  and  C_21 
REMARK   10  A    between atoms: C_21  and  C_22 
ROOT
HETATM    1  C   UNL     1       7.586  31.044  58.743  1.00  0.00     0.034 A 
HETATM    2  C   UNL     1       8.517  30.035  58.503  1.00  0.00     0.032 A 
HETATM    3  C   UNL     1       8.198  28.957  57.666  1.00  0.00     0.031 A 
HETATM    4  C   UNL     1       6.934  28.832  57.069  1.00  0.00     0.030 A 
HETATM    5  C   UNL     1       5.998  29.835  57.363  1.00  0.00     0.031 A 
HETATM    6  C   UNL     1       6.315  30.923  58.192  1.00  0.00     0.032 A 
ENDROOT
BRANCH   1   7
HETATM    7  N   UNL     1       7.978  32.100  59.589  1.00  0.00    -0.333 N 
HETATM    8  H   UNL     1       8.377  32.900  59.111  1.00  0.00     0.168 HD
BRANCH   7   9
HETATM    9  C   UNL     1       8.174  32.116  60.925  1.00  0.00     0.179 C 
HETATM   10  S   UNL     1       9.663  31.642  61.528  1.00  0.00    -0.040 SA
BRANCH   9  11
HETATM   11  N   UNL     1       7.250  32.580  61.813  1.00  0.00    -0.299 N 
HETATM   12  C   UNL     1       6.140  33.387  61.570  1.00  0.00     0.257 C 
HETATM   13  O   UNL     1       5.474  33.449  60.546  1.00  0.00    -0.267 OA
HETATM   14  H   UNL     1       7.652  32.670  62.738  1.00  0.00     0.171 HD
BRANCH  12  15
HETATM   15  C   UNL     1       5.694  34.184  62.742  1.00  0.00     0.035 A 
HETATM   16  C   UNL     1       5.241  33.561  63.913  1.00  0.00     0.053 A 
HETATM   17  C   UNL     1       4.847  34.346  64.995  1.00  0.00     0.069 A 
HETATM   18  C   UNL     1       4.869  35.738  64.901  1.00  0.00     0.037 A 
HETATM   19  C   UNL     1       5.345  36.357  63.745  1.00  0.00     0.004 A 
HETATM   20  C   UNL     1       5.770  35.581  62.667  1.00  0.00     0.017 A 
BRANCH  17  21
HETATM   21  O   UNL     1       4.378  33.830  66.171  1.00  0.00    -0.351 OA
BRANCH  21  22
HETATM   22  C   UNL     1       4.385  34.762  67.259  1.00  0.00     0.175 C 
BRANCH  22  23
HETATM   23  C   UNL     1       5.228  34.158  68.380  1.00  0.00     0.022 C 
HETATM   24  C   UNL     1       6.709  34.421  68.179  1.00  0.00     0.007 C 
ENDBRANCH  22  23
ENDBRANCH  21  22
ENDBRANCH  17  21
ENDBRANCH  12  15
ENDBRANCH   9  11
ENDBRANCH   7   9
ENDBRANCH   1   7
BRANCH   4  25
HETATM   25  N   UNL     1       6.682  27.785  56.176  1.00  0.00    -0.378 N 
HETATM   26  C   UNL     1       5.370  27.122  56.295  1.00  0.00     0.150 C 
HETATM   27  C   UNL     1       5.441  25.706  55.684  1.00  0.00     0.255 C 
HETATM   28  N   UNL     1       5.957  25.749  54.248  1.00  0.00    -0.064 N 
HETATM   29  H   UNL     1       5.272  26.281  53.694  1.00  0.00     0.280 HD
HETATM   30  C   UNL     1       7.291  26.489  54.164  1.00  0.00     0.255 C 
HETATM   31  C   UNL     1       7.192  27.890  54.799  1.00  0.00     0.150 C 
BRANCH  28  32
HETATM   32  C   UNL     1       6.023  24.366  53.646  1.00  0.00     0.276 C 
BRANCH  32  33
HETATM   33  C   UNL     1       7.115  23.507  54.209  1.00  0.00     0.006 A 
HETATM   34  C   UNL     1       8.064  22.944  53.350  1.00  0.00     0.124 A 
HETATM   35  F   UNL     1       7.997  23.221  52.040  1.00  0.00    -0.206 F 
HETATM   36  C   UNL     1       9.092  22.139  53.827  1.00  0.00     0.043 A 
HETATM   37  C   UNL     1       9.180  21.885  55.194  1.00  0.00     0.003 A 
HETATM   38  C   UNL     1       8.243  22.436  56.068  1.00  0.00     0.001 A 
HETATM   39  C   UNL     1       7.211  23.242  55.581  1.00  0.00     0.012 A 
ENDBRANCH  32  33
ENDBRANCH  28  32
ENDBRANCH   4  25
TORSDOF 10
ENDMDL
MODEL 8
REMARK VINA RESULT:      -9.0      5.064      6.316
REMARK  10 active torsions:
REMARK  status: ('A' for Active; 'I' for Inactive)
REMARK    1  A    between atoms: C_2  and  C_3 
REMARK    2  A    between atoms: C_3  and  O_4 
REMARK    3  A    between atoms: O_4  and  C_5 
REMARK    4  A    between atoms: C_7  and  C_8 
REMARK       I    between atoms: C_8  and  N_9 
REMARK    5  A    between atoms: N_9  and  C_10 
REMARK    6  A    between atoms: C_10  and  N_11 
REMARK    7  A    between atoms: N_11  and  C_12 
REMARK    8  A    between atoms: C_15  and  N_16 
REMARK    9  A    between atoms: N_19  and  C_21 
REMARK   10  A    between atoms: C_21  and  C_22 
ROOT
HETATM    1  C   UNL     1       7.020  29.277  57.578  1.00  0.00     0.034 A 
HETATM    2  C   UNL     1       7.746  28.787  56.493  1.00  0.00     0.032 A 
HETATM    3  C   UNL     1       7.160  28.708  55.223  1.00  0.00     0.031 A 
HETATM    4  C   UNL     1       5.827  29.082  54.997  1.00  0.00     0.030 A 
HETATM    5  C   UNL     1       5.102  29.526  56.113  1.00  0.00     0.031 A 
HETATM    6  C   UNL     1       5.685  29.618  57.387  1.00  0.00     0.032 A 
ENDROOT
BRANCH   1   7
HETATM    7  N   UNL     1       7.674  29.334  58.824  1.00  0.00    -0.333 N 
HETATM    8  H   UNL     1       7.639  28.473  59.360  1.00  0.00     0.168 HD
BRANCH   7   9
HETATM    9  C   UNL     1       8.085  30.401  59.541  1.00  0.00     0.179 C 
HETATM   10  S   UNL     1       9.400  31.283  58.995  1.00  0.00    -0.040 SA
BRANCH   9  11
HETATM   11  N   UNL     1       7.434  30.856  60.649  1.00  0.00    -0.299 N 
HETATM   12  C   UNL     1       6.738  32.052  60.819  1.00  0.00     0.257 C 
HETATM   13  O   UNL     1       6.143  32.694  59.965  1.00  0.00    -0.267 OA
HETATM   14  H   UNL     1       7.847  30.477  61.492  1.00  0.00     0.171 HD
BRANCH  12  15
HETATM   15  C   UNL     1       6.661  32.520  62.227  1.00  0.00     0.035 A 
HETATM   16  C   UNL     1       5.425  32.740  62.851  1.00  0.00     0.053 A 
HETATM   17  C   UNL     1       5.398  33.165  64.179  1.00  0.00     0.069 A 
HETATM   18  C   UNL     1       6.589  33.402  64.867  1.00  0.00     0.037 A 
HETATM   19  C   UNL     1       7.817  33.157  64.254  1.00  0.00     0.004 A 
HETATM   20  C   UNL     1       7.855  32.704  62.935  1.00  0.00     0.017 A 
BRANCH  17  21
HETATM   21  O   UNL     1       4.244  33.419  64.866  1.00  0.00    -0.351 OA
BRANCH  21  22
HETATM   22  C   UNL     1       3.373  34.353  64.216  1.00  0.00     0.175 C 
BRANCH  22  23
HETATM   23  C   UNL     1       3.851  35.758  64.574  1.00  0.00     0.022 C 
HETATM   24  C   UNL     1       3.852  36.679  63.368  1.00  0.00     0.007 C 
ENDBRANCH  22  23
ENDBRANCH  21  22
ENDBRANCH  17  21
ENDBRANCH  12  15
ENDBRANCH   9  11
ENDBRANCH   7   9
ENDBRANCH   1   7
BRANCH   4  25
HETATM   25  N   UNL     1       5.305  29.064  53.699  1.00  0.00    -0.378 N 
HETATM   26  C   UNL     1       5.787  27.989  52.811  1.00  0.00     0.150 C 
HETATM   27  C   UNL     1       5.589  28.400  51.337  1.00  0.00     0.255 C 
HETATM   28  N   UNL     1       4.139  28.791  51.062  1.00  0.00    -0.064 N 
HETATM   29  H   UNL     1       3.563  27.953  51.221  1.00  0.00     0.280 HD
HETATM   30  C   UNL     1       3.665  29.868  52.037  1.00  0.00     0.255 C 
HETATM   31  C   UNL     1       3.895  29.436  53.498  1.00  0.00     0.150 C 
BRANCH  28  32
HETATM   32  C   UNL     1       3.942  29.188  49.618  1.00  0.00     0.276 C 
BRANCH  32  33
HETATM   33  C   UNL     1       3.133  28.208  48.822  1.00  0.00     0.006 A 
HETATM   34  C   UNL     1       3.783  27.230  48.063  1.00  0.00     0.124 A 
HETATM   35  F   UNL     1       5.122  27.166  48.099  1.00  0.00    -0.206 F 
HETATM   36  C   UNL     1       3.075  26.303  47.307  1.00  0.00     0.043 A 
HETATM   37  C   UNL     1       1.682  26.349  47.303  1.00  0.00     0.003 A 
HETATM   38  C   UNL     1       1.014  27.317  48.053  1.00  0.00     0.001 A 
HETATM   39  C   UNL     1       1.733  28.247  48.808  1.00  0.00     0.012 A 
ENDBRANCH  32  33
ENDBRANCH  28  32
ENDBRANCH   4  25
TORSDOF 10
ENDMDL
MODEL 9
REMARK VINA RESULT:      -8.9      1.732      2.411
REMARK  10 active torsions:
REMARK  status: ('A' for Active; 'I' for Inactive)
REMARK    1  A    between atoms: C_2  and  C_3 
REMARK    2  A    between atoms: C_3  and  O_4 
REMARK    3  A    between atoms: O_4  and  C_5 
REMARK    4  A    between atoms: C_7  and  C_8 
REMARK       I    between atoms: C_8  and  N_9 
REMARK    5  A    between atoms: N_9  and  C_10 
REMARK    6  A    between atoms: C_10  and  N_11 
REMARK    7  A    between atoms: N_11  and  C_12 
REMARK    8  A    between atoms: C_15  and  N_16 
REMARK    9  A    between atoms: N_19  and  C_21 
REMARK   10  A    between atoms: C_21  and  C_22 
ROOT
HETATM    1  C   UNL     1       4.399  31.086  56.719  1.00  0.00     0.034 A 
HETATM    2  C   UNL     1       5.774  30.856  56.741  1.00  0.00     0.032 A 
HETATM    3  C   UNL     1       6.295  29.621  56.335  1.00  0.00     0.031 A 
HETATM    4  C   UNL     1       5.466  28.565  55.925  1.00  0.00     0.030 A 
HETATM    5  C   UNL     1       4.084  28.803  55.957  1.00  0.00     0.031 A 
HETATM    6  C   UNL     1       3.555  30.042  56.353  1.00  0.00     0.032 A 
ENDROOT
BRANCH   1   7
HETATM    7  N   UNL     1       3.946  32.352  57.135  1.00  0.00    -0.333 N 
HETATM    8  H   UNL     1       3.682  32.977  56.381  1.00  0.00     0.168 HD
BRANCH   7   9
HETATM    9  C   UNL     1       4.070  32.971  58.330  1.00  0.00     0.179 C 
HETATM   10  S   UNL     1       3.094  34.291  58.660  1.00  0.00    -0.040 SA
BRANCH   9  11
HETATM   11  N   UNL     1       4.891  32.525  59.323  1.00  0.00    -0.299 N 
HETATM   12  C   UNL     1       5.457  33.247  60.372  1.00  0.00     0.257 C 
HETATM   13  O   UNL     1       4.999  34.237  60.927  1.00  0.00    -0.267 OA
HETATM   14  H   UNL     1       5.427  31.724  59.015  1.00  0.00     0.171 HD
BRANCH  12  15
HETATM   15  C   UNL     1       6.715  32.666  60.907  1.00  0.00     0.035 A 
HETATM   16  C   UNL     1       7.637  32.034  60.062  1.00  0.00     0.053 A 
HETATM   17  C   UNL     1       8.814  31.515  60.603  1.00  0.00     0.069 A 
HETATM   18  C   UNL     1       9.051  31.592  61.976  1.00  0.00     0.037 A 
HETATM   19  C   UNL     1       8.145  32.244  62.812  1.00  0.00     0.004 A 
HETATM   20  C   UNL     1       6.980  32.793  62.276  1.00  0.00     0.017 A 
BRANCH  17  21
HETATM   21  O   UNL     1       9.765  30.870  59.863  1.00  0.00    -0.351 OA
BRANCH  21  22
HETATM   22  C   UNL     1       9.302  30.425  58.582  1.00  0.00     0.175 C 
BRANCH  22  23
HETATM   23  C   UNL     1      10.492  30.450  57.626  1.00  0.00     0.022 C 
HETATM   24  C   UNL     1      10.199  29.701  56.339  1.00  0.00     0.007 C 
ENDBRANCH  22  23
ENDBRANCH  21  22
ENDBRANCH  17  21
ENDBRANCH  12  15
ENDBRANCH   9  11
ENDBRANCH   7   9
ENDBRANCH   1   7
BRANCH   4  25
HETATM   25  N   UNL     1       6.030  27.376  55.451  1.00  0.00    -0.378 N 
HETATM   26  C   UNL     1       7.246  27.508  54.626  1.00  0.00     0.150 C 
HETATM   27  C   UNL     1       7.421  26.252  53.746  1.00  0.00     0.255 C 
HETATM   28  N   UNL     1       7.412  24.981  54.590  1.00  0.00    -0.064 N 
HETATM   29  H   UNL     1       8.228  25.025  55.217  1.00  0.00     0.280 HD
HETATM   30  C   UNL     1       6.162  24.910  55.466  1.00  0.00     0.255 C 
HETATM   31  C   UNL     1       6.005  26.186  56.317  1.00  0.00     0.150 C 
BRANCH  28  32
HETATM   32  C   UNL     1       7.589  23.750  53.732  1.00  0.00     0.276 C 
BRANCH  32  33
HETATM   33  C   UNL     1       7.970  22.521  54.501  1.00  0.00     0.006 A 
HETATM   34  C   UNL     1       8.036  21.288  53.846  1.00  0.00     0.124 A 
HETATM   35  F   UNL     1       7.796  21.242  52.527  1.00  0.00    -0.206 F 
HETATM   36  C   UNL     1       8.381  20.122  54.519  1.00  0.00     0.043 A 
HETATM   37  C   UNL     1       8.669  20.181  55.881  1.00  0.00     0.003 A 
HETATM   38  C   UNL     1       8.608  21.401  56.555  1.00  0.00     0.001 A 
HETATM   39  C   UNL     1       8.257  22.569  55.872  1.00  0.00     0.012 A 
ENDBRANCH  32  33
ENDBRANCH  28  32
ENDBRANCH   4  25
TORSDOF 10
ENDMDL
MODEL 10
REMARK VINA RESULT:      -8.8      2.205      3.636
REMARK  10 active torsions:
REMARK  status: ('A' for Active; 'I' for Inactive)
REMARK    1  A    between atoms: C_2  and  C_3 
REMARK    2  A    between atoms: C_3  and  O_4 
REMARK    3  A    between atoms: O_4  and  C_5 
REMARK    4  A    between atoms: C_7  and  C_8 
REMARK       I    between atoms: C_8  and  N_9 
REMARK    5  A    between atoms: N_9  and  C_10 
REMARK    6  A    between atoms: C_10  and  N_11 
REMARK    7  A    between atoms: N_11  and  C_12 
REMARK    8  A    between atoms: C_15  and  N_16 
REMARK    9  A    between atoms: N_19  and  C_21 
REMARK   10  A    between atoms: C_21  and  C_22 
ROOT
HETATM    1  C   UNL     1       7.646  30.906  58.729  1.00  0.00     0.034 A 
HETATM    2  C   UNL     1       6.437  30.517  58.153  1.00  0.00     0.032 A 
HETATM    3  C   UNL     1       6.359  29.350  57.382  1.00  0.00     0.031 A 
HETATM    4  C   UNL     1       7.485  28.551  57.131  1.00  0.00     0.030 A 
HETATM    5  C   UNL     1       8.700  28.988  57.681  1.00  0.00     0.031 A 
HETATM    6  C   UNL     1       8.783  30.150  58.464  1.00  0.00     0.032 A 
ENDROOT
BRANCH   1   7
HETATM    7  N   UNL     1       7.649  32.086  59.497  1.00  0.00    -0.333 N 
HETATM    8  H   UNL     1       8.023  32.900  59.020  1.00  0.00     0.168 HD
BRANCH   7   9
HETATM    9  C   UNL     1       7.510  32.257  60.829  1.00  0.00     0.179 C 
HETATM   10  S   UNL     1       8.772  31.814  61.837  1.00  0.00    -0.040 SA
BRANCH   9  11
HETATM   11  N   UNL     1       6.424  32.854  61.398  1.00  0.00    -0.299 N 
HETATM   12  C   UNL     1       5.431  33.618  60.787  1.00  0.00     0.257 C 
HETATM   13  O   UNL     1       5.022  33.524  59.638  1.00  0.00    -0.267 OA
HETATM   14  H   UNL     1       6.605  33.082  62.367  1.00  0.00     0.171 HD
BRANCH  12  15
HETATM   15  C   UNL     1       4.758  34.585  61.692  1.00  0.00     0.035 A 
HETATM   16  C   UNL     1       4.565  34.293  63.049  1.00  0.00     0.053 A 
HETATM   17  C   UNL     1       3.943  35.236  63.867  1.00  0.00     0.069 A 
HETATM   18  C   UNL     1       3.485  36.441  63.332  1.00  0.00     0.037 A 
HETATM   19  C   UNL     1       3.702  36.740  61.987  1.00  0.00     0.004 A 
HETATM   20  C   UNL     1       4.350  35.817  61.167  1.00  0.00     0.017 A 
BRANCH  17  21
HETATM   21  O   UNL     1       3.698  35.037  65.197  1.00  0.00    -0.351 OA
BRANCH  21  22
HETATM   22  C   UNL     1       4.389  33.912  65.754  1.00  0.00     0.175 C 
BRANCH  22  23
HETATM   23  C   UNL     1       5.666  34.431  66.410  1.00  0.00     0.022 C 
HETATM   24  C   UNL     1       6.907  33.784  65.823  1.00  0.00     0.007 C 
ENDBRANCH  22  23
ENDBRANCH  21  22
ENDBRANCH  17  21
ENDBRANCH  12  15
ENDBRANCH   9  11
ENDBRANCH   7   9
ENDBRANCH   1   7
BRANCH   4  25
HETATM   25  N   UNL     1       7.349  27.352  56.424  1.00  0.00    -0.378 N 
HETATM   26  C   UNL     1       7.842  27.349  55.034  1.00  0.00     0.150 C 
HETATM   27  C   UNL     1       7.152  26.222  54.236  1.00  0.00     0.255 C 
HETATM   28  N   UNL     1       7.322  24.872  54.928  1.00  0.00    -0.064 N 
HETATM   29  H   UNL     1       8.329  24.660  54.939  1.00  0.00     0.280 HD
HETATM   30  C   UNL     1       6.849  24.934  56.380  1.00  0.00     0.255 C 
HETATM   31  C   UNL     1       7.540  26.081  57.142  1.00  0.00     0.150 C 
BRANCH  28  32
HETATM   32  C   UNL     1       6.653  23.766  54.147  1.00  0.00     0.276 C 
BRANCH  32  33
HETATM   33  C   UNL     1       7.449  22.497  54.085  1.00  0.00     0.006 A 
HETATM   34  C   UNL     1       7.637  21.740  55.245  1.00  0.00     0.124 A 
HETATM   35  F   UNL     1       7.062  22.150  56.386  1.00  0.00    -0.206 F 
HETATM   36  C   UNL     1       8.371  20.560  55.236  1.00  0.00     0.043 A 
HETATM   37  C   UNL     1       8.934  20.117  54.040  1.00  0.00     0.003 A 
HETATM   38  C   UNL     1       8.759  20.857  52.870  1.00  0.00     0.001 A 
HETATM   39  C   UNL     1       8.023  22.045  52.889  1.00  0.00     0.012 A 
ENDBRANCH  32  33
ENDBRANCH  28  32
ENDBRANCH   4  25
TORSDOF 10
ENDMDL
