MODEL 1
REMARK VINA RESULT:      -8.6      0.000      0.000
REMARK  6 active torsions:
REMARK  status: ('A' for Active; 'I' for Inactive)
REMARK    1  A    between atoms: C_2  and  C_3 
REMARK    2  A    between atoms: C_7  and  C_8 
REMARK       I    between atoms: C_8  and  N_9 
REMARK    3  A    between atoms: N_9  and  C_10 
REMARK    4  A    between atoms: C_10  and  C_11 
REMARK    5  A    between atoms: C_10  and  C_19 
REMARK    6  A    between atoms: C_14  and  O_15 
ROOT
HETATM    1  C   UNL     1       6.539  25.476  54.447  1.00  0.00     0.151 C 
ENDROOT
BRANCH   1   2
HETATM    2  N   UNL     1       6.239  26.020  53.133  1.00  0.00    -0.343 N 
HETATM    3  C   UNL     1       5.121  25.676  52.421  1.00  0.00     0.270 C 
HETATM    4  O   UNL     1       4.284  24.879  52.833  1.00  0.00    -0.266 OA
HETATM    5  H   UNL     1       6.899  26.675  52.747  1.00  0.00     0.163 HD
BRANCH   3   6
HETATM    6  C   UNL     1       4.998  26.312  51.136  1.00  0.00     0.119 A 
HETATM    7  N   UNL     1       4.337  25.706  50.101  1.00  0.00    -0.273 N 
HETATM    8  N   UNL     1       4.309  26.427  48.968  1.00  0.00    -0.179 NA
HETATM    9  H   UNL     1       3.887  24.795  50.117  1.00  0.00     0.189 HD
HETATM   10  C   UNL     1       4.971  27.546  49.282  1.00  0.00     0.056 A 
HETATM   11  C   UNL     1       5.425  27.521  50.623  1.00  0.00     0.065 A 
BRANCH  10  12
HETATM   12  C   UNL     1       5.150  28.630  48.274  1.00  0.00     0.056 C 
HETATM   13  C   UNL     1       3.849  28.987  47.572  1.00  0.00     0.011 C 
ENDBRANCH  10  12
ENDBRANCH   3   6
ENDBRANCH   1   2
BRANCH   1  14
HETATM   14  C   UNL     1       7.301  26.546  55.227  1.00  0.00    -0.031 A 
HETATM   15  C   UNL     1       7.622  27.786  54.651  1.00  0.00     0.012 A 
HETATM   16  C   UNL     1       8.326  28.746  55.382  1.00  0.00     0.037 A 
HETATM   17  C   UNL     1       8.725  28.491  56.694  1.00  0.00     0.068 A 
HETATM   18  C   UNL     1       8.391  27.272  57.284  1.00  0.00     0.037 A 
HETATM   19  C   UNL     1       7.681  26.308  56.556  1.00  0.00     0.012 A 
BRANCH  17  20
HETATM   20  O   UNL     1       9.420  29.508  57.289  1.00  0.00    -0.356 OA
HETATM   21  C   UNL     1      10.692  29.820  56.736  1.00  0.00     0.210 C 
ENDBRANCH  17  20
ENDBRANCH   1  14
BRANCH   1  22
HETATM   22  C   UNL     1       7.260  24.126  54.375  1.00  0.00    -0.031 A 
HETATM   23  C   UNL     1       7.155  23.209  55.440  1.00  0.00     0.009 A 
HETATM   24  C   UNL     1       7.777  21.959  55.383  1.00  0.00     0.001 A 
HETATM   25  C   UNL     1       8.498  21.591  54.252  1.00  0.00     0.000 A 
HETATM   26  C   UNL     1       8.590  22.467  53.176  1.00  0.00     0.001 A 
HETATM   27  C   UNL     1       7.972  23.720  53.232  1.00  0.00     0.009 A 
ENDBRANCH   1  22
TORSDOF 6
ENDMDL
MODEL 2
REMARK VINA RESULT:      -8.3      2.536      6.994
REMARK  6 active torsions:
REMARK  status: ('A' for Active; 'I' for Inactive)
REMARK    1  A    between atoms: C_2  and  C_3 
REMARK    2  A    between atoms: C_7  and  C_8 
REMARK       I    between atoms: C_8  and  N_9 
REMARK    3  A    between atoms: N_9  and  C_10 
REMARK    4  A    between atoms: C_10  and  C_11 
REMARK    5  A    between atoms: C_10  and  C_19 
REMARK    6  A    between atoms: C_14  and  O_15 
ROOT
HETATM    1  C   UNL     1       5.924  25.732  54.226  1.00  0.00     0.151 C 
ENDROOT
BRANCH   1   2
HETATM    2  N   UNL     1       6.624  26.712  55.040  1.00  0.00    -0.343 N 
HETATM    3  C   UNL     1       6.198  27.087  56.286  1.00  0.00     0.270 C 
HETATM    4  O   UNL     1       5.189  26.632  56.814  1.00  0.00    -0.266 OA
HETATM    5  H   UNL     1       7.457  27.121  54.649  1.00  0.00     0.163 HD
BRANCH   3   6
HETATM    6  C   UNL     1       7.017  28.075  56.938  1.00  0.00     0.119 A 
HETATM    7  N   UNL     1       6.471  29.027  57.756  1.00  0.00    -0.273 N 
HETATM    8  N   UNL     1       7.366  29.876  58.288  1.00  0.00    -0.179 NA
HETATM    9  H   UNL     1       5.487  29.143  57.983  1.00  0.00     0.189 HD
HETATM   10  C   UNL     1       8.538  29.454  57.802  1.00  0.00     0.056 A 
HETATM   11  C   UNL     1       8.374  28.335  56.950  1.00  0.00     0.065 A 
BRANCH  10  12
HETATM   12  C   UNL     1       9.807  30.141  58.177  1.00  0.00     0.056 C 
HETATM   13  C   UNL     1      10.892  29.966  57.124  1.00  0.00     0.011 C 
ENDBRANCH  10  12
ENDBRANCH   3   6
ENDBRANCH   1   2
BRANCH   1  14
HETATM   14  C   UNL     1       6.760  24.454  54.221  1.00  0.00    -0.031 A 
HETATM   15  C   UNL     1       6.832  23.618  55.347  1.00  0.00     0.012 A 
HETATM   16  C   UNL     1       7.609  22.458  55.320  1.00  0.00     0.037 A 
HETATM   17  C   UNL     1       8.329  22.108  54.177  1.00  0.00     0.068 A 
HETATM   18  C   UNL     1       8.246  22.919  53.045  1.00  0.00     0.037 A 
HETATM   19  C   UNL     1       7.464  24.080  53.066  1.00  0.00     0.012 A 
BRANCH  17  20
HETATM   20  O   UNL     1       9.060  20.958  54.290  1.00  0.00    -0.356 OA
HETATM   21  C   UNL     1       8.665  20.049  55.310  1.00  0.00     0.210 C 
ENDBRANCH  17  20
ENDBRANCH   1  14
BRANCH   1  22
HETATM   22  C   UNL     1       5.586  26.261  52.828  1.00  0.00    -0.031 A 
HETATM   23  C   UNL     1       5.848  27.605  52.497  1.00  0.00     0.009 A 
HETATM   24  C   UNL     1       5.579  28.102  51.219  1.00  0.00     0.001 A 
HETATM   25  C   UNL     1       5.062  27.260  50.239  1.00  0.00     0.000 A 
HETATM   26  C   UNL     1       4.824  25.921  50.534  1.00  0.00     0.001 A 
HETATM   27  C   UNL     1       5.089  25.424  51.813  1.00  0.00     0.009 A 
ENDBRANCH   1  22
TORSDOF 6
ENDMDL
MODEL 3
REMARK VINA RESULT:      -8.3      3.998      6.863
REMARK  6 active torsions:
REMARK  status: ('A' for Active; 'I' for Inactive)
REMARK    1  A    between atoms: C_2  and  C_3 
REMARK    2  A    between atoms: C_7  and  C_8 
REMARK       I    between atoms: C_8  and  N_9 
REMARK    3  A    between atoms: N_9  and  C_10 
REMARK    4  A    between atoms: C_10  and  C_11 
REMARK    5  A    between atoms: C_10  and  C_19 
REMARK    6  A    between atoms: C_14  and  O_15 
ROOT
HETATM    1  C   UNL     1       7.123  28.225  57.252  1.00  0.00     0.151 C 
ENDROOT
BRANCH   1   2
HETATM    2  N   UNL     1       7.363  27.041  56.444  1.00  0.00    -0.343 N 
HETATM    3  C   UNL     1       7.808  25.858  56.970  1.00  0.00     0.270 C 
HETATM    4  O   UNL     1       8.043  25.702  58.165  1.00  0.00    -0.266 OA
HETATM    5  H   UNL     1       7.191  27.119  55.456  1.00  0.00     0.163 HD
BRANCH   3   6
HETATM    6  C   UNL     1       7.995  24.799  56.014  1.00  0.00     0.119 A 
HETATM    7  N   UNL     1       8.813  23.733  56.281  1.00  0.00    -0.273 N 
HETATM    8  N   UNL     1       8.882  22.830  55.289  1.00  0.00    -0.179 NA
HETATM    9  H   UNL     1       9.350  23.576  57.129  1.00  0.00     0.189 HD
HETATM   10  C   UNL     1       8.073  23.324  54.346  1.00  0.00     0.056 A 
HETATM   11  C   UNL     1       7.499  24.555  54.748  1.00  0.00     0.065 A 
BRANCH  10  12
HETATM   12  C   UNL     1       7.865  22.592  53.064  1.00  0.00     0.056 C 
HETATM   13  C   UNL     1       8.042  21.089  53.222  1.00  0.00     0.011 C 
ENDBRANCH  10  12
ENDBRANCH   3   6
ENDBRANCH   1   2
BRANCH   1  14
HETATM   14  C   UNL     1       5.940  28.971  56.638  1.00  0.00    -0.031 A 
HETATM   15  C   UNL     1       5.758  29.040  55.247  1.00  0.00     0.012 A 
HETATM   16  C   UNL     1       4.672  29.734  54.708  1.00  0.00     0.037 A 
HETATM   17  C   UNL     1       3.751  30.373  55.539  1.00  0.00     0.068 A 
HETATM   18  C   UNL     1       3.910  30.292  56.922  1.00  0.00     0.037 A 
HETATM   19  C   UNL     1       4.994  29.593  57.467  1.00  0.00     0.012 A 
BRANCH  17  20
HETATM   20  O   UNL     1       2.747  31.029  54.882  1.00  0.00    -0.356 OA
HETATM   21  C   UNL     1       3.139  31.959  53.881  1.00  0.00     0.210 C 
ENDBRANCH  17  20
ENDBRANCH   1  14
BRANCH   1  22
HETATM   22  C   UNL     1       8.379  29.086  57.425  1.00  0.00    -0.031 A 
HETATM   23  C   UNL     1       9.352  29.132  56.407  1.00  0.00     0.009 A 
HETATM   24  C   UNL     1      10.489  29.934  56.528  1.00  0.00     0.001 A 
HETATM   25  C   UNL     1      10.668  30.723  57.660  1.00  0.00     0.000 A 
HETATM   26  C   UNL     1       9.706  30.718  58.665  1.00  0.00     0.001 A 
HETATM   27  C   UNL     1       8.569  29.913  58.547  1.00  0.00     0.009 A 
ENDBRANCH   1  22
TORSDOF 6
ENDMDL
MODEL 4
REMARK VINA RESULT:      -8.2     11.747     16.159
REMARK  6 active torsions:
REMARK  status: ('A' for Active; 'I' for Inactive)
REMARK    1  A    between atoms: C_2  and  C_3 
REMARK    2  A    between atoms: C_7  and  C_8 
REMARK       I    between atoms: C_8  and  N_9 
REMARK    3  A    between atoms: N_9  and  C_10 
REMARK    4  A    between atoms: C_10  and  C_11 
REMARK    5  A    between atoms: C_10  and  C_19 
REMARK    6  A    between atoms: C_14  and  O_15 
ROOT
HETATM    1  C   UNL     1       5.300  34.402  64.204  1.00  0.00     0.151 C 
ENDROOT
BRANCH   1   2
HETATM    2  N   UNL     1       5.879  34.516  65.532  1.00  0.00    -0.343 N 
HETATM    3  C   UNL     1       5.131  34.466  66.678  1.00  0.00     0.270 C 
HETATM    4  O   UNL     1       3.912  34.326  66.676  1.00  0.00    -0.266 OA
HETATM    5  H   UNL     1       6.877  34.639  65.587  1.00  0.00     0.163 HD
BRANCH   3   6
HETATM    6  C   UNL     1       5.879  34.604  67.900  1.00  0.00     0.119 A 
HETATM    7  N   UNL     1       5.259  34.884  69.087  1.00  0.00    -0.273 N 
HETATM    8  N   UNL     1       6.093  34.982  70.135  1.00  0.00    -0.179 NA
HETATM    9  H   UNL     1       4.263  35.022  69.237  1.00  0.00     0.189 HD
HETATM   10  C   UNL     1       7.300  34.748  69.609  1.00  0.00     0.056 A 
HETATM   11  C   UNL     1       7.221  34.511  68.215  1.00  0.00     0.065 A 
BRANCH  10  12
HETATM   12  C   UNL     1       8.518  34.754  70.469  1.00  0.00     0.056 C 
HETATM   13  C   UNL     1       8.377  33.841  71.677  1.00  0.00     0.011 C 
ENDBRANCH  10  12
ENDBRANCH   3   6
ENDBRANCH   1   2
BRANCH   1  14
HETATM   14  C   UNL     1       6.229  33.523  63.369  1.00  0.00    -0.031 A 
HETATM   15  C   UNL     1       7.444  33.042  63.884  1.00  0.00     0.012 A 
HETATM   16  C   UNL     1       8.281  32.245  63.098  1.00  0.00     0.037 A 
HETATM   17  C   UNL     1       7.927  31.914  61.790  1.00  0.00     0.068 A 
HETATM   18  C   UNL     1       6.712  32.367  61.276  1.00  0.00     0.037 A 
HETATM   19  C   UNL     1       5.868  33.162  62.062  1.00  0.00     0.012 A 
BRANCH  17  20
HETATM   20  O   UNL     1       8.842  31.143  61.128  1.00  0.00    -0.356 OA
HETATM   21  C   UNL     1       8.424  30.578  59.891  1.00  0.00     0.210 C 
ENDBRANCH  17  20
ENDBRANCH   1  14
BRANCH   1  22
HETATM   22  C   UNL     1       5.001  35.766  63.572  1.00  0.00    -0.031 A 
HETATM   23  C   UNL     1       6.049  36.668  63.305  1.00  0.00     0.009 A 
HETATM   24  C   UNL     1       5.805  37.904  62.700  1.00  0.00     0.001 A 
HETATM   25  C   UNL     1       4.510  38.254  62.330  1.00  0.00     0.000 A 
HETATM   26  C   UNL     1       3.463  37.367  62.556  1.00  0.00     0.001 A 
HETATM   27  C   UNL     1       3.705  36.132  63.165  1.00  0.00     0.009 A 
ENDBRANCH   1  22
TORSDOF 6
ENDMDL
MODEL 5
REMARK VINA RESULT:      -8.2      2.260      4.958
REMARK  6 active torsions:
REMARK  status: ('A' for Active; 'I' for Inactive)
REMARK    1  A    between atoms: C_2  and  C_3 
REMARK    2  A    between atoms: C_7  and  C_8 
REMARK       I    between atoms: C_8  and  N_9 
REMARK    3  A    between atoms: N_9  and  C_10 
REMARK    4  A    between atoms: C_10  and  C_11 
REMARK    5  A    between atoms: C_10  and  C_19 
REMARK    6  A    between atoms: C_14  and  O_15 
ROOT
HETATM    1  C   UNL     1       7.236  26.117  53.650  1.00  0.00     0.151 C 
ENDROOT
BRANCH   1   2
HETATM    2  N   UNL     1       6.300  26.181  52.540  1.00  0.00    -0.343 N 
HETATM    3  C   UNL     1       5.945  27.356  51.932  1.00  0.00     0.270 C 
HETATM    4  O   UNL     1       6.384  28.448  52.277  1.00  0.00    -0.266 OA
HETATM    5  H   UNL     1       5.906  25.311  52.222  1.00  0.00     0.163 HD
BRANCH   3   6
HETATM    6  C   UNL     1       5.000  27.222  50.854  1.00  0.00     0.119 A 
HETATM    7  N   UNL     1       3.957  28.096  50.708  1.00  0.00    -0.273 N 
HETATM    8  N   UNL     1       3.165  27.837  49.655  1.00  0.00    -0.179 NA
HETATM    9  H   UNL     1       3.740  28.890  51.304  1.00  0.00     0.189 HD
HETATM   10  C   UNL     1       3.719  26.758  49.093  1.00  0.00     0.056 A 
HETATM   11  C   UNL     1       4.865  26.331  49.807  1.00  0.00     0.065 A 
BRANCH  10  12
HETATM   12  C   UNL     1       3.129  26.155  47.863  1.00  0.00     0.056 C 
HETATM   13  C   UNL     1       2.984  24.644  47.973  1.00  0.00     0.011 C 
ENDBRANCH  10  12
ENDBRANCH   3   6
ENDBRANCH   1   2
BRANCH   1  14
HETATM   14  C   UNL     1       7.591  24.648  53.871  1.00  0.00    -0.031 A 
HETATM   15  C   UNL     1       7.937  24.159  55.141  1.00  0.00     0.012 A 
HETATM   16  C   UNL     1       8.264  22.812  55.317  1.00  0.00     0.037 A 
HETATM   17  C   UNL     1       8.257  21.930  54.236  1.00  0.00     0.068 A 
HETATM   18  C   UNL     1       7.893  22.400  52.974  1.00  0.00     0.037 A 
HETATM   19  C   UNL     1       7.559  23.748  52.795  1.00  0.00     0.012 A 
BRANCH  17  20
HETATM   20  O   UNL     1       8.612  20.646  54.543  1.00  0.00    -0.356 OA
HETATM   21  C   UNL     1       9.187  20.432  55.826  1.00  0.00     0.210 C 
ENDBRANCH  17  20
ENDBRANCH   1  14
BRANCH   1  22
HETATM   22  C   UNL     1       6.712  26.826  54.904  1.00  0.00    -0.031 A 
HETATM   23  C   UNL     1       7.514  27.776  55.567  1.00  0.00     0.009 A 
HETATM   24  C   UNL     1       7.046  28.459  56.693  1.00  0.00     0.001 A 
HETATM   25  C   UNL     1       5.759  28.222  57.165  1.00  0.00     0.000 A 
HETATM   26  C   UNL     1       4.938  27.311  56.509  1.00  0.00     0.001 A 
HETATM   27  C   UNL     1       5.406  26.624  55.385  1.00  0.00     0.009 A 
ENDBRANCH   1  22
TORSDOF 6
ENDMDL
MODEL 6
REMARK VINA RESULT:      -8.0      2.543      5.964
REMARK  6 active torsions:
REMARK  status: ('A' for Active; 'I' for Inactive)
REMARK    1  A    between atoms: C_2  and  C_3 
REMARK    2  A    between atoms: C_7  and  C_8 
REMARK       I    between atoms: C_8  and  N_9 
REMARK    3  A    between atoms: N_9  and  C_10 
REMARK    4  A    between atoms: C_10  and  C_11 
REMARK    5  A    between atoms: C_10  and  C_19 
REMARK    6  A    between atoms: C_14  and  O_15 
ROOT
HETATM    1  C   UNL     1       7.422  27.433  54.121  1.00  0.00     0.151 C 
ENDROOT
BRANCH   1   2
HETATM    2  N   UNL     1       7.464  25.989  54.278  1.00  0.00    -0.343 N 
HETATM    3  C   UNL     1       7.897  25.144  53.291  1.00  0.00     0.270 C 
HETATM    4  O   UNL     1       8.280  25.536  52.194  1.00  0.00    -0.266 OA
HETATM    5  H   UNL     1       7.154  25.615  55.160  1.00  0.00     0.163 HD
BRANCH   3   6
HETATM    6  C   UNL     1       7.860  23.745  53.628  1.00  0.00     0.119 A 
HETATM    7  N   UNL     1       7.843  22.778  52.659  1.00  0.00    -0.273 N 
HETATM    8  N   UNL     1       7.808  21.523  53.133  1.00  0.00    -0.179 NA
HETATM    9  H   UNL     1       7.851  22.925  51.653  1.00  0.00     0.189 HD
HETATM   10  C   UNL     1       7.812  21.680  54.461  1.00  0.00     0.056 A 
HETATM   11  C   UNL     1       7.838  23.049  54.821  1.00  0.00     0.065 A 
BRANCH  10  12
HETATM   12  C   UNL     1       7.792  20.495  55.367  1.00  0.00     0.056 C 
HETATM   13  C   UNL     1       8.981  20.473  56.315  1.00  0.00     0.011 C 
ENDBRANCH  10  12
ENDBRANCH   3   6
ENDBRANCH   1   2
BRANCH   1  14
HETATM   14  C   UNL     1       7.766  28.055  55.472  1.00  0.00    -0.031 A 
HETATM   15  C   UNL     1       7.191  27.586  56.665  1.00  0.00     0.012 A 
HETATM   16  C   UNL     1       7.516  28.176  57.889  1.00  0.00     0.037 A 
HETATM   17  C   UNL     1       8.414  29.242  57.950  1.00  0.00     0.068 A 
HETATM   18  C   UNL     1       9.009  29.701  56.775  1.00  0.00     0.037 A 
HETATM   19  C   UNL     1       8.689  29.109  55.546  1.00  0.00     0.012 A 
BRANCH  17  20
HETATM   20  O   UNL     1       8.631  29.736  59.206  1.00  0.00    -0.356 OA
HETATM   21  C   UNL     1       7.889  30.892  59.574  1.00  0.00     0.210 C 
ENDBRANCH  17  20
ENDBRANCH   1  14
BRANCH   1  22
HETATM   22  C   UNL     1       6.095  27.923  53.530  1.00  0.00    -0.031 A 
HETATM   23  C   UNL     1       6.030  28.339  52.185  1.00  0.00     0.009 A 
HETATM   24  C   UNL     1       4.825  28.758  51.615  1.00  0.00     0.001 A 
HETATM   25  C   UNL     1       3.657  28.750  52.370  1.00  0.00     0.000 A 
HETATM   26  C   UNL     1       3.691  28.314  53.691  1.00  0.00     0.001 A 
HETATM   27  C   UNL     1       4.896  27.898  54.264  1.00  0.00     0.009 A 
ENDBRANCH   1  22
TORSDOF 6
ENDMDL
MODEL 7
REMARK VINA RESULT:      -7.9      2.908      7.121
REMARK  6 active torsions:
REMARK  status: ('A' for Active; 'I' for Inactive)
REMARK    1  A    between atoms: C_2  and  C_3 
REMARK    2  A    between atoms: C_7  and  C_8 
REMARK       I    between atoms: C_8  and  N_9 
REMARK    3  A    between atoms: N_9  and  C_10 
REMARK    4  A    between atoms: C_10  and  C_11 
REMARK    5  A    between atoms: C_10  and  C_19 
REMARK    6  A    between atoms: C_14  and  O_15 
ROOT
HETATM    1  C   UNL     1       7.239  27.387  53.703  1.00  0.00     0.151 C 
ENDROOT
BRANCH   1   2
HETATM    2  N   UNL     1       7.320  28.024  55.007  1.00  0.00    -0.343 N 
HETATM    3  C   UNL     1       8.360  28.834  55.377  1.00  0.00     0.270 C 
HETATM    4  O   UNL     1       9.309  29.085  54.641  1.00  0.00    -0.266 OA
HETATM    5  H   UNL     1       6.568  27.845  55.651  1.00  0.00     0.163 HD
BRANCH   3   6
HETATM    6  C   UNL     1       8.270  29.369  56.710  1.00  0.00     0.119 A 
HETATM    7  N   UNL     1       7.076  29.793  57.229  1.00  0.00    -0.273 N 
HETATM    8  N   UNL     1       7.158  30.266  58.484  1.00  0.00    -0.179 NA
HETATM    9  H   UNL     1       6.173  29.782  56.765  1.00  0.00     0.189 HD
HETATM   10  C   UNL     1       8.453  30.137  58.793  1.00  0.00     0.056 A 
HETATM   11  C   UNL     1       9.191  29.587  57.717  1.00  0.00     0.065 A 
BRANCH  10  12
HETATM   12  C   UNL     1       8.957  30.548  60.134  1.00  0.00     0.056 C 
HETATM   13  C   UNL     1       9.394  32.004  60.167  1.00  0.00     0.011 C 
ENDBRANCH  10  12
ENDBRANCH   3   6
ENDBRANCH   1   2
BRANCH   1  14
HETATM   14  C   UNL     1       5.933  27.836  53.050  1.00  0.00    -0.031 A 
HETATM   15  C   UNL     1       4.783  28.098  53.812  1.00  0.00     0.012 A 
HETATM   16  C   UNL     1       3.598  28.500  53.192  1.00  0.00     0.037 A 
HETATM   17  C   UNL     1       3.533  28.648  51.806  1.00  0.00     0.068 A 
HETATM   18  C   UNL     1       4.676  28.413  51.041  1.00  0.00     0.037 A 
HETATM   19  C   UNL     1       5.868  28.014  51.660  1.00  0.00     0.012 A 
BRANCH  17  20
HETATM   20  O   UNL     1       2.311  29.031  51.328  1.00  0.00    -0.356 OA
HETATM   21  C   UNL     1       2.181  29.130  49.915  1.00  0.00     0.210 C 
ENDBRANCH  17  20
ENDBRANCH   1  14
BRANCH   1  22
HETATM   22  C   UNL     1       7.406  25.866  53.778  1.00  0.00    -0.031 A 
HETATM   23  C   UNL     1       7.026  25.169  54.942  1.00  0.00     0.009 A 
HETATM   24  C   UNL     1       7.138  23.779  55.023  1.00  0.00     0.001 A 
HETATM   25  C   UNL     1       7.613  23.054  53.934  1.00  0.00     0.000 A 
HETATM   26  C   UNL     1       7.966  23.717  52.763  1.00  0.00     0.001 A 
HETATM   27  C   UNL     1       7.858  25.109  52.682  1.00  0.00     0.009 A 
ENDBRANCH   1  22
TORSDOF 6
ENDMDL
MODEL 8
REMARK VINA RESULT:      -7.8      2.413      6.791
REMARK  6 active torsions:
REMARK  status: ('A' for Active; 'I' for Inactive)
REMARK    1  A    between atoms: C_2  and  C_3 
REMARK    2  A    between atoms: C_7  and  C_8 
REMARK       I    between atoms: C_8  and  N_9 
REMARK    3  A    between atoms: N_9  and  C_10 
REMARK    4  A    between atoms: C_10  and  C_11 
REMARK    5  A    between atoms: C_10  and  C_19 
REMARK    6  A    between atoms: C_14  and  O_15 
ROOT
HETATM    1  C   UNL     1       7.508  26.428  53.355  1.00  0.00     0.151 C 
ENDROOT
BRANCH   1   2
HETATM    2  N   UNL     1       7.318  27.303  54.500  1.00  0.00    -0.343 N 
HETATM    3  C   UNL     1       8.126  28.378  54.759  1.00  0.00     0.270 C 
HETATM    4  O   UNL     1       9.078  28.687  54.049  1.00  0.00    -0.266 OA
HETATM    5  H   UNL     1       6.552  27.089  55.117  1.00  0.00     0.163 HD
BRANCH   3   6
HETATM    6  C   UNL     1       7.786  29.124  55.942  1.00  0.00     0.119 A 
HETATM    7  N   UNL     1       6.639  29.868  56.011  1.00  0.00    -0.273 N 
HETATM    8  N   UNL     1       6.465  30.505  57.180  1.00  0.00    -0.179 NA
HETATM    9  H   UNL     1       5.939  29.976  55.282  1.00  0.00     0.189 HD
HETATM   10  C   UNL     1       7.536  30.155  57.900  1.00  0.00     0.056 A 
HETATM   11  C   UNL     1       8.395  29.298  57.170  1.00  0.00     0.065 A 
BRANCH  10  12
HETATM   12  C   UNL     1       7.712  30.657  59.293  1.00  0.00     0.056 C 
HETATM   13  C   UNL     1       9.169  30.654  59.729  1.00  0.00     0.011 C 
ENDBRANCH  10  12
ENDBRANCH   3   6
ENDBRANCH   1   2
BRANCH   1  14
HETATM   14  C   UNL     1       6.433  26.772  52.327  1.00  0.00    -0.031 A 
HETATM   15  C   UNL     1       5.978  25.825  51.394  1.00  0.00     0.012 A 
HETATM   16  C   UNL     1       4.999  26.165  50.458  1.00  0.00     0.037 A 
HETATM   17  C   UNL     1       4.456  27.450  50.430  1.00  0.00     0.068 A 
HETATM   18  C   UNL     1       4.883  28.392  51.366  1.00  0.00     0.037 A 
HETATM   19  C   UNL     1       5.862  28.053  52.309  1.00  0.00     0.012 A 
BRANCH  17  20
HETATM   20  O   UNL     1       3.519  27.655  49.455  1.00  0.00    -0.356 OA
HETATM   21  C   UNL     1       3.961  28.309  48.272  1.00  0.00     0.210 C 
ENDBRANCH  17  20
ENDBRANCH   1  14
BRANCH   1  22
HETATM   22  C   UNL     1       7.544  24.947  53.746  1.00  0.00    -0.031 A 
HETATM   23  C   UNL     1       8.047  23.988  52.844  1.00  0.00     0.009 A 
HETATM   24  C   UNL     1       8.120  22.636  53.190  1.00  0.00     0.001 A 
HETATM   25  C   UNL     1       7.713  22.218  54.453  1.00  0.00     0.000 A 
HETATM   26  C   UNL     1       7.243  23.150  55.372  1.00  0.00     0.001 A 
HETATM   27  C   UNL     1       7.165  24.502  55.025  1.00  0.00     0.009 A 
ENDBRANCH   1  22
TORSDOF 6
ENDMDL
MODEL 9
REMARK VINA RESULT:      -7.5     10.072     13.582
REMARK  6 active torsions:
REMARK  status: ('A' for Active; 'I' for Inactive)
REMARK    1  A    between atoms: C_2  and  C_3 
REMARK    2  A    between atoms: C_7  and  C_8 
REMARK       I    between atoms: C_8  and  N_9 
REMARK    3  A    between atoms: N_9  and  C_10 
REMARK    4  A    between atoms: C_10  and  C_11 
REMARK    5  A    between atoms: C_10  and  C_19 
REMARK    6  A    between atoms: C_14  and  O_15 
ROOT
HETATM    1  C   UNL     1       4.967  34.011  63.850  1.00  0.00     0.151 C 
ENDROOT
BRANCH   1   2
HETATM    2  N   UNL     1       5.990  33.329  63.074  1.00  0.00    -0.343 N 
HETATM    3  C   UNL     1       5.967  31.982  62.832  1.00  0.00     0.270 C 
HETATM    4  O   UNL     1       5.085  31.240  63.253  1.00  0.00    -0.266 OA
HETATM    5  H   UNL     1       6.741  33.893  62.711  1.00  0.00     0.163 HD
BRANCH   3   6
HETATM    6  C   UNL     1       7.069  31.485  62.051  1.00  0.00     0.119 A 
HETATM    7  N   UNL     1       8.064  30.735  62.618  1.00  0.00    -0.273 N 
HETATM    8  N   UNL     1       9.020  30.348  61.757  1.00  0.00    -0.179 NA
HETATM    9  H   UNL     1       8.139  30.461  63.593  1.00  0.00     0.189 HD
HETATM   10  C   UNL     1       8.626  30.859  60.586  1.00  0.00     0.056 A 
HETATM   11  C   UNL     1       7.416  31.583  60.717  1.00  0.00     0.065 A 
BRANCH  10  12
HETATM   12  C   UNL     1       9.431  30.636  59.351  1.00  0.00     0.056 C 
HETATM   13  C   UNL     1       8.665  29.851  58.297  1.00  0.00     0.011 C 
ENDBRANCH  10  12
ENDBRANCH   3   6
ENDBRANCH   1   2
BRANCH   1  14
HETATM   14  C   UNL     1       4.759  35.390  63.229  1.00  0.00    -0.031 A 
HETATM   15  C   UNL     1       3.487  35.982  63.162  1.00  0.00     0.012 A 
HETATM   16  C   UNL     1       3.320  37.242  62.582  1.00  0.00     0.037 A 
HETATM   17  C   UNL     1       4.412  37.935  62.057  1.00  0.00     0.068 A 
HETATM   18  C   UNL     1       5.683  37.367  62.139  1.00  0.00     0.037 A 
HETATM   19  C   UNL     1       5.855  36.106  62.724  1.00  0.00     0.012 A 
BRANCH  17  20
HETATM   20  O   UNL     1       4.107  39.148  61.506  1.00  0.00    -0.356 OA
HETATM   21  C   UNL     1       4.463  39.337  60.142  1.00  0.00     0.210 C 
ENDBRANCH  17  20
ENDBRANCH   1  14
BRANCH   1  22
HETATM   22  C   UNL     1       5.289  34.045  65.348  1.00  0.00    -0.031 A 
HETATM   23  C   UNL     1       6.627  34.096  65.784  1.00  0.00     0.009 A 
HETATM   24  C   UNL     1       6.944  34.161  67.143  1.00  0.00     0.001 A 
HETATM   25  C   UNL     1       5.929  34.198  68.094  1.00  0.00     0.000 A 
HETATM   26  C   UNL     1       4.599  34.180  67.686  1.00  0.00     0.001 A 
HETATM   27  C   UNL     1       4.281  34.111  66.327  1.00  0.00     0.009 A 
ENDBRANCH   1  22
TORSDOF 6
ENDMDL
MODEL 10
REMARK VINA RESULT:      -7.3      2.973      6.497
REMARK  6 active torsions:
REMARK  status: ('A' for Active; 'I' for Inactive)
REMARK    1  A    between atoms: C_2  and  C_3 
REMARK    2  A    between atoms: C_7  and  C_8 
REMARK       I    between atoms: C_8  and  N_9 
REMARK    3  A    between atoms: N_9  and  C_10 
REMARK    4  A    between atoms: C_10  and  C_11 
REMARK    5  A    between atoms: C_10  and  C_19 
REMARK    6  A    between atoms: C_14  and  O_15 
ROOT
HETATM    1  C   UNL     1       6.134  27.341  52.615  1.00  0.00     0.151 C 
ENDROOT
BRANCH   1   2
HETATM    2  N   UNL     1       6.388  26.039  53.208  1.00  0.00    -0.343 N 
HETATM    3  C   UNL     1       7.510  25.301  52.936  1.00  0.00     0.270 C 
HETATM    4  O   UNL     1       8.388  25.678  52.166  1.00  0.00    -0.266 OA
HETATM    5  H   UNL     1       5.694  25.681  53.843  1.00  0.00     0.163 HD
BRANCH   3   6
HETATM    6  C   UNL     1       7.584  24.033  53.612  1.00  0.00     0.119 A 
HETATM    7  N   UNL     1       7.175  23.893  54.911  1.00  0.00    -0.273 N 
HETATM    8  N   UNL     1       7.308  22.649  55.399  1.00  0.00    -0.179 NA
HETATM    9  H   UNL     1       6.798  24.621  55.512  1.00  0.00     0.189 HD
HETATM   10  C   UNL     1       7.815  21.954  54.376  1.00  0.00     0.056 A 
HETATM   11  C   UNL     1       8.010  22.774  53.238  1.00  0.00     0.065 A 
BRANCH  10  12
HETATM   12  C   UNL     1       8.100  20.497  54.515  1.00  0.00     0.056 C 
HETATM   13  C   UNL     1       8.234  20.070  55.969  1.00  0.00     0.011 C 
ENDBRANCH  10  12
ENDBRANCH   3   6
ENDBRANCH   1   2
BRANCH   1  14
HETATM   14  C   UNL     1       5.302  28.147  53.610  1.00  0.00    -0.031 A 
HETATM   15  C   UNL     1       4.633  29.321  53.227  1.00  0.00     0.012 A 
HETATM   16  C   UNL     1       3.883  30.046  54.157  1.00  0.00     0.037 A 
HETATM   17  C   UNL     1       3.787  29.619  55.482  1.00  0.00     0.068 A 
HETATM   18  C   UNL     1       4.428  28.443  55.868  1.00  0.00     0.037 A 
HETATM   19  C   UNL     1       5.177  27.711  54.938  1.00  0.00     0.012 A 
BRANCH  17  20
HETATM   20  O   UNL     1       3.036  30.428  56.290  1.00  0.00    -0.356 OA
HETATM   21  C   UNL     1       2.601  31.661  55.732  1.00  0.00     0.210 C 
ENDBRANCH  17  20
ENDBRANCH   1  14
BRANCH   1  22
HETATM   22  C   UNL     1       5.510  27.240  51.219  1.00  0.00    -0.031 A 
HETATM   23  C   UNL     1       5.634  28.309  50.309  1.00  0.00     0.009 A 
HETATM   24  C   UNL     1       5.102  28.228  49.020  1.00  0.00     0.001 A 
HETATM   25  C   UNL     1       4.454  27.068  48.606  1.00  0.00     0.000 A 
HETATM   26  C   UNL     1       4.346  25.989  49.476  1.00  0.00     0.001 A 
HETATM   27  C   UNL     1       4.874  26.070  50.768  1.00  0.00     0.009 A 
ENDBRANCH   1  22
TORSDOF 6
ENDMDL
