MODEL 1
REMARK VINA RESULT:      -9.6      0.000      0.000
REMARK  6 active torsions:
REMARK  status: ('A' for Active; 'I' for Inactive)
REMARK    1  A    between atoms: C_2  and  C_3 
REMARK    2  A    between atoms: C_3  and  C_4 
REMARK    3  A    between atoms: C_7  and  C_8 
REMARK    4  A    between atoms: C_8  and  C_9 
REMARK       I    between atoms: C_9  and  N_10 
REMARK    5  A    between atoms: N_10  and  C_11 
REMARK    6  A    between atoms: C_18  and  C_19 
REMARK       I    between atoms: C_19  and  N_20 
ROOT
HETATM    1  C   UNL     1       7.795  28.636  57.102  1.00  0.00     0.035 A 
HETATM    2  C   UNL     1       7.425  29.509  58.134  1.00  0.00     0.046 A 
HETATM    3  C   UNL     1       8.316  30.524  58.544  1.00  0.00     0.030 A 
HETATM    4  C   UNL     1       9.547  30.631  57.910  1.00  0.00     0.063 A 
HETATM    5  N   UNL     1      10.175  31.685  58.513  1.00  0.00    -0.277 N 
HETATM    6  H   UNL     1      11.097  32.051  58.304  1.00  0.00     0.189 HD
HETATM    7  N   UNL     1       9.463  32.277  59.485  1.00  0.00    -0.168 NA
HETATM    8  C   UNL     1       8.309  31.571  59.516  1.00  0.00     0.156 A 
HETATM    9  C   UNL     1       9.950  29.781  56.879  1.00  0.00     0.034 A 
HETATM   10  C   UNL     1       9.047  28.784  56.489  1.00  0.00     0.032 A 
ENDROOT
BRANCH   1  11
HETATM   11  N   UNL     1       6.966  27.603  56.612  1.00  0.00    -0.327 N 
HETATM   12  C   UNL     1       6.075  27.665  55.554  1.00  0.00     0.226 C 
HETATM   13  O   UNL     1       5.810  28.655  54.880  1.00  0.00    -0.273 OA
HETATM   14  H   UNL     1       6.987  26.729  57.125  1.00  0.00     0.169 HD
BRANCH  12  15
HETATM   15  C   UNL     1       5.435  26.322  55.235  1.00  0.00     0.141 C 
BRANCH  15  16
HETATM   16  C   UNL     1       6.408  25.195  54.981  1.00  0.00    -0.049 A 
HETATM   17  C   UNL     1       7.092  25.084  53.763  1.00  0.00     0.008 A 
HETATM   18  C   UNL     1       8.033  24.070  53.566  1.00  0.00     0.007 A 
HETATM   19  C   UNL     1       8.330  23.160  54.589  1.00  0.00    -0.058 A 
HETATM   20  C   UNL     1       7.652  23.276  55.808  1.00  0.00     0.007 A 
HETATM   21  C   UNL     1       6.705  24.285  56.004  1.00  0.00     0.008 A 
BRANCH  19  22
HETATM   22  C   UNL     1       9.370  22.085  54.388  1.00  0.00     0.042 C 
BRANCH  22  23
HETATM   23  C   UNL     1       8.839  20.649  54.180  1.00  0.00    -0.019 C 
HETATM   24  C   UNL     1       7.735  20.569  53.124  1.00  0.00     0.010 C 
HETATM   25  C   UNL     1       8.383  19.987  55.480  1.00  0.00     0.010 C 
ENDBRANCH  22  23
ENDBRANCH  19  22
ENDBRANCH  15  16
ENDBRANCH  12  15
ENDBRANCH   1  11
BRANCH   8  26
HETATM   26  C   UNL     1       7.235  31.911  60.461  1.00  0.00     0.270 C 
HETATM   27  N   UNL     1       7.219  31.136  61.589  1.00  0.00    -0.365 N 
HETATM   28  H   UNL     1       7.921  30.413  61.691  1.00  0.00     0.159 HD
HETATM   29  H   UNL     1       6.518  31.298  62.294  1.00  0.00     0.159 HD
HETATM   30  O   UNL     1       6.409  32.801  60.292  1.00  0.00    -0.266 OA
ENDBRANCH   8  26
TORSDOF 6
ENDMDL
MODEL 2
REMARK VINA RESULT:      -9.5      4.272     10.313
REMARK  6 active torsions:
REMARK  status: ('A' for Active; 'I' for Inactive)
REMARK    1  A    between atoms: C_2  and  C_3 
REMARK    2  A    between atoms: C_3  and  C_4 
REMARK    3  A    between atoms: C_7  and  C_8 
REMARK    4  A    between atoms: C_8  and  C_9 
REMARK       I    between atoms: C_9  and  N_10 
REMARK    5  A    between atoms: N_10  and  C_11 
REMARK    6  A    between atoms: C_18  and  C_19 
REMARK       I    between atoms: C_19  and  N_20 
ROOT
HETATM    1  C   UNL     1       8.650  29.938  58.541  1.00  0.00     0.035 A 
HETATM    2  C   UNL     1       7.402  29.513  58.067  1.00  0.00     0.046 A 
HETATM    3  C   UNL     1       7.264  29.117  56.718  1.00  0.00     0.030 A 
HETATM    4  C   UNL     1       8.378  29.162  55.890  1.00  0.00     0.063 A 
HETATM    5  N   UNL     1       7.940  28.730  54.669  1.00  0.00    -0.277 N 
HETATM    6  H   UNL     1       8.485  28.633  53.820  1.00  0.00     0.189 HD
HETATM    7  N   UNL     1       6.638  28.405  54.627  1.00  0.00    -0.168 NA
HETATM    8  C   UNL     1       6.205  28.638  55.888  1.00  0.00     0.156 A 
HETATM    9  C   UNL     1       9.637  29.579  56.326  1.00  0.00     0.034 A 
HETATM   10  C   UNL     1       9.748  29.963  57.668  1.00  0.00     0.032 A 
ENDROOT
BRANCH   1  11
HETATM   11  N   UNL     1       8.890  30.335  59.875  1.00  0.00    -0.327 N 
HETATM   12  C   UNL     1       8.915  31.624  60.381  1.00  0.00     0.226 C 
HETATM   13  O   UNL     1       8.781  32.662  59.741  1.00  0.00    -0.273 OA
HETATM   14  H   UNL     1       9.122  29.596  60.529  1.00  0.00     0.169 HD
BRANCH  12  15
HETATM   15  C   UNL     1       9.091  31.668  61.891  1.00  0.00     0.141 C 
BRANCH  15  16
HETATM   16  C   UNL     1       7.910  32.220  62.655  1.00  0.00    -0.049 A 
HETATM   17  C   UNL     1       6.594  31.908  62.288  1.00  0.00     0.008 A 
HETATM   18  C   UNL     1       5.515  32.378  63.040  1.00  0.00     0.007 A 
HETATM   19  C   UNL     1       5.726  33.150  64.190  1.00  0.00    -0.058 A 
HETATM   20  C   UNL     1       7.041  33.455  64.561  1.00  0.00     0.007 A 
HETATM   21  C   UNL     1       8.121  32.992  63.805  1.00  0.00     0.008 A 
BRANCH  19  22
HETATM   22  C   UNL     1       4.562  33.631  65.021  1.00  0.00     0.042 C 
BRANCH  22  23
HETATM   23  C   UNL     1       4.895  34.614  66.164  1.00  0.00    -0.019 C 
HETATM   24  C   UNL     1       4.558  34.054  67.548  1.00  0.00     0.010 C 
HETATM   25  C   UNL     1       4.256  35.989  65.975  1.00  0.00     0.010 C 
ENDBRANCH  22  23
ENDBRANCH  19  22
ENDBRANCH  15  16
ENDBRANCH  12  15
ENDBRANCH   1  11
BRANCH   8  26
HETATM   26  C   UNL     1       4.805  28.398  56.268  1.00  0.00     0.270 C 
HETATM   27  N   UNL     1       4.573  27.151  56.781  1.00  0.00    -0.365 N 
HETATM   28  H   UNL     1       5.350  26.507  56.863  1.00  0.00     0.159 HD
HETATM   29  H   UNL     1       3.642  26.897  57.071  1.00  0.00     0.159 HD
HETATM   30  O   UNL     1       3.898  29.214  56.151  1.00  0.00    -0.266 OA
ENDBRANCH   8  26
TORSDOF 6
ENDMDL
MODEL 3
REMARK VINA RESULT:      -9.0      3.442      6.914
REMARK  6 active torsions:
REMARK  status: ('A' for Active; 'I' for Inactive)
REMARK    1  A    between atoms: C_2  and  C_3 
REMARK    2  A    between atoms: C_3  and  C_4 
REMARK    3  A    between atoms: C_7  and  C_8 
REMARK    4  A    between atoms: C_8  and  C_9 
REMARK       I    between atoms: C_9  and  N_10 
REMARK    5  A    between atoms: N_10  and  C_11 
REMARK    6  A    between atoms: C_18  and  C_19 
REMARK       I    between atoms: C_19  and  N_20 
ROOT
HETATM    1  C   UNL     1       7.253  33.051  62.260  1.00  0.00     0.035 A 
HETATM    2  C   UNL     1       5.881  33.337  62.268  1.00  0.00     0.046 A 
HETATM    3  C   UNL     1       5.220  33.557  63.497  1.00  0.00     0.030 A 
HETATM    4  C   UNL     1       5.953  33.482  64.674  1.00  0.00     0.063 A 
HETATM    5  N   UNL     1       5.058  33.736  65.675  1.00  0.00    -0.277 N 
HETATM    6  H   UNL     1       5.242  33.764  66.672  1.00  0.00     0.189 HD
HETATM    7  N   UNL     1       3.804  33.971  65.256  1.00  0.00    -0.168 NA
HETATM    8  C   UNL     1       3.888  33.865  63.910  1.00  0.00     0.156 A 
HETATM    9  C   UNL     1       7.320  33.201  64.705  1.00  0.00     0.034 A 
HETATM   10  C   UNL     1       7.952  32.989  63.473  1.00  0.00     0.032 A 
ENDROOT
BRANCH   1  11
HETATM   11  N   UNL     1       8.002  32.833  61.083  1.00  0.00    -0.327 N 
HETATM   12  C   UNL     1       8.949  31.849  60.854  1.00  0.00     0.226 C 
HETATM   13  O   UNL     1       9.343  31.014  61.662  1.00  0.00    -0.273 OA
HETATM   14  H   UNL     1       7.871  33.506  60.336  1.00  0.00     0.169 HD
BRANCH  12  15
HETATM   15  C   UNL     1       9.473  31.846  59.426  1.00  0.00     0.141 C 
BRANCH  15  16
HETATM   16  C   UNL     1       9.085  30.637  58.607  1.00  0.00    -0.049 A 
HETATM   17  C   UNL     1      10.007  30.001  57.765  1.00  0.00     0.008 A 
HETATM   18  C   UNL     1       9.649  28.850  57.059  1.00  0.00     0.007 A 
HETATM   19  C   UNL     1       8.371  28.293  57.198  1.00  0.00    -0.058 A 
HETATM   20  C   UNL     1       7.453  28.924  58.045  1.00  0.00     0.007 A 
HETATM   21  C   UNL     1       7.807  30.081  58.746  1.00  0.00     0.008 A 
BRANCH  19  22
HETATM   22  C   UNL     1       7.995  27.031  56.461  1.00  0.00     0.042 C 
BRANCH  22  23
HETATM   23  C   UNL     1       7.715  25.787  57.332  1.00  0.00    -0.019 C 
HETATM   24  C   UNL     1       8.701  24.646  57.075  1.00  0.00     0.010 C 
HETATM   25  C   UNL     1       6.276  25.285  57.210  1.00  0.00     0.010 C 
ENDBRANCH  22  23
ENDBRANCH  19  22
ENDBRANCH  15  16
ENDBRANCH  12  15
ENDBRANCH   1  11
BRANCH   8  26
HETATM   26  C   UNL     1       2.707  34.061  63.057  1.00  0.00     0.270 C 
HETATM   27  N   UNL     1       1.520  33.757  63.668  1.00  0.00    -0.365 N 
HETATM   28  H   UNL     1       1.538  33.434  64.627  1.00  0.00     0.159 HD
HETATM   29  H   UNL     1       0.657  33.863  63.160  1.00  0.00     0.159 HD
HETATM   30  O   UNL     1       2.738  34.460  61.898  1.00  0.00    -0.266 OA
ENDBRANCH   8  26
TORSDOF 6
ENDMDL
MODEL 4
REMARK VINA RESULT:      -8.9      2.133      2.797
REMARK  6 active torsions:
REMARK  status: ('A' for Active; 'I' for Inactive)
REMARK    1  A    between atoms: C_2  and  C_3 
REMARK    2  A    between atoms: C_3  and  C_4 
REMARK    3  A    between atoms: C_7  and  C_8 
REMARK    4  A    between atoms: C_8  and  C_9 
REMARK       I    between atoms: C_9  and  N_10 
REMARK    5  A    between atoms: N_10  and  C_11 
REMARK    6  A    between atoms: C_18  and  C_19 
REMARK       I    between atoms: C_19  and  N_20 
ROOT
HETATM    1  C   UNL     1       4.856  28.807  55.919  1.00  0.00     0.035 A 
HETATM    2  C   UNL     1       5.951  28.974  56.777  1.00  0.00     0.046 A 
HETATM    3  C   UNL     1       6.037  30.129  57.585  1.00  0.00     0.030 A 
HETATM    4  C   UNL     1       5.026  31.078  57.506  1.00  0.00     0.063 A 
HETATM    5  N   UNL     1       5.382  32.061  58.387  1.00  0.00    -0.277 N 
HETATM    6  H   UNL     1       4.875  32.915  58.593  1.00  0.00     0.189 HD
HETATM    7  N   UNL     1       6.536  31.838  59.036  1.00  0.00    -0.168 NA
HETATM    8  C   UNL     1       6.954  30.645  58.552  1.00  0.00     0.156 A 
HETATM    9  C   UNL     1       3.920  30.947  56.665  1.00  0.00     0.034 A 
HETATM   10  C   UNL     1       3.857  29.791  55.876  1.00  0.00     0.032 A 
ENDROOT
BRANCH   1  11
HETATM   11  N   UNL     1       4.674  27.680  55.088  1.00  0.00    -0.327 N 
HETATM   12  C   UNL     1       5.188  27.476  53.819  1.00  0.00     0.226 C 
HETATM   13  O   UNL     1       5.859  28.269  53.166  1.00  0.00    -0.273 OA
HETATM   14  H   UNL     1       4.054  26.959  55.438  1.00  0.00     0.169 HD
BRANCH  12  15
HETATM   15  C   UNL     1       4.879  26.092  53.267  1.00  0.00     0.141 C 
BRANCH  15  16
HETATM   16  C   UNL     1       5.960  25.060  53.491  1.00  0.00    -0.049 A 
HETATM   17  C   UNL     1       6.851  24.705  52.470  1.00  0.00     0.008 A 
HETATM   18  C   UNL     1       7.882  23.793  52.711  1.00  0.00     0.007 A 
HETATM   19  C   UNL     1       8.060  23.234  53.982  1.00  0.00    -0.058 A 
HETATM   20  C   UNL     1       7.174  23.594  55.004  1.00  0.00     0.007 A 
HETATM   21  C   UNL     1       6.138  24.501  54.763  1.00  0.00     0.008 A 
BRANCH  19  22
HETATM   22  C   UNL     1       9.194  22.274  54.251  1.00  0.00     0.042 C 
BRANCH  22  23
HETATM   23  C   UNL     1       8.847  20.770  54.184  1.00  0.00    -0.019 C 
HETATM   24  C   UNL     1       7.936  20.420  53.007  1.00  0.00     0.010 C 
HETATM   25  C   UNL     1       8.260  20.235  55.490  1.00  0.00     0.010 C 
ENDBRANCH  22  23
ENDBRANCH  19  22
ENDBRANCH  15  16
ENDBRANCH  12  15
ENDBRANCH   1  11
BRANCH   8  26
HETATM   26  C   UNL     1       8.205  30.031  59.020  1.00  0.00     0.270 C 
HETATM   27  N   UNL     1       8.480  30.261  60.341  1.00  0.00    -0.365 N 
HETATM   28  H   UNL     1       7.827  30.815  60.883  1.00  0.00     0.159 HD
HETATM   29  H   UNL     1       9.316  29.877  60.750  1.00  0.00     0.159 HD
HETATM   30  O   UNL     1       8.961  29.365  58.323  1.00  0.00    -0.266 OA
ENDBRANCH   8  26
TORSDOF 6
ENDMDL
MODEL 5
REMARK VINA RESULT:      -8.7      3.764      7.090
REMARK  6 active torsions:
REMARK  status: ('A' for Active; 'I' for Inactive)
REMARK    1  A    between atoms: C_2  and  C_3 
REMARK    2  A    between atoms: C_3  and  C_4 
REMARK    3  A    between atoms: C_7  and  C_8 
REMARK    4  A    between atoms: C_8  and  C_9 
REMARK       I    between atoms: C_9  and  N_10 
REMARK    5  A    between atoms: N_10  and  C_11 
REMARK    6  A    between atoms: C_18  and  C_19 
REMARK       I    between atoms: C_19  and  N_20 
ROOT
HETATM    1  C   UNL     1       7.343  32.955  62.291  1.00  0.00     0.035 A 
HETATM    2  C   UNL     1       5.975  33.258  62.279  1.00  0.00     0.046 A 
HETATM    3  C   UNL     1       5.301  33.498  63.496  1.00  0.00     0.030 A 
HETATM    4  C   UNL     1       6.017  33.425  64.684  1.00  0.00     0.063 A 
HETATM    5  N   UNL     1       5.112  33.700  65.670  1.00  0.00    -0.277 N 
HETATM    6  H   UNL     1       5.283  33.735  66.669  1.00  0.00     0.189 HD
HETATM    7  N   UNL     1       3.867  33.947  65.232  1.00  0.00    -0.168 NA
HETATM    8  C   UNL     1       3.967  33.827  63.888  1.00  0.00     0.156 A 
HETATM    9  C   UNL     1       7.379  33.127  64.736  1.00  0.00     0.034 A 
HETATM   10  C   UNL     1       8.025  32.896  63.514  1.00  0.00     0.032 A 
ENDROOT
BRANCH   1  11
HETATM   11  N   UNL     1       8.105  32.716  61.126  1.00  0.00    -0.327 N 
HETATM   12  C   UNL     1       9.045  31.720  60.921  1.00  0.00     0.226 C 
HETATM   13  O   UNL     1       9.421  30.891  61.743  1.00  0.00    -0.273 OA
HETATM   14  H   UNL     1       7.989  33.382  60.370  1.00  0.00     0.169 HD
BRANCH  12  15
HETATM   15  C   UNL     1       9.587  31.696  59.500  1.00  0.00     0.141 C 
BRANCH  15  16
HETATM   16  C   UNL     1       9.121  30.530  58.660  1.00  0.00    -0.049 A 
HETATM   17  C   UNL     1       7.805  30.057  58.735  1.00  0.00     0.008 A 
HETATM   18  C   UNL     1       7.374  29.016  57.908  1.00  0.00     0.007 A 
HETATM   19  C   UNL     1       8.242  28.442  56.970  1.00  0.00    -0.058 A 
HETATM   20  C   UNL     1       9.555  28.919  56.890  1.00  0.00     0.007 A 
HETATM   21  C   UNL     1       9.989  29.955  57.721  1.00  0.00     0.008 A 
BRANCH  19  22
HETATM   22  C   UNL     1       7.768  27.339  56.055  1.00  0.00     0.042 C 
BRANCH  22  23
HETATM   23  C   UNL     1       7.331  27.767  54.636  1.00  0.00    -0.019 C 
HETATM   24  C   UNL     1       5.882  28.253  54.581  1.00  0.00     0.010 C 
HETATM   25  C   UNL     1       7.570  26.682  53.586  1.00  0.00     0.010 C 
ENDBRANCH  22  23
ENDBRANCH  19  22
ENDBRANCH  15  16
ENDBRANCH  12  15
ENDBRANCH   1  11
BRANCH   8  26
HETATM   26  C   UNL     1       2.800  34.030  63.018  1.00  0.00     0.270 C 
HETATM   27  N   UNL     1       1.599  33.780  63.626  1.00  0.00    -0.365 N 
HETATM   28  H   UNL     1       1.599  33.487  64.596  1.00  0.00     0.159 HD
HETATM   29  H   UNL     1       0.744  33.894  63.107  1.00  0.00     0.159 HD
HETATM   30  O   UNL     1       2.853  34.390  61.848  1.00  0.00    -0.266 OA
ENDBRANCH   8  26
TORSDOF 6
ENDMDL
MODEL 6
REMARK VINA RESULT:      -8.7      3.193      9.069
REMARK  6 active torsions:
REMARK  status: ('A' for Active; 'I' for Inactive)
REMARK    1  A    between atoms: C_2  and  C_3 
REMARK    2  A    between atoms: C_3  and  C_4 
REMARK    3  A    between atoms: C_7  and  C_8 
REMARK    4  A    between atoms: C_8  and  C_9 
REMARK       I    between atoms: C_9  and  N_10 
REMARK    5  A    between atoms: N_10  and  C_11 
REMARK    6  A    between atoms: C_18  and  C_19 
REMARK       I    between atoms: C_19  and  N_20 
ROOT
HETATM    1  C   UNL     1       6.782  25.415  55.009  1.00  0.00     0.035 A 
HETATM    2  C   UNL     1       7.335  24.262  55.581  1.00  0.00     0.046 A 
HETATM    3  C   UNL     1       7.717  23.184  54.753  1.00  0.00     0.030 A 
HETATM    4  C   UNL     1       7.529  23.294  53.382  1.00  0.00     0.063 A 
HETATM    5  N   UNL     1       7.984  22.116  52.858  1.00  0.00    -0.277 N 
HETATM    6  H   UNL     1       8.002  21.845  51.881  1.00  0.00     0.189 HD
HETATM    7  N   UNL     1       8.453  21.246  53.766  1.00  0.00    -0.168 NA
HETATM    8  C   UNL     1       8.295  21.892  54.945  1.00  0.00     0.156 A 
HETATM    9  C   UNL     1       6.982  24.426  52.775  1.00  0.00     0.034 A 
HETATM   10  C   UNL     1       6.615  25.483  53.618  1.00  0.00     0.032 A 
ENDROOT
BRANCH   1  11
HETATM   11  N   UNL     1       6.387  26.550  55.751  1.00  0.00    -0.327 N 
HETATM   12  C   UNL     1       6.929  27.823  55.700  1.00  0.00     0.226 C 
HETATM   13  O   UNL     1       7.891  28.181  55.028  1.00  0.00    -0.273 OA
HETATM   14  H   UNL     1       5.657  26.404  56.439  1.00  0.00     0.169 HD
BRANCH  12  15
HETATM   15  C   UNL     1       6.174  28.827  56.559  1.00  0.00     0.141 C 
BRANCH  15  16
HETATM   16  C   UNL     1       7.030  29.611  57.525  1.00  0.00    -0.049 A 
HETATM   17  C   UNL     1       8.382  29.299  57.720  1.00  0.00     0.008 A 
HETATM   18  C   UNL     1       9.175  30.072  58.572  1.00  0.00     0.007 A 
HETATM   19  C   UNL     1       8.642  31.188  59.229  1.00  0.00    -0.058 A 
HETATM   20  C   UNL     1       7.293  31.505  59.028  1.00  0.00     0.007 A 
HETATM   21  C   UNL     1       6.497  30.728  58.182  1.00  0.00     0.008 A 
BRANCH  19  22
HETATM   22  C   UNL     1       9.507  32.042  60.124  1.00  0.00     0.042 C 
BRANCH  22  23
HETATM   23  C   UNL     1       9.439  31.736  61.637  1.00  0.00    -0.019 C 
HETATM   24  C   UNL     1       9.394  30.237  61.940  1.00  0.00     0.010 C 
HETATM   25  C   UNL     1       8.289  32.456  62.340  1.00  0.00     0.010 C 
ENDBRANCH  22  23
ENDBRANCH  19  22
ENDBRANCH  15  16
ENDBRANCH  12  15
ENDBRANCH   1  11
BRANCH   8  26
HETATM   26  C   UNL     1       8.700  21.269  56.213  1.00  0.00     0.270 C 
HETATM   27  N   UNL     1       9.502  20.170  56.065  1.00  0.00    -0.365 N 
HETATM   28  H   UNL     1       9.753  19.876  55.128  1.00  0.00     0.159 HD
HETATM   29  H   UNL     1       9.830  19.678  56.880  1.00  0.00     0.159 HD
HETATM   30  O   UNL     1       8.371  21.666  57.325  1.00  0.00    -0.266 OA
ENDBRANCH   8  26
TORSDOF 6
ENDMDL
MODEL 7
REMARK VINA RESULT:      -8.5      2.392      4.961
REMARK  6 active torsions:
REMARK  status: ('A' for Active; 'I' for Inactive)
REMARK    1  A    between atoms: C_2  and  C_3 
REMARK    2  A    between atoms: C_3  and  C_4 
REMARK    3  A    between atoms: C_7  and  C_8 
REMARK    4  A    between atoms: C_8  and  C_9 
REMARK       I    between atoms: C_9  and  N_10 
REMARK    5  A    between atoms: N_10  and  C_11 
REMARK    6  A    between atoms: C_18  and  C_19 
REMARK       I    between atoms: C_19  and  N_20 
ROOT
HETATM    1  C   UNL     1       8.040  31.313  61.115  1.00  0.00     0.035 A 
HETATM    2  C   UNL     1       6.666  31.579  61.181  1.00  0.00     0.046 A 
HETATM    3  C   UNL     1       6.153  32.350  62.247  1.00  0.00     0.030 A 
HETATM    4  C   UNL     1       7.031  32.826  63.212  1.00  0.00     0.063 A 
HETATM    5  N   UNL     1       6.255  33.522  64.096  1.00  0.00    -0.277 N 
HETATM    6  H   UNL     1       6.561  34.009  64.931  1.00  0.00     0.189 HD
HETATM    7  N   UNL     1       4.947  33.543  63.794  1.00  0.00    -0.168 NA
HETATM    8  C   UNL     1       4.867  32.823  62.651  1.00  0.00     0.156 A 
HETATM    9  C   UNL     1       8.405  32.583  63.180  1.00  0.00     0.034 A 
HETATM   10  C   UNL     1       8.889  31.819  62.110  1.00  0.00     0.032 A 
ENDROOT
BRANCH   1  11
HETATM   11  N   UNL     1       8.648  30.569  60.080  1.00  0.00    -0.327 N 
HETATM   12  C   UNL     1       8.456  30.707  58.716  1.00  0.00     0.226 C 
HETATM   13  O   UNL     1       7.677  31.477  58.162  1.00  0.00    -0.273 OA
HETATM   14  H   UNL     1       9.256  29.811  60.369  1.00  0.00     0.169 HD
BRANCH  12  15
HETATM   15  C   UNL     1       9.367  29.809  57.892  1.00  0.00     0.141 C 
BRANCH  15  16
HETATM   16  C   UNL     1       8.653  28.865  56.954  1.00  0.00    -0.049 A 
HETATM   17  C   UNL     1       8.533  29.148  55.587  1.00  0.00     0.008 A 
HETATM   18  C   UNL     1       7.921  28.236  54.723  1.00  0.00     0.007 A 
HETATM   19  C   UNL     1       7.440  27.010  55.200  1.00  0.00    -0.058 A 
HETATM   20  C   UNL     1       7.567  26.724  56.564  1.00  0.00     0.007 A 
HETATM   21  C   UNL     1       8.171  27.638  57.431  1.00  0.00     0.008 A 
BRANCH  19  22
HETATM   22  C   UNL     1       6.809  26.011  54.260  1.00  0.00     0.042 C 
BRANCH  22  23
HETATM   23  C   UNL     1       7.744  24.926  53.685  1.00  0.00    -0.019 C 
HETATM   24  C   UNL     1       7.887  25.008  52.164  1.00  0.00     0.010 C 
HETATM   25  C   UNL     1       7.349  23.511  54.108  1.00  0.00     0.010 C 
ENDBRANCH  22  23
ENDBRANCH  19  22
ENDBRANCH  15  16
ENDBRANCH  12  15
ENDBRANCH   1  11
BRANCH   8  26
HETATM   26  C   UNL     1       3.579  32.607  61.977  1.00  0.00     0.270 C 
HETATM   27  N   UNL     1       3.189  31.296  61.923  1.00  0.00    -0.365 N 
HETATM   28  H   UNL     1       3.790  30.594  62.338  1.00  0.00     0.159 HD
HETATM   29  H   UNL     1       2.318  31.054  61.481  1.00  0.00     0.159 HD
HETATM   30  O   UNL     1       2.885  33.494  61.493  1.00  0.00    -0.266 OA
ENDBRANCH   8  26
TORSDOF 6
ENDMDL
MODEL 8
REMARK VINA RESULT:      -8.2      2.945      9.560
REMARK  6 active torsions:
REMARK  status: ('A' for Active; 'I' for Inactive)
REMARK    1  A    between atoms: C_2  and  C_3 
REMARK    2  A    between atoms: C_3  and  C_4 
REMARK    3  A    between atoms: C_7  and  C_8 
REMARK    4  A    between atoms: C_8  and  C_9 
REMARK       I    between atoms: C_9  and  N_10 
REMARK    5  A    between atoms: N_10  and  C_11 
REMARK    6  A    between atoms: C_18  and  C_19 
REMARK       I    between atoms: C_19  and  N_20 
ROOT
HETATM    1  C   UNL     1       7.475  27.626  56.414  1.00  0.00     0.035 A 
HETATM    2  C   UNL     1       6.856  27.086  55.279  1.00  0.00     0.046 A 
HETATM    3  C   UNL     1       6.928  25.697  55.037  1.00  0.00     0.030 A 
HETATM    4  C   UNL     1       7.618  24.895  55.937  1.00  0.00     0.063 A 
HETATM    5  N   UNL     1       7.515  23.625  55.444  1.00  0.00    -0.277 N 
HETATM    6  H   UNL     1       7.901  22.777  55.845  1.00  0.00     0.189 HD
HETATM    7  N   UNL     1       6.817  23.525  54.301  1.00  0.00    -0.168 NA
HETATM    8  C   UNL     1       6.446  24.799  54.036  1.00  0.00     0.156 A 
HETATM    9  C   UNL     1       8.247  25.397  57.078  1.00  0.00     0.034 A 
HETATM   10  C   UNL     1       8.158  26.777  57.297  1.00  0.00     0.032 A 
ENDROOT
BRANCH   1  11
HETATM   11  N   UNL     1       7.443  28.998  56.749  1.00  0.00    -0.327 N 
HETATM   12  C   UNL     1       6.392  29.707  57.306  1.00  0.00     0.226 C 
HETATM   13  O   UNL     1       5.274  29.273  57.563  1.00  0.00    -0.273 OA
HETATM   14  H   UNL     1       8.266  29.538  56.507  1.00  0.00     0.169 HD
BRANCH  12  15
HETATM   15  C   UNL     1       6.755  31.146  57.639  1.00  0.00     0.141 C 
BRANCH  15  16
HETATM   16  C   UNL     1       7.017  31.416  59.102  1.00  0.00    -0.049 A 
HETATM   17  C   UNL     1       8.094  30.820  59.771  1.00  0.00     0.008 A 
HETATM   18  C   UNL     1       8.358  31.126  61.108  1.00  0.00     0.007 A 
HETATM   19  C   UNL     1       7.568  32.054  61.800  1.00  0.00    -0.058 A 
HETATM   20  C   UNL     1       6.496  32.655  61.129  1.00  0.00     0.007 A 
HETATM   21  C   UNL     1       6.226  32.344  59.794  1.00  0.00     0.008 A 
BRANCH  19  22
HETATM   22  C   UNL     1       7.872  32.409  63.235  1.00  0.00     0.042 C 
BRANCH  22  23
HETATM   23  C   UNL     1       6.899  33.394  63.918  1.00  0.00    -0.019 C 
HETATM   24  C   UNL     1       7.449  33.962  65.228  1.00  0.00     0.010 C 
HETATM   25  C   UNL     1       5.506  32.804  64.135  1.00  0.00     0.010 C 
ENDBRANCH  22  23
ENDBRANCH  19  22
ENDBRANCH  15  16
ENDBRANCH  12  15
ENDBRANCH   1  11
BRANCH   8  26
HETATM   26  C   UNL     1       5.645  25.125  52.847  1.00  0.00     0.270 C 
HETATM   27  N   UNL     1       4.295  25.140  53.071  1.00  0.00    -0.365 N 
HETATM   28  H   UNL     1       3.955  24.936  54.003  1.00  0.00     0.159 HD
HETATM   29  H   UNL     1       3.667  25.356  52.314  1.00  0.00     0.159 HD
HETATM   30  O   UNL     1       6.105  25.369  51.738  1.00  0.00    -0.266 OA
ENDBRANCH   8  26
TORSDOF 6
ENDMDL
MODEL 9
REMARK VINA RESULT:      -8.0      2.623      4.049
REMARK  6 active torsions:
REMARK  status: ('A' for Active; 'I' for Inactive)
REMARK    1  A    between atoms: C_2  and  C_3 
REMARK    2  A    between atoms: C_3  and  C_4 
REMARK    3  A    between atoms: C_7  and  C_8 
REMARK    4  A    between atoms: C_8  and  C_9 
REMARK       I    between atoms: C_9  and  N_10 
REMARK    5  A    between atoms: N_10  and  C_11 
REMARK    6  A    between atoms: C_18  and  C_19 
REMARK       I    between atoms: C_19  and  N_20 
ROOT
HETATM    1  C   UNL     1       8.234  28.554  57.274  1.00  0.00     0.035 A 
HETATM    2  C   UNL     1       7.788  29.331  58.351  1.00  0.00     0.046 A 
HETATM    3  C   UNL     1       8.560  30.430  58.788  1.00  0.00     0.030 A 
HETATM    4  C   UNL     1       9.753  30.711  58.137  1.00  0.00     0.063 A 
HETATM    5  N   UNL     1      10.264  31.807  58.773  1.00  0.00    -0.277 N 
HETATM    6  H   UNL     1      11.130  32.292  58.563  1.00  0.00     0.189 HD
HETATM    7  N   UNL     1       9.510  32.267  59.784  1.00  0.00    -0.168 NA
HETATM    8  C   UNL     1       8.450  31.426  59.806  1.00  0.00     0.156 A 
HETATM    9  C   UNL     1      10.230  29.960  57.061  1.00  0.00     0.034 A 
HETATM   10  C   UNL     1       9.444  28.878  56.644  1.00  0.00     0.032 A 
ENDROOT
BRANCH   1  11
HETATM   11  N   UNL     1       7.524  27.449  56.755  1.00  0.00    -0.327 N 
HETATM   12  C   UNL     1       6.163  27.356  56.517  1.00  0.00     0.226 C 
HETATM   13  O   UNL     1       5.319  28.210  56.767  1.00  0.00    -0.273 OA
HETATM   14  H   UNL     1       8.064  26.609  56.583  1.00  0.00     0.169 HD
BRANCH  12  15
HETATM   15  C   UNL     1       5.764  26.052  55.843  1.00  0.00     0.141 C 
BRANCH  15  16
HETATM   16  C   UNL     1       5.577  26.139  54.346  1.00  0.00    -0.049 A 
HETATM   17  C   UNL     1       5.910  27.300  53.637  1.00  0.00     0.008 A 
HETATM   18  C   UNL     1       5.786  27.343  52.246  1.00  0.00     0.007 A 
HETATM   19  C   UNL     1       5.352  26.220  51.530  1.00  0.00    -0.058 A 
HETATM   20  C   UNL     1       5.027  25.058  52.239  1.00  0.00     0.007 A 
HETATM   21  C   UNL     1       5.142  25.015  53.631  1.00  0.00     0.008 A 
BRANCH  19  22
HETATM   22  C   UNL     1       5.249  26.257  50.025  1.00  0.00     0.042 C 
BRANCH  22  23
HETATM   23  C   UNL     1       3.862  26.600  49.440  1.00  0.00    -0.019 C 
HETATM   24  C   UNL     1       3.563  25.855  48.138  1.00  0.00     0.010 C 
HETATM   25  C   UNL     1       3.646  28.102  49.258  1.00  0.00     0.010 C 
ENDBRANCH  22  23
ENDBRANCH  19  22
ENDBRANCH  15  16
ENDBRANCH  12  15
ENDBRANCH   1  11
BRANCH   8  26
HETATM   26  C   UNL     1       7.367  31.593  60.786  1.00  0.00     0.270 C 
HETATM   27  N   UNL     1       7.538  30.871  61.936  1.00  0.00    -0.365 N 
HETATM   28  H   UNL     1       8.367  30.296  62.029  1.00  0.00     0.159 HD
HETATM   29  H   UNL     1       6.846  30.924  62.665  1.00  0.00     0.159 HD
HETATM   30  O   UNL     1       6.383  32.306  60.627  1.00  0.00    -0.266 OA
ENDBRANCH   8  26
TORSDOF 6
ENDMDL
MODEL 10
REMARK VINA RESULT:      -7.9      3.385      6.581
REMARK  6 active torsions:
REMARK  status: ('A' for Active; 'I' for Inactive)
REMARK    1  A    between atoms: C_2  and  C_3 
REMARK    2  A    between atoms: C_3  and  C_4 
REMARK    3  A    between atoms: C_7  and  C_8 
REMARK    4  A    between atoms: C_8  and  C_9 
REMARK       I    between atoms: C_9  and  N_10 
REMARK    5  A    between atoms: N_10  and  C_11 
REMARK    6  A    between atoms: C_18  and  C_19 
REMARK       I    between atoms: C_19  and  N_20 
ROOT
HETATM    1  C   UNL     1       6.304  32.657  61.192  1.00  0.00     0.035 A 
HETATM    2  C   UNL     1       6.432  33.097  62.516  1.00  0.00     0.046 A 
HETATM    3  C   UNL     1       5.275  33.396  63.269  1.00  0.00     0.030 A 
HETATM    4  C   UNL     1       4.031  33.248  62.670  1.00  0.00     0.063 A 
HETATM    5  N   UNL     1       3.123  33.606  63.628  1.00  0.00    -0.277 N 
HETATM    6  H   UNL     1       2.113  33.619  63.542  1.00  0.00     0.189 HD
HETATM    7  N   UNL     1       3.665  33.975  64.799  1.00  0.00    -0.168 NA
HETATM    8  C   UNL     1       4.996  33.850  64.595  1.00  0.00     0.156 A 
HETATM    9  C   UNL     1       3.864  32.812  61.355  1.00  0.00     0.034 A 
HETATM   10  C   UNL     1       5.027  32.519  60.631  1.00  0.00     0.032 A 
ENDROOT
BRANCH   1  11
HETATM   11  N   UNL     1       7.400  32.318  60.368  1.00  0.00    -0.327 N 
HETATM   12  C   UNL     1       8.419  31.422  60.645  1.00  0.00     0.226 C 
HETATM   13  O   UNL     1       8.578  30.797  61.688  1.00  0.00    -0.273 OA
HETATM   14  H   UNL     1       7.478  32.825  59.494  1.00  0.00     0.169 HD
BRANCH  12  15
HETATM   15  C   UNL     1       9.370  31.221  59.474  1.00  0.00     0.141 C 
BRANCH  15  16
HETATM   16  C   UNL     1       8.918  30.203  58.453  1.00  0.00    -0.049 A 
HETATM   17  C   UNL     1       9.799  29.702  57.486  1.00  0.00     0.008 A 
HETATM   18  C   UNL     1       9.381  28.717  56.586  1.00  0.00     0.007 A 
HETATM   19  C   UNL     1       8.084  28.193  56.650  1.00  0.00    -0.058 A 
HETATM   20  C   UNL     1       7.207  28.688  57.622  1.00  0.00     0.007 A 
HETATM   21  C   UNL     1       7.620  29.679  58.517  1.00  0.00     0.008 A 
BRANCH  19  22
HETATM   22  C   UNL     1       7.644  27.106  55.700  1.00  0.00     0.042 C 
BRANCH  22  23
HETATM   23  C   UNL     1       7.474  25.695  56.304  1.00  0.00    -0.019 C 
HETATM   24  C   UNL     1       6.058  25.435  56.822  1.00  0.00     0.010 C 
HETATM   25  C   UNL     1       8.505  25.382  57.388  1.00  0.00     0.010 C 
ENDBRANCH  22  23
ENDBRANCH  19  22
ENDBRANCH  15  16
ENDBRANCH  12  15
ENDBRANCH   1  11
BRANCH   8  26
HETATM   26  C   UNL     1       5.962  34.159  65.659  1.00  0.00     0.270 C 
HETATM   27  N   UNL     1       5.584  35.193  66.472  1.00  0.00    -0.365 N 
HETATM   28  H   UNL     1       4.699  35.652  66.293  1.00  0.00     0.159 HD
HETATM   29  H   UNL     1       6.183  35.475  67.231  1.00  0.00     0.159 HD
HETATM   30  O   UNL     1       7.021  33.569  65.836  1.00  0.00    -0.266 OA
ENDBRANCH   8  26
TORSDOF 6
ENDMDL
