MODEL 1
REMARK VINA RESULT:     -10.2      0.000      0.000
REMARK  4 active torsions:
REMARK  status: ('A' for Active; 'I' for Inactive)
REMARK    1  A    between atoms: C_2  and  O_3 
REMARK    2  A    between atoms: O_3  and  C_4 
REMARK    3  A    between atoms: C_9  and  N_10 
REMARK       I    between atoms: N_10  and  C_11 
REMARK       I    between atoms: C_11  and  N_12 
REMARK       I    between atoms: N_12  and  C_13 
REMARK    4  A    between atoms: C_13  and  C_14 
ROOT
HETATM    1  N   UNL     1       8.393  29.187  57.882  1.00  0.00    -0.019 N 
HETATM    2  C   UNL     1       7.432  30.123  58.242  1.00  0.00     0.693 C 
HETATM    3  N   UNL     1       7.625  30.908  59.343  1.00  0.00    -0.155 N 
HETATM    4  C   UNL     1       6.681  31.852  59.841  1.00  0.00     0.269 C 
HETATM    5  O   UNL     1       5.712  32.168  59.165  1.00  0.00    -0.267 OA
HETATM    6  N   UNL     1       6.286  30.223  57.530  1.00  0.00    -0.234 N 
HETATM    7  H   UNL     1       6.125  29.560  56.770  1.00  0.00     0.174 HD
HETATM    8  H   UNL     1       5.577  30.922  57.753  1.00  0.00     0.174 HD
HETATM    9  H   UNL     1       9.266  29.131  58.379  1.00  0.00     0.203 HD
HETATM   10  H   UNL     1       8.485  30.784  59.853  1.00  0.00     0.187 HD
ENDROOT
BRANCH   1  11
HETATM   11  C   UNL     1       8.228  28.087  57.058  1.00  0.00     0.742 A 
HETATM   12  N   UNL     1       8.532  26.901  57.582  1.00  0.00    -0.062 NA
HETATM   13  C   UNL     1       8.259  25.808  56.856  1.00  0.00     0.088 A 
HETATM   14  C   UNL     1       7.658  25.870  55.593  1.00  0.00     0.021 A 
HETATM   15  C   UNL     1       8.561  24.555  57.378  1.00  0.00     0.036 A 
HETATM   16  C   UNL     1       7.339  24.675  54.907  1.00  0.00     0.052 A 
HETATM   17  C   UNL     1       7.408  27.162  55.120  1.00  0.00     0.062 A 
HETATM   18  C   UNL     1       7.604  23.429  55.471  1.00  0.00     0.069 A 
HETATM   19  C   UNL     1       8.244  23.370  56.701  1.00  0.00     0.039 A 
HETATM   20  N   UNL     1       7.698  28.271  55.841  1.00  0.00    -0.066 NA
HETATM   21  C   UNL     1       6.758  27.404  53.787  1.00  0.00     0.072 C 
BRANCH  18  22
HETATM   22  O   UNL     1       7.199  22.362  54.723  1.00  0.00    -0.351 OA
BRANCH  22  23
HETATM   23  C   UNL     1       7.763  22.239  53.417  1.00  0.00     0.171 C 
HETATM   24  C   UNL     1       8.013  20.765  53.154  1.00  0.00     0.034 C 
ENDBRANCH  22  23
ENDBRANCH  18  22
ENDBRANCH   1  11
BRANCH   4  25
HETATM   25  C   UNL     1       6.899  32.380  61.206  1.00  0.00     0.032 A 
HETATM   26  C   UNL     1       7.895  31.857  62.041  1.00  0.00     0.017 A 
HETATM   27  C   UNL     1       8.012  32.319  63.356  1.00  0.00     0.007 A 
HETATM   28  C   UNL     1       7.141  33.299  63.846  1.00  0.00    -0.062 A 
HETATM   29  C   UNL     1       7.229  33.763  65.272  1.00  0.00     0.048 C 
HETATM   30  C   UNL     1       6.149  33.816  63.006  1.00  0.00     0.007 A 
HETATM   31  C   UNL     1       6.024  33.358  61.693  1.00  0.00     0.017 A 
ENDBRANCH   4  25
TORSDOF 4
ENDMDL
MODEL 2
REMARK VINA RESULT:      -9.9      0.825      1.987
REMARK  4 active torsions:
REMARK  status: ('A' for Active; 'I' for Inactive)
REMARK    1  A    between atoms: C_2  and  O_3 
REMARK    2  A    between atoms: O_3  and  C_4 
REMARK    3  A    between atoms: C_9  and  N_10 
REMARK       I    between atoms: N_10  and  C_11 
REMARK       I    between atoms: C_11  and  N_12 
REMARK       I    between atoms: N_12  and  C_13 
REMARK    4  A    between atoms: C_13  and  C_14 
ROOT
HETATM    1  N   UNL     1       8.221  28.707  57.892  1.00  0.00    -0.019 N 
HETATM    2  C   UNL     1       7.264  29.654  58.229  1.00  0.00     0.693 C 
HETATM    3  N   UNL     1       7.509  30.540  59.241  1.00  0.00    -0.155 N 
HETATM    4  C   UNL     1       6.577  31.508  59.713  1.00  0.00     0.269 C 
HETATM    5  O   UNL     1       5.560  31.745  59.077  1.00  0.00    -0.267 OA
HETATM    6  N   UNL     1       6.074  29.671  57.588  1.00  0.00    -0.234 N 
HETATM    7  H   UNL     1       5.879  28.939  56.902  1.00  0.00     0.174 HD
HETATM    8  H   UNL     1       5.365  30.375  57.793  1.00  0.00     0.174 HD
HETATM    9  H   UNL     1       9.126  28.711  58.334  1.00  0.00     0.203 HD
HETATM   10  H   UNL     1       8.402  30.477  59.703  1.00  0.00     0.187 HD
ENDROOT
BRANCH   1  11
HETATM   11  C   UNL     1       8.029  27.535  57.181  1.00  0.00     0.742 A 
HETATM   12  N   UNL     1       7.686  27.666  55.901  1.00  0.00    -0.062 NA
HETATM   13  C   UNL     1       7.622  26.554  55.154  1.00  0.00     0.088 A 
HETATM   14  C   UNL     1       7.917  25.284  55.662  1.00  0.00     0.021 A 
HETATM   15  C   UNL     1       7.272  26.660  53.812  1.00  0.00     0.036 A 
HETATM   16  C   UNL     1       7.891  24.160  54.803  1.00  0.00     0.052 A 
HETATM   17  C   UNL     1       8.235  25.251  57.023  1.00  0.00     0.062 A 
HETATM   18  C   UNL     1       7.586  24.295  53.450  1.00  0.00     0.069 A 
HETATM   19  C   UNL     1       7.248  25.548  52.959  1.00  0.00     0.039 A 
HETATM   20  N   UNL     1       8.284  26.368  57.787  1.00  0.00    -0.066 NA
HETATM   21  C   UNL     1       8.587  23.967  57.722  1.00  0.00     0.072 C 
BRANCH  18  22
HETATM   22  O   UNL     1       7.648  23.138  52.729  1.00  0.00    -0.351 OA
BRANCH  22  23
HETATM   23  C   UNL     1       8.458  22.089  53.263  1.00  0.00     0.171 C 
HETATM   24  C   UNL     1       7.818  20.766  52.881  1.00  0.00     0.034 C 
ENDBRANCH  22  23
ENDBRANCH  18  22
ENDBRANCH   1  11
BRANCH   4  25
HETATM   25  C   UNL     1       6.870  32.161  61.009  1.00  0.00     0.032 A 
HETATM   26  C   UNL     1       7.924  31.728  61.824  1.00  0.00     0.017 A 
HETATM   27  C   UNL     1       8.114  32.309  63.081  1.00  0.00     0.007 A 
HETATM   28  C   UNL     1       7.258  33.319  63.535  1.00  0.00    -0.062 A 
HETATM   29  C   UNL     1       7.425  33.912  64.906  1.00  0.00     0.048 C 
HETATM   30  C   UNL     1       6.207  33.745  62.716  1.00  0.00     0.007 A 
HETATM   31  C   UNL     1       6.009  33.168  61.461  1.00  0.00     0.017 A 
ENDBRANCH   4  25
TORSDOF 4
ENDMDL
MODEL 3
REMARK VINA RESULT:      -9.5      6.156     10.607
REMARK  4 active torsions:
REMARK  status: ('A' for Active; 'I' for Inactive)
REMARK    1  A    between atoms: C_2  and  O_3 
REMARK    2  A    between atoms: O_3  and  C_4 
REMARK    3  A    between atoms: C_9  and  N_10 
REMARK       I    between atoms: N_10  and  C_11 
REMARK       I    between atoms: C_11  and  N_12 
REMARK       I    between atoms: N_12  and  C_13 
REMARK    4  A    between atoms: C_13  and  C_14 
ROOT
HETATM    1  N   UNL     1       4.364  26.953  52.099  1.00  0.00    -0.019 N 
HETATM    2  C   UNL     1       4.614  27.168  50.750  1.00  0.00     0.693 C 
HETATM    3  N   UNL     1       3.634  27.681  49.949  1.00  0.00    -0.155 N 
HETATM    4  C   UNL     1       3.757  27.882  48.544  1.00  0.00     0.269 C 
HETATM    5  O   UNL     1       4.852  27.801  48.005  1.00  0.00    -0.267 OA
HETATM    6  N   UNL     1       5.811  26.827  50.222  1.00  0.00    -0.234 N 
HETATM    7  H   UNL     1       6.493  26.357  50.821  1.00  0.00     0.174 HD
HETATM    8  H   UNL     1       6.034  27.002  49.242  1.00  0.00     0.174 HD
HETATM    9  H   UNL     1       3.492  27.241  52.511  1.00  0.00     0.203 HD
HETATM   10  H   UNL     1       2.752  27.902  50.383  1.00  0.00     0.187 HD
ENDROOT
BRANCH   1  11
HETATM   11  C   UNL     1       5.067  26.132  52.963  1.00  0.00     0.742 A 
HETATM   12  N   UNL     1       5.751  25.133  52.409  1.00  0.00    -0.062 NA
HETATM   13  C   UNL     1       6.545  24.402  53.204  1.00  0.00     0.088 A 
HETATM   14  C   UNL     1       6.690  24.661  54.572  1.00  0.00     0.021 A 
HETATM   15  C   UNL     1       7.277  23.355  52.653  1.00  0.00     0.036 A 
HETATM   16  C   UNL     1       7.594  23.891  55.342  1.00  0.00     0.052 A 
HETATM   17  C   UNL     1       5.905  25.710  55.062  1.00  0.00     0.062 A 
HETATM   18  C   UNL     1       8.354  22.880  54.759  1.00  0.00     0.069 A 
HETATM   19  C   UNL     1       8.174  22.593  53.413  1.00  0.00     0.039 A 
HETATM   20  N   UNL     1       5.087  26.440  54.267  1.00  0.00    -0.066 NA
HETATM   21  C   UNL     1       5.950  26.124  56.506  1.00  0.00     0.072 C 
BRANCH  18  22
HETATM   22  O   UNL     1       9.221  22.253  55.606  1.00  0.00    -0.351 OA
BRANCH  22  23
HETATM   23  C   UNL     1       9.232  20.825  55.576  1.00  0.00     0.171 C 
HETATM   24  C   UNL     1       7.961  20.334  56.246  1.00  0.00     0.034 C 
ENDBRANCH  22  23
ENDBRANCH  18  22
ENDBRANCH   1  11
BRANCH   4  25
HETATM   25  C   UNL     1       2.516  28.136  47.779  1.00  0.00     0.032 A 
HETATM   26  C   UNL     1       1.932  29.408  47.737  1.00  0.00     0.017 A 
HETATM   27  C   UNL     1       0.711  29.590  47.079  1.00  0.00     0.007 A 
HETATM   28  C   UNL     1       0.066  28.511  46.464  1.00  0.00    -0.062 A 
HETATM   29  C   UNL     1      -1.270  28.689  45.800  1.00  0.00     0.048 C 
HETATM   30  C   UNL     1       0.656  27.243  46.512  1.00  0.00     0.007 A 
HETATM   31  C   UNL     1       1.872  27.052  47.169  1.00  0.00     0.017 A 
ENDBRANCH   4  25
TORSDOF 4
ENDMDL
MODEL 4
REMARK VINA RESULT:      -9.5      1.320      2.432
REMARK  4 active torsions:
REMARK  status: ('A' for Active; 'I' for Inactive)
REMARK    1  A    between atoms: C_2  and  O_3 
REMARK    2  A    between atoms: O_3  and  C_4 
REMARK    3  A    between atoms: C_9  and  N_10 
REMARK       I    between atoms: N_10  and  C_11 
REMARK       I    between atoms: C_11  and  N_12 
REMARK       I    between atoms: N_12  and  C_13 
REMARK    4  A    between atoms: C_13  and  C_14 
ROOT
HETATM    1  N   UNL     1       7.799  29.709  58.652  1.00  0.00    -0.019 N 
HETATM    2  C   UNL     1       6.923  30.720  59.024  1.00  0.00     0.693 C 
HETATM    3  N   UNL     1       7.158  31.442  60.160  1.00  0.00    -0.155 N 
HETATM    4  C   UNL     1       6.295  32.454  60.671  1.00  0.00     0.269 C 
HETATM    5  O   UNL     1       5.382  32.887  59.983  1.00  0.00    -0.267 OA
HETATM    6  N   UNL     1       5.814  30.959  58.287  1.00  0.00    -0.234 N 
HETATM    7  H   UNL     1       5.612  30.343  57.497  1.00  0.00     0.174 HD
HETATM    8  H   UNL     1       5.170  31.715  58.519  1.00  0.00     0.174 HD
HETATM    9  H   UNL     1       8.648  29.550  59.170  1.00  0.00     0.203 HD
HETATM   10  H   UNL     1       7.986  31.215  60.688  1.00  0.00     0.187 HD
ENDROOT
BRANCH   1  11
HETATM   11  C   UNL     1       7.554  28.663  57.780  1.00  0.00     0.742 A 
HETATM   12  N   UNL     1       7.014  28.983  56.605  1.00  0.00    -0.062 NA
HETATM   13  C   UNL     1       6.886  28.011  55.690  1.00  0.00     0.088 A 
HETATM   14  C   UNL     1       7.311  26.697  55.920  1.00  0.00     0.021 A 
HETATM   15  C   UNL     1       6.332  28.315  54.452  1.00  0.00     0.036 A 
HETATM   16  C   UNL     1       7.205  25.734  54.888  1.00  0.00     0.052 A 
HETATM   17  C   UNL     1       7.834  26.458  57.194  1.00  0.00     0.062 A 
HETATM   18  C   UNL     1       6.692  26.072  53.638  1.00  0.00     0.069 A 
HETATM   19  C   UNL     1       6.228  27.364  53.429  1.00  0.00     0.039 A 
HETATM   20  N   UNL     1       7.949  27.431  58.129  1.00  0.00    -0.066 NA
HETATM   21  C   UNL     1       8.344  25.103  57.599  1.00  0.00     0.072 C 
BRANCH  18  22
HETATM   22  O   UNL     1       6.695  25.061  52.723  1.00  0.00    -0.351 OA
BRANCH  22  23
HETATM   23  C   UNL     1       7.947  24.419  52.476  1.00  0.00     0.171 C 
HETATM   24  C   UNL     1       7.799  22.952  52.838  1.00  0.00     0.034 C 
ENDBRANCH  22  23
ENDBRANCH  18  22
ENDBRANCH   1  11
BRANCH   4  25
HETATM   25  C   UNL     1       6.523  32.907  62.061  1.00  0.00     0.032 A 
HETATM   26  C   UNL     1       7.710  32.608  62.741  1.00  0.00     0.017 A 
HETATM   27  C   UNL     1       7.852  32.975  64.084  1.00  0.00     0.007 A 
HETATM   28  C   UNL     1       6.817  33.635  64.755  1.00  0.00    -0.062 A 
HETATM   29  C   UNL     1       6.943  33.986  66.210  1.00  0.00     0.048 C 
HETATM   30  C   UNL     1       5.633  33.928  64.069  1.00  0.00     0.007 A 
HETATM   31  C   UNL     1       5.482  33.563  62.730  1.00  0.00     0.017 A 
ENDBRANCH   4  25
TORSDOF 4
ENDMDL
MODEL 5
REMARK VINA RESULT:      -9.0      2.142     10.297
REMARK  4 active torsions:
REMARK  status: ('A' for Active; 'I' for Inactive)
REMARK    1  A    between atoms: C_2  and  O_3 
REMARK    2  A    between atoms: O_3  and  C_4 
REMARK    3  A    between atoms: C_9  and  N_10 
REMARK       I    between atoms: N_10  and  C_11 
REMARK       I    between atoms: C_11  and  N_12 
REMARK       I    between atoms: N_12  and  C_13 
REMARK    4  A    between atoms: C_13  and  C_14 
ROOT
HETATM    1  N   UNL     1       5.697  28.346  56.653  1.00  0.00    -0.019 N 
HETATM    2  C   UNL     1       6.414  27.935  55.537  1.00  0.00     0.693 C 
HETATM    3  N   UNL     1       6.448  26.612  55.198  1.00  0.00    -0.155 N 
HETATM    4  C   UNL     1       7.201  26.071  54.117  1.00  0.00     0.269 C 
HETATM    5  O   UNL     1       7.699  26.814  53.283  1.00  0.00    -0.267 OA
HETATM    6  N   UNL     1       7.114  28.838  54.814  1.00  0.00    -0.234 N 
HETATM    7  H   UNL     1       7.150  29.804  55.143  1.00  0.00     0.174 HD
HETATM    8  H   UNL     1       7.624  28.570  53.972  1.00  0.00     0.174 HD
HETATM    9  H   UNL     1       5.139  27.690  57.175  1.00  0.00     0.203 HD
HETATM   10  H   UNL     1       5.926  25.974  55.778  1.00  0.00     0.187 HD
ENDROOT
BRANCH   1  11
HETATM   11  C   UNL     1       5.835  29.534  57.350  1.00  0.00     0.742 A 
HETATM   12  N   UNL     1       4.711  30.194  57.625  1.00  0.00    -0.062 NA
HETATM   13  C   UNL     1       4.799  31.278  58.410  1.00  0.00     0.088 A 
HETATM   14  C   UNL     1       6.010  31.719  58.956  1.00  0.00     0.021 A 
HETATM   15  C   UNL     1       3.643  31.985  58.720  1.00  0.00     0.036 A 
HETATM   16  C   UNL     1       6.023  32.833  59.829  1.00  0.00     0.052 A 
HETATM   17  C   UNL     1       7.134  30.976  58.582  1.00  0.00     0.062 A 
HETATM   18  C   UNL     1       4.845  33.497  60.165  1.00  0.00     0.069 A 
HETATM   19  C   UNL     1       3.653  33.087  59.585  1.00  0.00     0.039 A 
HETATM   20  N   UNL     1       7.054  29.892  57.774  1.00  0.00    -0.066 NA
HETATM   21  C   UNL     1       8.509  31.311  59.088  1.00  0.00     0.072 C 
BRANCH  18  22
HETATM   22  O   UNL     1       4.997  34.520  61.055  1.00  0.00    -0.351 OA
BRANCH  22  23
HETATM   23  C   UNL     1       5.725  34.231  62.250  1.00  0.00     0.171 C 
HETATM   24  C   UNL     1       4.738  33.725  63.287  1.00  0.00     0.034 C 
ENDBRANCH  22  23
ENDBRANCH  18  22
ENDBRANCH   1  11
BRANCH   4  25
HETATM   25  C   UNL     1       7.388  24.603  54.082  1.00  0.00     0.032 A 
HETATM   26  C   UNL     1       7.325  23.831  55.250  1.00  0.00     0.017 A 
HETATM   27  C   UNL     1       7.596  22.461  55.191  1.00  0.00     0.007 A 
HETATM   28  C   UNL     1       7.934  21.854  53.976  1.00  0.00    -0.062 A 
HETATM   29  C   UNL     1       8.276  20.391  53.915  1.00  0.00     0.048 C 
HETATM   30  C   UNL     1       7.996  22.632  52.815  1.00  0.00     0.007 A 
HETATM   31  C   UNL     1       7.729  24.001  52.866  1.00  0.00     0.017 A 
ENDBRANCH   4  25
TORSDOF 4
ENDMDL
MODEL 6
REMARK VINA RESULT:      -8.7      1.862      2.335
REMARK  4 active torsions:
REMARK  status: ('A' for Active; 'I' for Inactive)
REMARK    1  A    between atoms: C_2  and  O_3 
REMARK    2  A    between atoms: O_3  and  C_4 
REMARK    3  A    between atoms: C_9  and  N_10 
REMARK       I    between atoms: N_10  and  C_11 
REMARK       I    between atoms: C_11  and  N_12 
REMARK       I    between atoms: N_12  and  C_13 
REMARK    4  A    between atoms: C_13  and  C_14 
ROOT
HETATM    1  N   UNL     1       7.788  30.733  58.716  1.00  0.00    -0.019 N 
HETATM    2  C   UNL     1       6.675  31.303  59.320  1.00  0.00     0.693 C 
HETATM    3  N   UNL     1       6.815  32.000  60.486  1.00  0.00    -0.155 N 
HETATM    4  C   UNL     1       5.738  32.569  61.225  1.00  0.00     0.269 C 
HETATM    5  O   UNL     1       4.624  32.647  60.727  1.00  0.00    -0.267 OA
HETATM    6  N   UNL     1       5.448  31.127  58.779  1.00  0.00    -0.234 N 
HETATM    7  H   UNL     1       5.358  30.523  57.961  1.00  0.00     0.174 HD
HETATM    8  H   UNL     1       4.618  31.560  59.184  1.00  0.00     0.174 HD
HETATM    9  H   UNL     1       8.711  30.891  59.087  1.00  0.00     0.203 HD
HETATM   10  H   UNL     1       7.746  32.088  60.863  1.00  0.00     0.187 HD
ENDROOT
BRANCH   1  11
HETATM   11  C   UNL     1       7.807  29.719  57.774  1.00  0.00     0.742 A 
HETATM   12  N   UNL     1       6.869  28.780  57.894  1.00  0.00    -0.062 NA
HETATM   13  C   UNL     1       6.779  27.859  56.924  1.00  0.00     0.088 A 
HETATM   14  C   UNL     1       7.612  27.863  55.799  1.00  0.00     0.021 A 
HETATM   15  C   UNL     1       5.807  26.869  57.018  1.00  0.00     0.036 A 
HETATM   16  C   UNL     1       7.422  26.899  54.781  1.00  0.00     0.052 A 
HETATM   17  C   UNL     1       8.582  28.870  55.784  1.00  0.00     0.062 A 
HETATM   18  C   UNL     1       6.409  25.946  54.872  1.00  0.00     0.069 A 
HETATM   19  C   UNL     1       5.616  25.915  56.010  1.00  0.00     0.039 A 
HETATM   20  N   UNL     1       8.690  29.792  56.770  1.00  0.00    -0.066 NA
HETATM   21  C   UNL     1       9.549  29.020  54.643  1.00  0.00     0.072 C 
BRANCH  18  22
HETATM   22  O   UNL     1       6.307  25.113  53.797  1.00  0.00    -0.351 OA
BRANCH  22  23
HETATM   23  C   UNL     1       7.466  24.976  52.974  1.00  0.00     0.171 C 
HETATM   24  C   UNL     1       7.794  23.497  52.872  1.00  0.00     0.034 C 
ENDBRANCH  22  23
ENDBRANCH  18  22
ENDBRANCH   1  11
BRANCH   4  25
HETATM   25  C   UNL     1       6.017  33.004  62.612  1.00  0.00     0.032 A 
HETATM   26  C   UNL     1       7.325  33.063  63.110  1.00  0.00     0.017 A 
HETATM   27  C   UNL     1       7.542  33.391  64.452  1.00  0.00     0.007 A 
HETATM   28  C   UNL     1       6.465  33.659  65.303  1.00  0.00    -0.062 A 
HETATM   29  C   UNL     1       6.689  33.962  66.758  1.00  0.00     0.048 C 
HETATM   30  C   UNL     1       5.161  33.597  64.799  1.00  0.00     0.007 A 
HETATM   31  C   UNL     1       4.935  33.267  63.461  1.00  0.00     0.017 A 
ENDBRANCH   4  25
TORSDOF 4
ENDMDL
MODEL 7
REMARK VINA RESULT:      -8.6      2.655     10.195
REMARK  4 active torsions:
REMARK  status: ('A' for Active; 'I' for Inactive)
REMARK    1  A    between atoms: C_2  and  O_3 
REMARK    2  A    between atoms: O_3  and  C_4 
REMARK    3  A    between atoms: C_9  and  N_10 
REMARK       I    between atoms: N_10  and  C_11 
REMARK       I    between atoms: C_11  and  N_12 
REMARK       I    between atoms: N_12  and  C_13 
REMARK    4  A    between atoms: C_13  and  C_14 
ROOT
HETATM    1  N   UNL     1       7.418  28.405  55.830  1.00  0.00    -0.019 N 
HETATM    2  C   UNL     1       7.599  27.198  56.491  1.00  0.00     0.693 C 
HETATM    3  N   UNL     1       7.862  26.063  55.777  1.00  0.00    -0.155 N 
HETATM    4  C   UNL     1       8.000  24.763  56.342  1.00  0.00     0.269 C 
HETATM    5  O   UNL     1       8.106  24.627  57.553  1.00  0.00    -0.267 OA
HETATM    6  N   UNL     1       7.471  27.137  57.836  1.00  0.00    -0.234 N 
HETATM    7  H   UNL     1       7.181  27.979  58.336  1.00  0.00     0.174 HD
HETATM    8  H   UNL     1       7.629  26.271  58.350  1.00  0.00     0.174 HD
HETATM    9  H   UNL     1       7.552  28.471  54.834  1.00  0.00     0.203 HD
HETATM   10  H   UNL     1       7.929  26.153  54.775  1.00  0.00     0.187 HD
ENDROOT
BRANCH   1  11
HETATM   11  C   UNL     1       6.804  29.546  56.317  1.00  0.00     0.742 A 
HETATM   12  N   UNL     1       5.738  29.979  55.646  1.00  0.00    -0.062 NA
HETATM   13  C   UNL     1       5.044  31.002  56.166  1.00  0.00     0.088 A 
HETATM   14  C   UNL     1       5.388  31.607  57.381  1.00  0.00     0.021 A 
HETATM   15  C   UNL     1       3.924  31.473  55.492  1.00  0.00     0.036 A 
HETATM   16  C   UNL     1       4.576  32.640  57.905  1.00  0.00     0.052 A 
HETATM   17  C   UNL     1       6.540  31.100  57.990  1.00  0.00     0.062 A 
HETATM   18  C   UNL     1       3.428  33.063  57.237  1.00  0.00     0.069 A 
HETATM   19  C   UNL     1       3.117  32.494  56.010  1.00  0.00     0.039 A 
HETATM   20  N   UNL     1       7.255  30.080  57.460  1.00  0.00    -0.066 NA
HETATM   21  C   UNL     1       7.040  31.633  59.304  1.00  0.00     0.072 C 
BRANCH  18  22
HETATM   22  O   UNL     1       2.713  34.030  57.880  1.00  0.00    -0.351 OA
BRANCH  22  23
HETATM   23  C   UNL     1       3.137  34.376  59.199  1.00  0.00     0.171 C 
HETATM   24  C   UNL     1       1.990  35.097  59.885  1.00  0.00     0.034 C 
ENDBRANCH  22  23
ENDBRANCH  18  22
ENDBRANCH   1  11
BRANCH   4  25
HETATM   25  C   UNL     1       7.959  23.608  55.417  1.00  0.00     0.032 A 
HETATM   26  C   UNL     1       7.939  22.291  55.894  1.00  0.00     0.017 A 
HETATM   27  C   UNL     1       7.992  21.225  54.990  1.00  0.00     0.007 A 
HETATM   28  C   UNL     1       8.067  21.462  53.614  1.00  0.00    -0.062 A 
HETATM   29  C   UNL     1       8.175  20.322  52.640  1.00  0.00     0.048 C 
HETATM   30  C   UNL     1       8.087  22.781  53.145  1.00  0.00     0.007 A 
HETATM   31  C   UNL     1       8.038  23.850  54.041  1.00  0.00     0.017 A 
ENDBRANCH   4  25
TORSDOF 4
ENDMDL
MODEL 8
REMARK VINA RESULT:      -8.4      1.866      3.011
REMARK  4 active torsions:
REMARK  status: ('A' for Active; 'I' for Inactive)
REMARK    1  A    between atoms: C_2  and  O_3 
REMARK    2  A    between atoms: O_3  and  C_4 
REMARK    3  A    between atoms: C_9  and  N_10 
REMARK       I    between atoms: N_10  and  C_11 
REMARK       I    between atoms: C_11  and  N_12 
REMARK       I    between atoms: N_12  and  C_13 
REMARK    4  A    between atoms: C_13  and  C_14 
ROOT
HETATM    1  N   UNL     1       6.074  29.934  57.343  1.00  0.00    -0.019 N 
HETATM    2  C   UNL     1       4.989  30.458  58.032  1.00  0.00     0.693 C 
HETATM    3  N   UNL     1       5.150  31.562  58.820  1.00  0.00    -0.155 N 
HETATM    4  C   UNL     1       4.126  32.144  59.620  1.00  0.00     0.269 C 
HETATM    5  O   UNL     1       2.961  31.801  59.473  1.00  0.00    -0.267 OA
HETATM    6  N   UNL     1       3.784  29.847  57.961  1.00  0.00    -0.234 N 
HETATM    7  H   UNL     1       3.712  28.969  57.443  1.00  0.00     0.174 HD
HETATM    8  H   UNL     1       2.963  30.227  58.431  1.00  0.00     0.174 HD
HETATM    9  H   UNL     1       6.965  30.403  57.356  1.00  0.00     0.203 HD
HETATM   10  H   UNL     1       6.070  31.972  58.857  1.00  0.00     0.187 HD
ENDROOT
BRANCH   1  11
HETATM   11  C   UNL     1       6.199  28.662  56.813  1.00  0.00     0.742 A 
HETATM   12  N   UNL     1       5.554  28.429  55.671  1.00  0.00    -0.062 NA
HETATM   13  C   UNL     1       5.761  27.250  55.065  1.00  0.00     0.088 A 
HETATM   14  C   UNL     1       6.632  26.281  55.576  1.00  0.00     0.021 A 
HETATM   15  C   UNL     1       5.106  26.980  53.868  1.00  0.00     0.036 A 
HETATM   16  C   UNL     1       6.853  25.085  54.853  1.00  0.00     0.052 A 
HETATM   17  C   UNL     1       7.234  26.610  56.794  1.00  0.00     0.062 A 
HETATM   18  C   UNL     1       6.224  24.855  53.631  1.00  0.00     0.069 A 
HETATM   19  C   UNL     1       5.325  25.797  53.150  1.00  0.00     0.039 A 
HETATM   20  N   UNL     1       7.015  27.790  57.419  1.00  0.00    -0.066 NA
HETATM   21  C   UNL     1       8.204  25.683  57.472  1.00  0.00     0.072 C 
BRANCH  18  22
HETATM   22  O   UNL     1       6.568  23.685  53.019  1.00  0.00    -0.351 OA
BRANCH  22  23
HETATM   23  C   UNL     1       7.946  23.315  53.064  1.00  0.00     0.171 C 
HETATM   24  C   UNL     1       8.022  21.800  53.119  1.00  0.00     0.034 C 
ENDBRANCH  22  23
ENDBRANCH  18  22
ENDBRANCH   1  11
BRANCH   4  25
HETATM   25  C   UNL     1       4.538  33.125  60.649  1.00  0.00     0.032 A 
HETATM   26  C   UNL     1       3.678  34.149  61.068  1.00  0.00     0.017 A 
HETATM   27  C   UNL     1       4.134  35.110  61.975  1.00  0.00     0.007 A 
HETATM   28  C   UNL     1       5.443  35.060  62.467  1.00  0.00    -0.062 A 
HETATM   29  C   UNL     1       5.955  36.119  63.403  1.00  0.00     0.048 C 
HETATM   30  C   UNL     1       6.296  34.035  62.043  1.00  0.00     0.007 A 
HETATM   31  C   UNL     1       5.850  33.074  61.135  1.00  0.00     0.017 A 
ENDBRANCH   4  25
TORSDOF 4
ENDMDL
MODEL 9
REMARK VINA RESULT:      -8.4      6.494      9.677
REMARK  4 active torsions:
REMARK  status: ('A' for Active; 'I' for Inactive)
REMARK    1  A    between atoms: C_2  and  O_3 
REMARK    2  A    between atoms: O_3  and  C_4 
REMARK    3  A    between atoms: C_9  and  N_10 
REMARK       I    between atoms: N_10  and  C_11 
REMARK       I    between atoms: C_11  and  N_12 
REMARK       I    between atoms: N_12  and  C_13 
REMARK    4  A    between atoms: C_13  and  C_14 
ROOT
HETATM    1  N   UNL     1       6.091  26.705  50.714  1.00  0.00    -0.019 N 
HETATM    2  C   UNL     1       5.031  27.554  50.423  1.00  0.00     0.693 C 
HETATM    3  N   UNL     1       5.156  28.483  49.429  1.00  0.00    -0.155 N 
HETATM    4  C   UNL     1       4.162  29.445  49.089  1.00  0.00     0.269 C 
HETATM    5  O   UNL     1       3.031  29.346  49.541  1.00  0.00    -0.267 OA
HETATM    6  N   UNL     1       3.895  27.493  51.153  1.00  0.00    -0.234 N 
HETATM    7  H   UNL     1       3.862  26.855  51.951  1.00  0.00     0.174 HD
HETATM    8  H   UNL     1       3.090  28.082  50.942  1.00  0.00     0.174 HD
HETATM    9  H   UNL     1       6.926  26.714  50.152  1.00  0.00     0.203 HD
HETATM   10  H   UNL     1       6.029  28.505  48.925  1.00  0.00     0.187 HD
ENDROOT
BRANCH   1  11
HETATM   11  C   UNL     1       6.292  25.980  51.876  1.00  0.00     0.742 A 
HETATM   12  N   UNL     1       7.059  24.896  51.774  1.00  0.00    -0.062 NA
HETATM   13  C   UNL     1       7.379  24.248  52.903  1.00  0.00     0.088 A 
HETATM   14  C   UNL     1       6.956  24.677  54.167  1.00  0.00     0.021 A 
HETATM   15  C   UNL     1       8.183  23.116  52.830  1.00  0.00     0.036 A 
HETATM   16  C   UNL     1       7.382  23.984  55.324  1.00  0.00     0.052 A 
HETATM   17  C   UNL     1       6.130  25.805  54.162  1.00  0.00     0.062 A 
HETATM   18  C   UNL     1       8.229  22.881  55.231  1.00  0.00     0.069 A 
HETATM   19  C   UNL     1       8.608  22.429  53.974  1.00  0.00     0.039 A 
HETATM   20  N   UNL     1       5.788  26.453  53.023  1.00  0.00    -0.066 NA
HETATM   21  C   UNL     1       5.597  26.401  55.435  1.00  0.00     0.072 C 
BRANCH  18  22
HETATM   22  O   UNL     1       8.602  22.340  56.426  1.00  0.00    -0.351 OA
BRANCH  22  23
HETATM   23  C   UNL     1       8.817  20.929  56.456  1.00  0.00     0.171 C 
HETATM   24  C   UNL     1       7.496  20.248  56.145  1.00  0.00     0.034 C 
ENDBRANCH  22  23
ENDBRANCH  18  22
ENDBRANCH   1  11
BRANCH   4  25
HETATM   25  C   UNL     1       4.572  30.573  48.222  1.00  0.00     0.032 A 
HETATM   26  C   UNL     1       4.370  30.539  46.836  1.00  0.00     0.017 A 
HETATM   27  C   UNL     1       4.852  31.583  46.040  1.00  0.00     0.007 A 
HETATM   28  C   UNL     1       5.537  32.659  46.614  1.00  0.00    -0.062 A 
HETATM   29  C   UNL     1       6.102  33.758  45.758  1.00  0.00     0.048 C 
HETATM   30  C   UNL     1       5.736  32.685  47.999  1.00  0.00     0.007 A 
HETATM   31  C   UNL     1       5.261  31.646  48.801  1.00  0.00     0.017 A 
ENDBRANCH   4  25
TORSDOF 4
ENDMDL
MODEL 10
REMARK VINA RESULT:      -8.4      3.919     10.391
REMARK  4 active torsions:
REMARK  status: ('A' for Active; 'I' for Inactive)
REMARK    1  A    between atoms: C_2  and  O_3 
REMARK    2  A    between atoms: O_3  and  C_4 
REMARK    3  A    between atoms: C_9  and  N_10 
REMARK       I    between atoms: N_10  and  C_11 
REMARK       I    between atoms: C_11  and  N_12 
REMARK       I    between atoms: N_12  and  C_13 
REMARK    4  A    between atoms: C_13  and  C_14 
ROOT
HETATM    1  N   UNL     1       4.347  27.614  54.554  1.00  0.00    -0.019 N 
HETATM    2  C   UNL     1       5.543  27.186  53.995  1.00  0.00     0.693 C 
HETATM    3  N   UNL     1       5.865  25.858  54.006  1.00  0.00    -0.155 N 
HETATM    4  C   UNL     1       7.090  25.316  53.522  1.00  0.00     0.269 C 
HETATM    5  O   UNL     1       7.848  26.008  52.858  1.00  0.00    -0.267 OA
HETATM    6  N   UNL     1       6.410  28.088  53.481  1.00  0.00    -0.234 N 
HETATM    7  H   UNL     1       6.190  29.082  53.571  1.00  0.00     0.174 HD
HETATM    8  H   UNL     1       7.282  27.800  53.037  1.00  0.00     0.174 HD
HETATM    9  H   UNL     1       3.676  26.948  54.902  1.00  0.00     0.203 HD
HETATM   10  H   UNL     1       5.197  25.225  54.417  1.00  0.00     0.187 HD
ENDROOT
BRANCH   1  11
HETATM   11  C   UNL     1       4.019  28.896  54.959  1.00  0.00     0.742 A 
HETATM   12  N   UNL     1       4.089  29.142  56.266  1.00  0.00    -0.062 NA
HETATM   13  C   UNL     1       3.906  30.405  56.676  1.00  0.00     0.088 A 
HETATM   14  C   UNL     1       3.666  31.460  55.787  1.00  0.00     0.021 A 
HETATM   15  C   UNL     1       3.978  30.694  58.034  1.00  0.00     0.036 A 
HETATM   16  C   UNL     1       3.545  32.780  56.281  1.00  0.00     0.052 A 
HETATM   17  C   UNL     1       3.580  31.092  54.441  1.00  0.00     0.062 A 
HETATM   18  C   UNL     1       3.670  33.055  57.641  1.00  0.00     0.069 A 
HETATM   19  C   UNL     1       3.861  32.001  58.525  1.00  0.00     0.039 A 
HETATM   20  N   UNL     1       3.746  29.814  54.024  1.00  0.00    -0.066 NA
HETATM   21  C   UNL     1       3.337  32.105  53.358  1.00  0.00     0.072 C 
BRANCH  18  22
HETATM   22  O   UNL     1       3.583  34.375  57.971  1.00  0.00    -0.351 OA
BRANCH  22  23
HETATM   23  C   UNL     1       2.740  34.710  59.074  1.00  0.00     0.171 C 
HETATM   24  C   UNL     1       1.635  35.616  58.560  1.00  0.00     0.034 C 
ENDBRANCH  22  23
ENDBRANCH  18  22
ENDBRANCH   1  11
BRANCH   4  25
HETATM   25  C   UNL     1       7.415  23.922  53.897  1.00  0.00     0.032 A 
HETATM   26  C   UNL     1       7.256  23.464  55.212  1.00  0.00     0.017 A 
HETATM   27  C   UNL     1       7.659  22.168  55.548  1.00  0.00     0.007 A 
HETATM   28  C   UNL     1       8.223  21.325  54.584  1.00  0.00    -0.062 A 
HETATM   29  C   UNL     1       8.705  19.949  54.950  1.00  0.00     0.048 C 
HETATM   30  C   UNL     1       8.380  21.790  53.274  1.00  0.00     0.007 A 
HETATM   31  C   UNL     1       7.983  23.084  52.930  1.00  0.00     0.017 A 
ENDBRANCH   4  25
TORSDOF 4
ENDMDL
