MODEL 1
REMARK VINA RESULT:      -9.3      0.000      0.000
REMARK  4 active torsions:
REMARK  status: ('A' for Active; 'I' for Inactive)
REMARK    1  A    between atoms: C_6  and  C_7 
REMARK       I    between atoms: C_7  and  N_8 
REMARK    2  A    between atoms: N_8  and  C_9 
REMARK    3  A    between atoms: C_10  and  C_11 
REMARK    4  A    between atoms: C_11  and  C_12 
ROOT
HETATM    1  C   UNL     1       7.294  25.297  54.614  1.00  0.00     0.259 C 
HETATM    2  N   UNL     1       6.036  25.721  54.991  1.00  0.00    -0.322 N 
HETATM    3  O   UNL     1       7.929  25.721  53.654  1.00  0.00    -0.267 OA
HETATM    4  H   UNL     1       5.567  25.182  55.707  1.00  0.00     0.169 HD
ENDROOT
BRANCH   2   5
HETATM    5  C   UNL     1       5.326  26.830  54.478  1.00  0.00     0.041 A 
HETATM    6  C   UNL     1       5.297  28.040  55.206  1.00  0.00    -0.027 A 
HETATM    7  C   UNL     1       4.685  29.171  54.629  1.00  0.00     0.010 A 
HETATM    8  C   UNL     1       4.091  29.103  53.371  1.00  0.00     0.001 A 
HETATM    9  C   UNL     1       4.092  27.902  52.673  1.00  0.00     0.002 A 
HETATM   10  C   UNL     1       4.704  26.774  53.224  1.00  0.00     0.030 A 
BRANCH   6  11
HETATM   11  C   UNL     1       5.811  28.168  56.627  1.00  0.00     0.079 C 
BRANCH  11  12
HETATM   12  C   UNL     1       7.183  28.780  56.795  1.00  0.00    -0.054 A 
HETATM   13  C   UNL     1       7.563  29.268  58.057  1.00  0.00     0.007 A 
HETATM   14  C   UNL     1       8.840  29.792  58.266  1.00  0.00     0.001 A 
HETATM   15  C   UNL     1       9.758  29.825  57.220  1.00  0.00     0.000 A 
HETATM   16  C   UNL     1       9.400  29.333  55.967  1.00  0.00     0.001 A 
HETATM   17  C   UNL     1       8.123  28.809  55.756  1.00  0.00     0.007 A 
ENDBRANCH  11  12
ENDBRANCH   6  11
ENDBRANCH   2   5
BRANCH   1  18
HETATM   18  C   UNL     1       7.808  24.189  55.406  1.00  0.00     0.081 A 
HETATM   19  C   UNL     1       8.179  24.285  56.739  1.00  0.00     0.068 A 
HETATM   20  C   UNL     1       8.232  25.412  57.696  1.00  0.00     0.078 C 
HETATM   21  O   UNL     1       8.576  23.072  57.220  1.00  0.00    -0.295 OA
HETATM   22  C   UNL     1       8.449  22.170  56.211  1.00  0.00     0.187 A 
HETATM   23  C   UNL     1       7.996  22.818  55.080  1.00  0.00     0.103 A 
HETATM   24  N   UNL     1       8.718  20.848  56.349  1.00  0.00    -0.219 NA
HETATM   25  C   UNL     1       7.774  22.027  53.903  1.00  0.00     0.262 A 
HETATM   26  N   UNL     1       8.017  20.684  54.091  1.00  0.00    -0.317 N 
HETATM   27  O   UNL     1       7.428  22.487  52.822  1.00  0.00    -0.267 OA
HETATM   28  C   UNL     1       8.480  20.162  55.279  1.00  0.00     0.212 A 
HETATM   29  H   UNL     1       7.870  20.089  53.289  1.00  0.00     0.170 HD
ENDBRANCH   1  18
TORSDOF 4
ENDMDL
MODEL 2
REMARK VINA RESULT:      -9.2      3.016      6.613
REMARK  4 active torsions:
REMARK  status: ('A' for Active; 'I' for Inactive)
REMARK    1  A    between atoms: C_6  and  C_7 
REMARK       I    between atoms: C_7  and  N_8 
REMARK    2  A    between atoms: N_8  and  C_9 
REMARK    3  A    between atoms: C_10  and  C_11 
REMARK    4  A    between atoms: C_11  and  C_12 
ROOT
HETATM    1  C   UNL     1       5.991  27.579  55.602  1.00  0.00     0.259 C 
HETATM    2  N   UNL     1       6.504  27.914  54.365  1.00  0.00    -0.322 N 
HETATM    3  O   UNL     1       4.965  26.937  55.797  1.00  0.00    -0.267 OA
HETATM    4  H   UNL     1       7.270  28.574  54.350  1.00  0.00     0.169 HD
ENDROOT
BRANCH   2   5
HETATM    5  C   UNL     1       6.067  27.435  53.109  1.00  0.00     0.041 A 
HETATM    6  C   UNL     1       6.673  26.290  52.548  1.00  0.00    -0.027 A 
HETATM    7  C   UNL     1       6.150  25.755  51.353  1.00  0.00     0.010 A 
HETATM    8  C   UNL     1       5.069  26.353  50.711  1.00  0.00     0.001 A 
HETATM    9  C   UNL     1       4.497  27.499  51.249  1.00  0.00     0.002 A 
HETATM   10  C   UNL     1       4.994  28.037  52.438  1.00  0.00     0.030 A 
BRANCH   6  11
HETATM   11  C   UNL     1       7.926  25.649  53.115  1.00  0.00     0.079 C 
BRANCH  11  12
HETATM   12  C   UNL     1       7.794  24.224  53.600  1.00  0.00    -0.054 A 
HETATM   13  C   UNL     1       8.145  23.172  52.737  1.00  0.00     0.007 A 
HETATM   14  C   UNL     1       8.087  21.845  53.166  1.00  0.00     0.001 A 
HETATM   15  C   UNL     1       7.689  21.551  54.467  1.00  0.00     0.000 A 
HETATM   16  C   UNL     1       7.350  22.584  55.338  1.00  0.00     0.001 A 
HETATM   17  C   UNL     1       7.407  23.912  54.911  1.00  0.00     0.007 A 
ENDBRANCH  11  12
ENDBRANCH   6  11
ENDBRANCH   2   5
BRANCH   1  18
HETATM   18  C   UNL     1       6.728  28.149  56.722  1.00  0.00     0.081 A 
HETATM   19  C   UNL     1       7.761  27.508  57.388  1.00  0.00     0.068 A 
HETATM   20  C   UNL     1       8.373  26.167  57.255  1.00  0.00     0.078 C 
HETATM   21  O   UNL     1       8.284  28.310  58.358  1.00  0.00    -0.295 OA
HETATM   22  C   UNL     1       7.610  29.490  58.322  1.00  0.00     0.187 A 
HETATM   23  C   UNL     1       6.639  29.425  57.343  1.00  0.00     0.103 A 
HETATM   24  N   UNL     1       7.896  30.542  59.127  1.00  0.00    -0.219 NA
HETATM   25  C   UNL     1       5.827  30.590  57.132  1.00  0.00     0.262 A 
HETATM   26  N   UNL     1       6.173  31.653  57.937  1.00  0.00    -0.317 N 
HETATM   27  O   UNL     1       4.898  30.644  56.336  1.00  0.00    -0.267 OA
HETATM   28  C   UNL     1       7.166  31.583  58.890  1.00  0.00     0.212 A 
HETATM   29  H   UNL     1       5.630  32.496  57.819  1.00  0.00     0.170 HD
ENDBRANCH   1  18
TORSDOF 4
ENDMDL
MODEL 3
REMARK VINA RESULT:      -9.1      3.274      7.095
REMARK  4 active torsions:
REMARK  status: ('A' for Active; 'I' for Inactive)
REMARK    1  A    between atoms: C_6  and  C_7 
REMARK       I    between atoms: C_7  and  N_8 
REMARK    2  A    between atoms: N_8  and  C_9 
REMARK    3  A    between atoms: C_10  and  C_11 
REMARK    4  A    between atoms: C_11  and  C_12 
ROOT
HETATM    1  C   UNL     1       5.651  27.749  52.812  1.00  0.00     0.259 C 
HETATM    2  N   UNL     1       6.731  27.094  53.368  1.00  0.00    -0.322 N 
HETATM    3  O   UNL     1       4.943  28.568  53.387  1.00  0.00    -0.267 OA
HETATM    4  H   UNL     1       7.131  26.334  52.833  1.00  0.00     0.169 HD
ENDROOT
BRANCH   2   5
HETATM    5  C   UNL     1       7.338  27.367  54.615  1.00  0.00     0.041 A 
HETATM    6  C   UNL     1       7.329  26.384  55.628  1.00  0.00    -0.027 A 
HETATM    7  C   UNL     1       8.037  26.624  56.823  1.00  0.00     0.010 A 
HETATM    8  C   UNL     1       8.719  27.822  57.024  1.00  0.00     0.001 A 
HETATM    9  C   UNL     1       8.697  28.801  56.038  1.00  0.00     0.002 A 
HETATM   10  C   UNL     1       8.010  28.575  54.843  1.00  0.00     0.030 A 
BRANCH   6  11
HETATM   11  C   UNL     1       6.514  25.107  55.540  1.00  0.00     0.079 C 
BRANCH  11  12
HETATM   12  C   UNL     1       7.241  23.876  55.049  1.00  0.00    -0.054 A 
HETATM   13  C   UNL     1       7.611  22.886  55.975  1.00  0.00     0.007 A 
HETATM   14  C   UNL     1       8.236  21.711  55.555  1.00  0.00     0.001 A 
HETATM   15  C   UNL     1       8.490  21.504  54.203  1.00  0.00     0.000 A 
HETATM   16  C   UNL     1       8.118  22.470  53.271  1.00  0.00     0.001 A 
HETATM   17  C   UNL     1       7.492  23.646  53.690  1.00  0.00     0.007 A 
ENDBRANCH  11  12
ENDBRANCH   6  11
ENDBRANCH   2   5
BRANCH   1  18
HETATM   18  C   UNL     1       5.326  27.314  51.461  1.00  0.00     0.081 A 
HETATM   19  C   UNL     1       4.884  26.042  51.132  1.00  0.00     0.068 A 
HETATM   20  C   UNL     1       4.663  24.812  51.924  1.00  0.00     0.078 C 
HETATM   21  O   UNL     1       4.619  25.950  49.798  1.00  0.00    -0.295 OA
HETATM   22  C   UNL     1       4.866  27.168  49.246  1.00  0.00     0.187 A 
HETATM   23  C   UNL     1       5.316  28.025  50.230  1.00  0.00     0.103 A 
HETATM   24  N   UNL     1       4.669  27.451  47.936  1.00  0.00    -0.219 NA
HETATM   25  C   UNL     1       5.614  29.378  49.849  1.00  0.00     0.262 A 
HETATM   26  N   UNL     1       5.361  29.641  48.520  1.00  0.00    -0.317 N 
HETATM   27  O   UNL     1       6.072  30.220  50.611  1.00  0.00    -0.267 OA
HETATM   28  C   UNL     1       4.919  28.684  47.634  1.00  0.00     0.212 A 
HETATM   29  H   UNL     1       5.553  30.582  48.210  1.00  0.00     0.170 HD
ENDBRANCH   1  18
TORSDOF 4
ENDMDL
MODEL 4
REMARK VINA RESULT:      -9.1      2.932      6.923
REMARK  4 active torsions:
REMARK  status: ('A' for Active; 'I' for Inactive)
REMARK    1  A    between atoms: C_6  and  C_7 
REMARK       I    between atoms: C_7  and  N_8 
REMARK    2  A    between atoms: N_8  and  C_9 
REMARK    3  A    between atoms: C_10  and  C_11 
REMARK    4  A    between atoms: C_11  and  C_12 
ROOT
HETATM    1  C   UNL     1       7.751  28.432  55.260  1.00  0.00     0.259 C 
HETATM    2  N   UNL     1       6.773  27.475  55.442  1.00  0.00    -0.322 N 
HETATM    3  O   UNL     1       8.400  28.600  54.233  1.00  0.00    -0.267 OA
HETATM    4  H   UNL     1       6.427  27.348  56.384  1.00  0.00     0.169 HD
ENDROOT
BRANCH   2   5
HETATM    5  C   UNL     1       6.205  26.645  54.450  1.00  0.00     0.041 A 
HETATM    6  C   UNL     1       6.592  25.290  54.366  1.00  0.00    -0.027 A 
HETATM    7  C   UNL     1       5.934  24.444  53.450  1.00  0.00     0.010 A 
HETATM    8  C   UNL     1       4.932  24.933  52.615  1.00  0.00     0.001 A 
HETATM    9  C   UNL     1       4.578  26.275  52.676  1.00  0.00     0.002 A 
HETATM   10  C   UNL     1       5.212  27.125  53.586  1.00  0.00     0.030 A 
BRANCH   6  11
HETATM   11  C   UNL     1       7.752  24.706  55.151  1.00  0.00     0.079 C 
BRANCH  11  12
HETATM   12  C   UNL     1       8.021  23.231  54.959  1.00  0.00    -0.054 A 
HETATM   13  C   UNL     1       7.591  22.324  55.943  1.00  0.00     0.007 A 
HETATM   14  C   UNL     1       7.773  20.950  55.779  1.00  0.00     0.001 A 
HETATM   15  C   UNL     1       8.378  20.463  54.624  1.00  0.00     0.000 A 
HETATM   16  C   UNL     1       8.798  21.348  53.634  1.00  0.00     0.001 A 
HETATM   17  C   UNL     1       8.617  22.722  53.797  1.00  0.00     0.007 A 
ENDBRANCH  11  12
ENDBRANCH   6  11
ENDBRANCH   2   5
BRANCH   1  18
HETATM   18  C   UNL     1       8.050  29.208  56.456  1.00  0.00     0.081 A 
HETATM   19  C   UNL     1       9.329  29.444  56.937  1.00  0.00     0.068 A 
HETATM   20  C   UNL     1      10.672  29.006  56.498  1.00  0.00     0.078 C 
HETATM   21  O   UNL     1       9.291  30.240  58.044  1.00  0.00    -0.295 OA
HETATM   22  C   UNL     1       7.988  30.546  58.284  1.00  0.00     0.187 A 
HETATM   23  C   UNL     1       7.197  29.921  57.342  1.00  0.00     0.103 A 
HETATM   24  N   UNL     1       7.582  31.358  59.290  1.00  0.00    -0.219 NA
HETATM   25  C   UNL     1       5.779  30.139  57.411  1.00  0.00     0.262 A 
HETATM   26  N   UNL     1       5.407  31.003  58.419  1.00  0.00    -0.317 N 
HETATM   27  O   UNL     1       4.964  29.601  56.673  1.00  0.00    -0.267 OA
HETATM   28  C   UNL     1       6.304  31.556  59.305  1.00  0.00     0.212 A 
HETATM   29  H   UNL     1       4.418  31.188  58.503  1.00  0.00     0.170 HD
ENDBRANCH   1  18
TORSDOF 4
ENDMDL
MODEL 5
REMARK VINA RESULT:      -9.0      1.436      2.728
REMARK  4 active torsions:
REMARK  status: ('A' for Active; 'I' for Inactive)
REMARK    1  A    between atoms: C_6  and  C_7 
REMARK       I    between atoms: C_7  and  N_8 
REMARK    2  A    between atoms: N_8  and  C_9 
REMARK    3  A    between atoms: C_10  and  C_11 
REMARK    4  A    between atoms: C_11  and  C_12 
ROOT
HETATM    1  C   UNL     1       7.115  26.690  54.483  1.00  0.00     0.259 C 
HETATM    2  N   UNL     1       5.959  26.937  55.196  1.00  0.00    -0.322 N 
HETATM    3  O   UNL     1       7.756  27.526  53.855  1.00  0.00    -0.267 OA
HETATM    4  H   UNL     1       5.451  26.133  55.537  1.00  0.00     0.169 HD
ENDROOT
BRANCH   2   5
HETATM    5  C   UNL     1       5.403  28.202  55.497  1.00  0.00     0.041 A 
HETATM    6  C   UNL     1       5.987  29.000  56.503  1.00  0.00    -0.027 A 
HETATM    7  C   UNL     1       5.496  30.305  56.713  1.00  0.00     0.010 A 
HETATM    8  C   UNL     1       4.433  30.801  55.962  1.00  0.00     0.001 A 
HETATM    9  C   UNL     1       3.840  29.999  54.995  1.00  0.00     0.002 A 
HETATM   10  C   UNL     1       4.320  28.708  54.766  1.00  0.00     0.030 A 
BRANCH   6  11
HETATM   11  C   UNL     1       7.064  28.496  57.445  1.00  0.00     0.079 C 
BRANCH  11  12
HETATM   12  C   UNL     1       8.361  29.273  57.465  1.00  0.00    -0.054 A 
HETATM   13  C   UNL     1       8.638  30.114  58.556  1.00  0.00     0.007 A 
HETATM   14  C   UNL     1       9.847  30.806  58.636  1.00  0.00     0.001 A 
HETATM   15  C   UNL     1      10.800  30.660  57.633  1.00  0.00     0.000 A 
HETATM   16  C   UNL     1      10.546  29.820  56.551  1.00  0.00     0.001 A 
HETATM   17  C   UNL     1       9.336  29.127  56.469  1.00  0.00     0.007 A 
ENDBRANCH  11  12
ENDBRANCH   6  11
ENDBRANCH   2   5
BRANCH   1  18
HETATM   18  C   UNL     1       7.492  25.284  54.436  1.00  0.00     0.081 A 
HETATM   19  C   UNL     1       7.727  24.574  53.269  1.00  0.00     0.068 A 
HETATM   20  C   UNL     1       7.639  24.926  51.835  1.00  0.00     0.078 C 
HETATM   21  O   UNL     1       8.108  23.294  53.548  1.00  0.00    -0.295 OA
HETATM   22  C   UNL     1       8.144  23.163  54.901  1.00  0.00     0.187 A 
HETATM   23  C   UNL     1       7.758  24.356  55.480  1.00  0.00     0.103 A 
HETATM   24  N   UNL     1       8.523  22.027  55.534  1.00  0.00    -0.219 NA
HETATM   25  C   UNL     1       7.752  24.429  56.914  1.00  0.00     0.262 A 
HETATM   26  N   UNL     1       8.183  23.270  57.523  1.00  0.00    -0.317 N 
HETATM   27  O   UNL     1       7.379  25.406  57.550  1.00  0.00    -0.267 OA
HETATM   28  C   UNL     1       8.533  22.137  56.823  1.00  0.00     0.212 A 
HETATM   29  H   UNL     1       8.199  23.278  58.533  1.00  0.00     0.170 HD
ENDBRANCH   1  18
TORSDOF 4
ENDMDL
MODEL 6
REMARK VINA RESULT:      -8.6      2.931      6.430
REMARK  4 active torsions:
REMARK  status: ('A' for Active; 'I' for Inactive)
REMARK    1  A    between atoms: C_6  and  C_7 
REMARK       I    between atoms: C_7  and  N_8 
REMARK    2  A    between atoms: N_8  and  C_9 
REMARK    3  A    between atoms: C_10  and  C_11 
REMARK    4  A    between atoms: C_11  and  C_12 
ROOT
HETATM    1  C   UNL     1       5.926  27.402  53.000  1.00  0.00     0.259 C 
HETATM    2  N   UNL     1       5.609  26.062  53.108  1.00  0.00    -0.322 N 
HETATM    3  O   UNL     1       6.973  27.916  53.376  1.00  0.00    -0.267 OA
HETATM    4  H   UNL     1       4.655  25.800  52.899  1.00  0.00     0.169 HD
ENDROOT
BRANCH   2   5
HETATM    5  C   UNL     1       6.477  25.013  53.488  1.00  0.00     0.041 A 
HETATM    6  C   UNL     1       6.459  24.538  54.817  1.00  0.00    -0.027 A 
HETATM    7  C   UNL     1       7.243  23.416  55.154  1.00  0.00     0.010 A 
HETATM    8  C   UNL     1       8.049  22.793  54.204  1.00  0.00     0.001 A 
HETATM    9  C   UNL     1       8.089  23.285  52.905  1.00  0.00     0.002 A 
HETATM   10  C   UNL     1       7.310  24.389  52.551  1.00  0.00     0.030 A 
BRANCH   6  11
HETATM   11  C   UNL     1       5.706  25.230  55.937  1.00  0.00     0.079 C 
BRANCH  11  12
HETATM   12  C   UNL     1       6.380  26.432  56.561  1.00  0.00    -0.054 A 
HETATM   13  C   UNL     1       7.780  26.452  56.666  1.00  0.00     0.007 A 
HETATM   14  C   UNL     1       8.443  27.565  57.187  1.00  0.00     0.001 A 
HETATM   15  C   UNL     1       7.715  28.677  57.600  1.00  0.00     0.000 A 
HETATM   16  C   UNL     1       6.326  28.677  57.490  1.00  0.00     0.001 A 
HETATM   17  C   UNL     1       5.662  27.564  56.970  1.00  0.00     0.007 A 
ENDBRANCH  11  12
ENDBRANCH   6  11
ENDBRANCH   2   5
BRANCH   1  18
HETATM   18  C   UNL     1       4.847  28.225  52.474  1.00  0.00     0.081 A 
HETATM   19  C   UNL     1       4.276  29.294  53.149  1.00  0.00     0.068 A 
HETATM   20  C   UNL     1       4.493  29.874  54.492  1.00  0.00     0.078 C 
HETATM   21  O   UNL     1       3.323  29.898  52.383  1.00  0.00    -0.295 OA
HETATM   22  C   UNL     1       3.276  29.241  51.194  1.00  0.00     0.187 A 
HETATM   23  C   UNL     1       4.183  28.201  51.217  1.00  0.00     0.103 A 
HETATM   24  N   UNL     1       2.463  29.600  50.170  1.00  0.00    -0.219 NA
HETATM   25  C   UNL     1       4.301  27.394  50.035  1.00  0.00     0.262 A 
HETATM   26  N   UNL     1       3.492  27.813  49.001  1.00  0.00    -0.317 N 
HETATM   27  O   UNL     1       5.026  26.410  49.945  1.00  0.00    -0.267 OA
HETATM   28  C   UNL     1       2.616  28.871  49.113  1.00  0.00     0.212 A 
HETATM   29  H   UNL     1       3.545  27.276  48.149  1.00  0.00     0.170 HD
ENDBRANCH   1  18
TORSDOF 4
ENDMDL
MODEL 7
REMARK VINA RESULT:      -8.6      8.850     12.081
REMARK  4 active torsions:
REMARK  status: ('A' for Active; 'I' for Inactive)
REMARK    1  A    between atoms: C_6  and  C_7 
REMARK       I    between atoms: C_7  and  N_8 
REMARK    2  A    between atoms: N_8  and  C_9 
REMARK    3  A    between atoms: C_10  and  C_11 
REMARK    4  A    between atoms: C_11  and  C_12 
ROOT
HETATM    1  C   UNL     1       5.648  32.814  63.167  1.00  0.00     0.259 C 
HETATM    2  N   UNL     1       6.171  33.951  63.750  1.00  0.00    -0.322 N 
HETATM    3  O   UNL     1       4.993  31.954  63.746  1.00  0.00    -0.267 OA
HETATM    4  H   UNL     1       6.818  34.494  63.195  1.00  0.00     0.169 HD
ENDROOT
BRANCH   2   5
HETATM    5  C   UNL     1       5.903  34.436  65.050  1.00  0.00     0.041 A 
HETATM    6  C   UNL     1       4.983  35.492  65.227  1.00  0.00    -0.027 A 
HETATM    7  C   UNL     1       4.637  35.888  66.535  1.00  0.00     0.010 A 
HETATM    8  C   UNL     1       5.207  35.271  67.646  1.00  0.00     0.001 A 
HETATM    9  C   UNL     1       6.138  34.255  67.467  1.00  0.00     0.002 A 
HETATM   10  C   UNL     1       6.484  33.842  66.178  1.00  0.00     0.030 A 
BRANCH   6  11
HETATM   11  C   UNL     1       4.409  36.296  64.076  1.00  0.00     0.079 C 
BRANCH  11  12
HETATM   12  C   UNL     1       5.300  37.370  63.493  1.00  0.00    -0.054 A 
HETATM   13  C   UNL     1       5.630  37.317  62.128  1.00  0.00     0.007 A 
HETATM   14  C   UNL     1       6.406  38.318  61.541  1.00  0.00     0.001 A 
HETATM   15  C   UNL     1       6.853  39.391  62.307  1.00  0.00     0.000 A 
HETATM   16  C   UNL     1       6.522  39.464  63.658  1.00  0.00     0.001 A 
HETATM   17  C   UNL     1       5.747  38.463  64.247  1.00  0.00     0.007 A 
ENDBRANCH  11  12
ENDBRANCH   6  11
ENDBRANCH   2   5
BRANCH   1  18
HETATM   18  C   UNL     1       6.025  32.638  61.772  1.00  0.00     0.081 A 
HETATM   19  C   UNL     1       5.351  33.205  60.700  1.00  0.00     0.068 A 
HETATM   20  C   UNL     1       4.134  34.039  60.598  1.00  0.00     0.078 C 
HETATM   21  O   UNL     1       5.967  32.898  59.523  1.00  0.00    -0.295 OA
HETATM   22  C   UNL     1       7.059  32.144  59.816  1.00  0.00     0.187 A 
HETATM   23  C   UNL     1       7.120  31.950  61.181  1.00  0.00     0.103 A 
HETATM   24  N   UNL     1       7.932  31.693  58.882  1.00  0.00    -0.219 NA
HETATM   25  C   UNL     1       8.224  31.191  61.698  1.00  0.00     0.262 A 
HETATM   26  N   UNL     1       9.113  30.786  60.726  1.00  0.00    -0.317 N 
HETATM   27  O   UNL     1       8.365  30.901  62.879  1.00  0.00    -0.267 OA
HETATM   28  C   UNL     1       8.928  31.039  59.385  1.00  0.00     0.212 A 
HETATM   29  H   UNL     1       9.908  30.251  61.045  1.00  0.00     0.170 HD
ENDBRANCH   1  18
TORSDOF 4
ENDMDL
MODEL 8
REMARK VINA RESULT:      -8.5      3.112      6.491
REMARK  4 active torsions:
REMARK  status: ('A' for Active; 'I' for Inactive)
REMARK    1  A    between atoms: C_6  and  C_7 
REMARK       I    between atoms: C_7  and  N_8 
REMARK    2  A    between atoms: N_8  and  C_9 
REMARK    3  A    between atoms: C_10  and  C_11 
REMARK    4  A    between atoms: C_11  and  C_12 
ROOT
HETATM    1  C   UNL     1       5.979  28.878  55.070  1.00  0.00     0.259 C 
HETATM    2  N   UNL     1       6.531  27.705  54.594  1.00  0.00    -0.322 N 
HETATM    3  O   UNL     1       5.058  29.494  54.545  1.00  0.00    -0.267 OA
HETATM    4  H   UNL     1       7.382  27.387  55.037  1.00  0.00     0.169 HD
ENDROOT
BRANCH   2   5
HETATM    5  C   UNL     1       6.034  26.900  53.543  1.00  0.00     0.041 A 
HETATM    6  C   UNL     1       5.889  25.509  53.737  1.00  0.00    -0.027 A 
HETATM    7  C   UNL     1       5.284  24.736  52.725  1.00  0.00     0.010 A 
HETATM    8  C   UNL     1       4.856  25.320  51.535  1.00  0.00     0.001 A 
HETATM    9  C   UNL     1       5.032  26.684  51.335  1.00  0.00     0.002 A 
HETATM   10  C   UNL     1       5.619  27.467  52.332  1.00  0.00     0.030 A 
BRANCH   6  11
HETATM   11  C   UNL     1       6.436  24.776  54.947  1.00  0.00     0.079 C 
BRANCH  11  12
HETATM   12  C   UNL     1       7.207  23.505  54.674  1.00  0.00    -0.054 A 
HETATM   13  C   UNL     1       7.355  22.561  55.704  1.00  0.00     0.007 A 
HETATM   14  C   UNL     1       8.015  21.351  55.476  1.00  0.00     0.001 A 
HETATM   15  C   UNL     1       8.525  21.065  54.213  1.00  0.00     0.000 A 
HETATM   16  C   UNL     1       8.375  21.986  53.179  1.00  0.00     0.001 A 
HETATM   17  C   UNL     1       7.716  23.196  53.405  1.00  0.00     0.007 A 
ENDBRANCH  11  12
ENDBRANCH   6  11
ENDBRANCH   2   5
BRANCH   1  18
HETATM   18  C   UNL     1       6.657  29.419  56.238  1.00  0.00     0.081 A 
HETATM   19  C   UNL     1       6.017  29.821  57.401  1.00  0.00     0.068 A 
HETATM   20  C   UNL     1       4.594  29.887  57.801  1.00  0.00     0.078 C 
HETATM   21  O   UNL     1       6.920  30.239  58.333  1.00  0.00    -0.295 OA
HETATM   22  C   UNL     1       8.160  30.096  57.795  1.00  0.00     0.187 A 
HETATM   23  C   UNL     1       8.040  29.611  56.508  1.00  0.00     0.103 A 
HETATM   24  N   UNL     1       9.305  30.379  58.463  1.00  0.00    -0.219 NA
HETATM   25  C   UNL     1       9.249  29.368  55.772  1.00  0.00     0.262 A 
HETATM   26  N   UNL     1      10.393  29.627  56.497  1.00  0.00    -0.317 N 
HETATM   27  O   UNL     1       9.280  28.993  54.607  1.00  0.00    -0.267 OA
HETATM   28  C   UNL     1      10.373  30.122  57.782  1.00  0.00     0.212 A 
HETATM   29  H   UNL     1      11.267  29.466  56.019  1.00  0.00     0.170 HD
ENDBRANCH   1  18
TORSDOF 4
ENDMDL
MODEL 9
REMARK VINA RESULT:      -8.4      3.052      6.992
REMARK  4 active torsions:
REMARK  status: ('A' for Active; 'I' for Inactive)
REMARK    1  A    between atoms: C_6  and  C_7 
REMARK       I    between atoms: C_7  and  N_8 
REMARK    2  A    between atoms: N_8  and  C_9 
REMARK    3  A    between atoms: C_10  and  C_11 
REMARK    4  A    between atoms: C_11  and  C_12 
ROOT
HETATM    1  C   UNL     1       5.980  28.136  53.440  1.00  0.00     0.259 C 
HETATM    2  N   UNL     1       5.503  27.538  54.589  1.00  0.00    -0.322 N 
HETATM    3  O   UNL     1       7.144  28.466  53.240  1.00  0.00    -0.267 OA
HETATM    4  H   UNL     1       4.500  27.460  54.682  1.00  0.00     0.169 HD
ENDROOT
BRANCH   2   5
HETATM    5  C   UNL     1       6.272  27.025  55.659  1.00  0.00     0.041 A 
HETATM    6  C   UNL     1       6.665  25.669  55.650  1.00  0.00    -0.027 A 
HETATM    7  C   UNL     1       7.528  25.200  56.661  1.00  0.00     0.010 A 
HETATM    8  C   UNL     1       7.972  26.046  57.675  1.00  0.00     0.001 A 
HETATM    9  C   UNL     1       7.555  27.371  57.699  1.00  0.00     0.002 A 
HETATM   10  C   UNL     1       6.710  27.856  56.698  1.00  0.00     0.030 A 
BRANCH   6  11
HETATM   11  C   UNL     1       6.133  24.655  54.656  1.00  0.00     0.079 C 
BRANCH  11  12
HETATM   12  C   UNL     1       7.031  23.479  54.345  1.00  0.00    -0.054 A 
HETATM   13  C   UNL     1       7.269  22.518  55.341  1.00  0.00     0.007 A 
HETATM   14  C   UNL     1       8.050  21.391  55.077  1.00  0.00     0.001 A 
HETATM   15  C   UNL     1       8.594  21.205  53.810  1.00  0.00     0.000 A 
HETATM   16  C   UNL     1       8.357  22.142  52.808  1.00  0.00     0.001 A 
HETATM   17  C   UNL     1       7.576  23.270  53.071  1.00  0.00     0.007 A 
ENDBRANCH  11  12
ENDBRANCH   6  11
ENDBRANCH   2   5
BRANCH   1  18
HETATM   18  C   UNL     1       4.945  28.459  52.468  1.00  0.00     0.081 A 
HETATM   19  C   UNL     1       4.159  29.601  52.509  1.00  0.00     0.068 A 
HETATM   20  C   UNL     1       4.063  30.729  53.462  1.00  0.00     0.078 C 
HETATM   21  O   UNL     1       3.314  29.647  51.440  1.00  0.00    -0.295 OA
HETATM   22  C   UNL     1       3.554  28.545  50.680  1.00  0.00     0.187 A 
HETATM   23  C   UNL     1       4.535  27.786  51.284  1.00  0.00     0.103 A 
HETATM   24  N   UNL     1       2.918  28.287  49.512  1.00  0.00    -0.219 NA
HETATM   25  C   UNL     1       4.950  26.582  50.620  1.00  0.00     0.262 A 
HETATM   26  N   UNL     1       4.313  26.374  49.416  1.00  0.00    -0.317 N 
HETATM   27  O   UNL     1       5.768  25.793  51.075  1.00  0.00    -0.267 OA
HETATM   28  C   UNL     1       3.336  27.212  48.927  1.00  0.00     0.212 A 
HETATM   29  H   UNL     1       4.577  25.540  48.912  1.00  0.00     0.170 HD
ENDBRANCH   1  18
TORSDOF 4
ENDMDL
MODEL 10
REMARK VINA RESULT:      -8.1      2.525      5.354
REMARK  4 active torsions:
REMARK  status: ('A' for Active; 'I' for Inactive)
REMARK    1  A    between atoms: C_6  and  C_7 
REMARK       I    between atoms: C_7  and  N_8 
REMARK    2  A    between atoms: N_8  and  C_9 
REMARK    3  A    between atoms: C_10  and  C_11 
REMARK    4  A    between atoms: C_11  and  C_12 
ROOT
HETATM    1  C   UNL     1       7.016  26.989  54.278  1.00  0.00     0.259 C 
HETATM    2  N   UNL     1       5.750  27.152  53.751  1.00  0.00    -0.322 N 
HETATM    3  O   UNL     1       7.793  27.896  54.555  1.00  0.00    -0.267 OA
HETATM    4  H   UNL     1       5.278  26.318  53.427  1.00  0.00     0.169 HD
ENDROOT
BRANCH   2   5
HETATM    5  C   UNL     1       5.042  28.367  53.607  1.00  0.00     0.041 A 
HETATM    6  C   UNL     1       5.055  29.042  52.367  1.00  0.00    -0.027 A 
HETATM    7  C   UNL     1       4.252  30.188  52.203  1.00  0.00     0.010 A 
HETATM    8  C   UNL     1       3.472  30.674  53.250  1.00  0.00     0.001 A 
HETATM    9  C   UNL     1       3.488  30.026  54.479  1.00  0.00     0.002 A 
HETATM   10  C   UNL     1       4.269  28.882  54.656  1.00  0.00     0.030 A 
BRANCH   6  11
HETATM   11  C   UNL     1       5.965  28.652  51.218  1.00  0.00     0.079 C 
BRANCH  11  12
HETATM   12  C   UNL     1       5.314  27.941  50.053  1.00  0.00    -0.054 A 
HETATM   13  C   UNL     1       5.418  28.498  48.768  1.00  0.00     0.007 A 
HETATM   14  C   UNL     1       4.877  27.844  47.659  1.00  0.00     0.001 A 
HETATM   15  C   UNL     1       4.234  26.620  47.819  1.00  0.00     0.000 A 
HETATM   16  C   UNL     1       4.135  26.049  49.086  1.00  0.00     0.001 A 
HETATM   17  C   UNL     1       4.675  26.701  50.196  1.00  0.00     0.007 A 
ENDBRANCH  11  12
ENDBRANCH   6  11
ENDBRANCH   2   5
BRANCH   1  18
HETATM   18  C   UNL     1       7.432  25.599  54.399  1.00  0.00     0.081 A 
HETATM   19  C   UNL     1       7.728  24.773  53.325  1.00  0.00     0.068 A 
HETATM   20  C   UNL     1       7.682  24.964  51.859  1.00  0.00     0.078 C 
HETATM   21  O   UNL     1       8.132  23.544  53.756  1.00  0.00    -0.295 OA
HETATM   22  C   UNL     1       8.122  23.562  55.115  1.00  0.00     0.187 A 
HETATM   23  C   UNL     1       7.684  24.798  55.546  1.00  0.00     0.103 A 
HETATM   24  N   UNL     1       8.508  22.513  55.882  1.00  0.00    -0.219 NA
HETATM   25  C   UNL     1       7.624  25.027  56.963  1.00  0.00     0.262 A 
HETATM   26  N   UNL     1       8.064  23.955  57.710  1.00  0.00    -0.317 N 
HETATM   27  O   UNL     1       7.203  26.056  57.475  1.00  0.00    -0.267 OA
HETATM   28  C   UNL     1       8.469  22.764  57.150  1.00  0.00     0.212 A 
HETATM   29  H   UNL     1       8.042  24.074  58.712  1.00  0.00     0.170 HD
ENDBRANCH   1  18
TORSDOF 4
ENDMDL
