MODEL 1
REMARK VINA RESULT:      -9.0      0.000      0.000
REMARK  5 active torsions:
REMARK  status: ('A' for Active; 'I' for Inactive)
REMARK    1  A    between atoms: O_2  and  C_3 
REMARK    2  A    between atoms: C_4  and  O_5 
REMARK    3  A    between atoms: C_10  and  C_11 
REMARK    4  A    between atoms: C_13  and  O_14 
REMARK    5  A    between atoms: O_14  and  C_15 
ROOT
HETATM    1  C   UNL     1       5.752  28.389  53.746  1.00  0.00     0.102 A 
HETATM    2  C   UNL     1       6.202  27.232  53.079  1.00  0.00     0.103 A 
HETATM    3  C   UNL     1       6.943  26.273  53.779  1.00  0.00     0.069 A 
HETATM    4  C   UNL     1       7.215  26.455  55.136  1.00  0.00     0.044 A 
HETATM    5  C   UNL     1       6.770  27.595  55.808  1.00  0.00    -0.020 A 
HETATM    6  C   UNL     1       7.135  27.811  57.261  1.00  0.00     0.063 C 
HETATM    7  C   UNL     1       7.389  26.484  57.982  1.00  0.00     0.117 C 
HETATM    8  C   UNL     1       8.193  25.502  57.168  1.00  0.00     0.223 C 
HETATM    9  O   UNL     1       8.929  24.665  57.688  1.00  0.00    -0.273 OA
HETATM   10  N   UNL     1       7.972  25.497  55.818  1.00  0.00    -0.327 N 
HETATM   11  C   UNL     1       6.036  28.561  55.105  1.00  0.00     0.049 A 
HETATM   12  H   UNL     1       8.426  24.750  55.306  1.00  0.00     0.169 HD
ENDROOT
BRANCH   6  13
HETATM   13  C   UNL     1       8.287  28.791  57.457  1.00  0.00    -0.046 A 
HETATM   14  C   UNL     1       8.125  29.987  58.174  1.00  0.00     0.045 A 
HETATM   15  C   UNL     1       9.155  30.931  58.234  1.00  0.00     0.076 A 
HETATM   16  C   UNL     1      10.394  30.645  57.663  1.00  0.00     0.037 A 
HETATM   17  C   UNL     1      10.585  29.444  56.984  1.00  0.00     0.003 A 
HETATM   18  C   UNL     1       9.535  28.529  56.868  1.00  0.00     0.008 A 
BRANCH  15  19
HETATM   19  O   UNL     1       9.038  32.142  58.878  1.00  0.00    -0.311 OA
BRANCH  19  20
HETATM   20  C   UNL     1       8.483  32.171  60.139  1.00  0.00     0.076 A 
HETATM   21  C   UNL     1       9.337  31.858  61.199  1.00  0.00     0.037 A 
HETATM   22  C   UNL     1       8.858  31.862  62.510  1.00  0.00     0.003 A 
HETATM   23  C   UNL     1       7.524  32.184  62.764  1.00  0.00     0.000 A 
HETATM   24  C   UNL     1       6.676  32.524  61.710  1.00  0.00     0.003 A 
HETATM   25  C   UNL     1       7.160  32.540  60.401  1.00  0.00     0.037 A 
ENDBRANCH  19  20
ENDBRANCH  15  19
ENDBRANCH   6  13
BRANCH   1  26
HETATM   26  O   UNL     1       5.029  29.284  52.995  1.00  0.00    -0.353 OA
HETATM   27  C   UNL     1       3.773  29.695  53.515  1.00  0.00     0.210 C 
ENDBRANCH   1  26
BRANCH   2  28
HETATM   28  O   UNL     1       5.871  27.140  51.749  1.00  0.00    -0.353 OA
HETATM   29  C   UNL     1       5.320  25.916  51.286  1.00  0.00     0.210 C 
ENDBRANCH   2  28
TORSDOF 5
ENDMDL
MODEL 2
REMARK VINA RESULT:      -8.9      3.096      7.459
REMARK  5 active torsions:
REMARK  status: ('A' for Active; 'I' for Inactive)
REMARK    1  A    between atoms: O_2  and  C_3 
REMARK    2  A    between atoms: C_4  and  O_5 
REMARK    3  A    between atoms: C_10  and  C_11 
REMARK    4  A    between atoms: C_13  and  O_14 
REMARK    5  A    between atoms: O_14  and  C_15 
ROOT
HETATM    1  C   UNL     1       3.986  30.721  55.360  1.00  0.00     0.102 A 
HETATM    2  C   UNL     1       3.746  31.485  56.519  1.00  0.00     0.103 A 
HETATM    3  C   UNL     1       4.640  31.412  57.594  1.00  0.00     0.069 A 
HETATM    4  C   UNL     1       5.774  30.605  57.505  1.00  0.00     0.044 A 
HETATM    5  C   UNL     1       6.025  29.847  56.359  1.00  0.00    -0.020 A 
HETATM    6  C   UNL     1       7.221  28.921  56.307  1.00  0.00     0.063 C 
HETATM    7  C   UNL     1       8.343  29.397  57.235  1.00  0.00     0.117 C 
HETATM    8  C   UNL     1       7.851  29.876  58.578  1.00  0.00     0.223 C 
HETATM    9  O   UNL     1       8.535  29.792  59.596  1.00  0.00    -0.273 OA
HETATM   10  N   UNL     1       6.649  30.529  58.594  1.00  0.00    -0.327 N 
HETATM   11  C   UNL     1       5.124  29.911  55.286  1.00  0.00     0.049 A 
HETATM   12  H   UNL     1       6.396  30.951  59.479  1.00  0.00     0.169 HD
ENDROOT
BRANCH   6  13
HETATM   13  C   UNL     1       6.866  27.459  56.554  1.00  0.00    -0.046 A 
HETATM   14  C   UNL     1       7.821  26.437  56.433  1.00  0.00     0.045 A 
HETATM   15  C   UNL     1       7.448  25.093  56.537  1.00  0.00     0.076 A 
HETATM   16  C   UNL     1       6.136  24.758  56.862  1.00  0.00     0.037 A 
HETATM   17  C   UNL     1       5.183  25.762  57.028  1.00  0.00     0.003 A 
HETATM   18  C   UNL     1       5.542  27.102  56.860  1.00  0.00     0.008 A 
BRANCH  15  19
HETATM   19  O   UNL     1       8.330  24.046  56.378  1.00  0.00    -0.311 OA
BRANCH  19  20
HETATM   20  C   UNL     1       8.167  23.202  55.301  1.00  0.00     0.076 A 
HETATM   21  C   UNL     1       8.053  21.841  55.594  1.00  0.00     0.037 A 
HETATM   22  C   UNL     1       7.886  20.914  54.563  1.00  0.00     0.003 A 
HETATM   23  C   UNL     1       7.827  21.347  53.239  1.00  0.00     0.000 A 
HETATM   24  C   UNL     1       7.912  22.708  52.945  1.00  0.00     0.003 A 
HETATM   25  C   UNL     1       8.059  23.637  53.977  1.00  0.00     0.037 A 
ENDBRANCH  19  20
ENDBRANCH  15  19
ENDBRANCH   6  13
BRANCH   1  26
HETATM   26  O   UNL     1       3.067  30.844  54.347  1.00  0.00    -0.353 OA
HETATM   27  C   UNL     1       3.482  30.447  53.048  1.00  0.00     0.210 C 
ENDBRANCH   1  26
BRANCH   2  28
HETATM   28  O   UNL     1       2.611  32.258  56.503  1.00  0.00    -0.353 OA
HETATM   29  C   UNL     1       2.766  33.661  56.348  1.00  0.00     0.210 C 
ENDBRANCH   2  28
TORSDOF 5
ENDMDL
MODEL 3
REMARK VINA RESULT:      -8.8      2.853      7.876
REMARK  5 active torsions:
REMARK  status: ('A' for Active; 'I' for Inactive)
REMARK    1  A    between atoms: O_2  and  C_3 
REMARK    2  A    between atoms: C_4  and  O_5 
REMARK    3  A    between atoms: C_10  and  C_11 
REMARK    4  A    between atoms: C_13  and  O_14 
REMARK    5  A    between atoms: O_14  and  C_15 
ROOT
HETATM    1  C   UNL     1       5.843  31.527  58.940  1.00  0.00     0.102 A 
HETATM    2  C   UNL     1       6.939  31.870  59.757  1.00  0.00     0.103 A 
HETATM    3  C   UNL     1       8.212  31.379  59.448  1.00  0.00     0.069 A 
HETATM    4  C   UNL     1       8.397  30.573  58.324  1.00  0.00     0.044 A 
HETATM    5  C   UNL     1       7.319  30.231  57.504  1.00  0.00    -0.020 A 
HETATM    6  C   UNL     1       7.524  29.297  56.331  1.00  0.00     0.063 C 
HETATM    7  C   UNL     1       8.962  29.355  55.808  1.00  0.00     0.117 C 
HETATM    8  C   UNL     1       9.999  29.386  56.904  1.00  0.00     0.223 C 
HETATM    9  O   UNL     1      11.127  28.918  56.754  1.00  0.00    -0.273 OA
HETATM   10  N   UNL     1       9.673  30.076  58.039  1.00  0.00    -0.327 N 
HETATM   11  C   UNL     1       6.041  30.713  57.819  1.00  0.00     0.049 A 
HETATM   12  H   UNL     1      10.424  30.191  58.708  1.00  0.00     0.169 HD
ENDROOT
BRANCH   6  13
HETATM   13  C   UNL     1       7.082  27.865  56.612  1.00  0.00    -0.046 A 
HETATM   14  C   UNL     1       7.992  26.796  56.600  1.00  0.00     0.045 A 
HETATM   15  C   UNL     1       7.548  25.476  56.733  1.00  0.00     0.076 A 
HETATM   16  C   UNL     1       6.202  25.217  56.981  1.00  0.00     0.037 A 
HETATM   17  C   UNL     1       5.291  26.271  57.039  1.00  0.00     0.003 A 
HETATM   18  C   UNL     1       5.725  27.584  56.841  1.00  0.00     0.008 A 
BRANCH  15  19
HETATM   19  O   UNL     1       8.386  24.385  56.678  1.00  0.00    -0.311 OA
BRANCH  19  20
HETATM   20  C   UNL     1       8.227  23.479  55.651  1.00  0.00     0.076 A 
HETATM   21  C   UNL     1       8.093  22.139  56.022  1.00  0.00     0.037 A 
HETATM   22  C   UNL     1       7.928  21.155  55.046  1.00  0.00     0.003 A 
HETATM   23  C   UNL     1       7.892  21.510  53.697  1.00  0.00     0.000 A 
HETATM   24  C   UNL     1       7.997  22.850  53.326  1.00  0.00     0.003 A 
HETATM   25  C   UNL     1       8.141  23.837  54.302  1.00  0.00     0.037 A 
ENDBRANCH  19  20
ENDBRANCH  15  19
ENDBRANCH   6  13
BRANCH   1  26
HETATM   26  O   UNL     1       4.625  32.046  59.303  1.00  0.00    -0.353 OA
HETATM   27  C   UNL     1       3.469  31.348  58.864  1.00  0.00     0.210 C 
ENDBRANCH   1  26
BRANCH   2  28
HETATM   28  O   UNL     1       6.656  32.679  60.830  1.00  0.00    -0.353 OA
HETATM   29  C   UNL     1       6.743  32.111  62.129  1.00  0.00     0.210 C 
ENDBRANCH   2  28
TORSDOF 5
ENDMDL
MODEL 4
REMARK VINA RESULT:      -8.7      3.333      6.023
REMARK  5 active torsions:
REMARK  status: ('A' for Active; 'I' for Inactive)
REMARK    1  A    between atoms: O_2  and  C_3 
REMARK    2  A    between atoms: C_4  and  O_5 
REMARK    3  A    between atoms: C_10  and  C_11 
REMARK    4  A    between atoms: C_13  and  O_14 
REMARK    5  A    between atoms: O_14  and  C_15 
ROOT
HETATM    1  C   UNL     1       8.682  29.422  57.654  1.00  0.00     0.102 A 
HETATM    2  C   UNL     1       7.636  28.562  57.265  1.00  0.00     0.103 A 
HETATM    3  C   UNL     1       6.308  28.935  57.502  1.00  0.00     0.069 A 
HETATM    4  C   UNL     1       6.023  30.163  58.102  1.00  0.00     0.044 A 
HETATM    5  C   UNL     1       7.052  31.026  58.487  1.00  0.00    -0.020 A 
HETATM    6  C   UNL     1       6.730  32.320  59.201  1.00  0.00     0.063 C 
HETATM    7  C   UNL     1       5.328  32.826  58.846  1.00  0.00     0.117 C 
HETATM    8  C   UNL     1       4.286  31.736  58.810  1.00  0.00     0.223 C 
HETATM    9  O   UNL     1       3.104  31.949  59.071  1.00  0.00    -0.273 OA
HETATM   10  N   UNL     1       4.693  30.514  58.349  1.00  0.00    -0.327 N 
HETATM   11  C   UNL     1       8.383  30.648  58.259  1.00  0.00     0.049 A 
HETATM   12  H   UNL     1       3.955  29.833  58.214  1.00  0.00     0.169 HD
ENDROOT
BRANCH   6  13
HETATM   13  C   UNL     1       6.940  32.249  60.710  1.00  0.00    -0.046 A 
HETATM   14  C   UNL     1       5.859  32.237  61.605  1.00  0.00     0.045 A 
HETATM   15  C   UNL     1       6.072  32.300  62.986  1.00  0.00     0.076 A 
HETATM   16  C   UNL     1       7.370  32.276  63.491  1.00  0.00     0.037 A 
HETATM   17  C   UNL     1       8.455  32.245  62.616  1.00  0.00     0.003 A 
HETATM   18  C   UNL     1       8.242  32.247  61.236  1.00  0.00     0.008 A 
BRANCH  15  19
HETATM   19  O   UNL     1       5.052  32.342  63.911  1.00  0.00    -0.311 OA
BRANCH  19  20
HETATM   20  C   UNL     1       4.790  33.532  64.554  1.00  0.00     0.076 A 
HETATM   21  C   UNL     1       4.159  34.520  63.795  1.00  0.00     0.037 A 
HETATM   22  C   UNL     1       3.856  35.757  64.368  1.00  0.00     0.003 A 
HETATM   23  C   UNL     1       4.180  36.005  65.702  1.00  0.00     0.000 A 
HETATM   24  C   UNL     1       4.784  35.011  66.470  1.00  0.00     0.003 A 
HETATM   25  C   UNL     1       5.069  33.767  65.904  1.00  0.00     0.037 A 
ENDBRANCH  19  20
ENDBRANCH  15  19
ENDBRANCH   6  13
BRANCH   1  26
HETATM   26  O   UNL     1       9.958  28.990  57.388  1.00  0.00    -0.353 OA
HETATM   27  C   UNL     1      10.904  29.975  56.999  1.00  0.00     0.210 C 
ENDBRANCH   1  26
BRANCH   2  28
HETATM   28  O   UNL     1       8.018  27.384  56.671  1.00  0.00    -0.353 OA
HETATM   29  C   UNL     1       7.121  26.786  55.746  1.00  0.00     0.210 C 
ENDBRANCH   2  28
TORSDOF 5
ENDMDL
MODEL 5
REMARK VINA RESULT:      -8.6      3.702      7.385
REMARK  5 active torsions:
REMARK  status: ('A' for Active; 'I' for Inactive)
REMARK    1  A    between atoms: O_2  and  C_3 
REMARK    2  A    between atoms: C_4  and  O_5 
REMARK    3  A    between atoms: C_10  and  C_11 
REMARK    4  A    between atoms: C_13  and  O_14 
REMARK    5  A    between atoms: O_14  and  C_15 
ROOT
HETATM    1  C   UNL     1       4.835  28.257  51.775  1.00  0.00     0.102 A 
HETATM    2  C   UNL     1       3.642  28.957  52.046  1.00  0.00     0.103 A 
HETATM    3  C   UNL     1       3.433  29.502  53.318  1.00  0.00     0.069 A 
HETATM    4  C   UNL     1       4.413  29.370  54.304  1.00  0.00     0.044 A 
HETATM    5  C   UNL     1       5.601  28.683  54.045  1.00  0.00    -0.020 A 
HETATM    6  C   UNL     1       6.621  28.487  55.145  1.00  0.00     0.063 C 
HETATM    7  C   UNL     1       6.529  29.592  56.202  1.00  0.00     0.117 C 
HETATM    8  C   UNL     1       5.112  29.950  56.577  1.00  0.00     0.223 C 
HETATM    9  O   UNL     1       4.816  30.371  57.694  1.00  0.00    -0.273 OA
HETATM   10  N   UNL     1       4.182  29.905  55.575  1.00  0.00    -0.327 N 
HETATM   11  C   UNL     1       5.806  28.127  52.774  1.00  0.00     0.049 A 
HETATM   12  H   UNL     1       3.268  30.267  55.816  1.00  0.00     0.169 HD
ENDROOT
BRANCH   6  13
HETATM   13  C   UNL     1       6.574  27.098  55.774  1.00  0.00    -0.046 A 
HETATM   14  C   UNL     1       7.651  26.205  55.670  1.00  0.00     0.045 A 
HETATM   15  C   UNL     1       7.541  24.892  56.141  1.00  0.00     0.076 A 
HETATM   16  C   UNL     1       6.389  24.489  56.813  1.00  0.00     0.037 A 
HETATM   17  C   UNL     1       5.326  25.378  56.963  1.00  0.00     0.003 A 
HETATM   18  C   UNL     1       5.411  26.668  56.435  1.00  0.00     0.008 A 
BRANCH  15  19
HETATM   19  O   UNL     1       8.544  23.956  56.022  1.00  0.00    -0.311 OA
BRANCH  19  20
HETATM   20  C   UNL     1       8.322  22.844  55.239  1.00  0.00     0.076 A 
HETATM   21  C   UNL     1       8.115  23.077  53.877  1.00  0.00     0.037 A 
HETATM   22  C   UNL     1       7.882  22.007  53.011  1.00  0.00     0.003 A 
HETATM   23  C   UNL     1       7.861  20.703  53.504  1.00  0.00     0.000 A 
HETATM   24  C   UNL     1       8.095  20.465  54.858  1.00  0.00     0.003 A 
HETATM   25  C   UNL     1       8.348  21.532  55.721  1.00  0.00     0.037 A 
ENDBRANCH  19  20
ENDBRANCH  15  19
ENDBRANCH   6  13
BRANCH   1  26
HETATM   26  O   UNL     1       4.970  27.752  50.505  1.00  0.00    -0.353 OA
HETATM   27  C   UNL     1       5.024  26.338  50.376  1.00  0.00     0.210 C 
ENDBRANCH   1  26
BRANCH   2  28
HETATM   28  O   UNL     1       2.748  29.043  51.007  1.00  0.00    -0.353 OA
HETATM   29  C   UNL     1       2.589  30.303  50.373  1.00  0.00     0.210 C 
ENDBRANCH   2  28
TORSDOF 5
ENDMDL
MODEL 6
REMARK VINA RESULT:      -8.6      3.200      7.650
REMARK  5 active torsions:
REMARK  status: ('A' for Active; 'I' for Inactive)
REMARK    1  A    between atoms: O_2  and  C_3 
REMARK    2  A    between atoms: C_4  and  O_5 
REMARK    3  A    between atoms: C_10  and  C_11 
REMARK    4  A    between atoms: C_13  and  O_14 
REMARK    5  A    between atoms: O_14  and  C_15 
ROOT
HETATM    1  C   UNL     1       3.845  30.341  54.581  1.00  0.00     0.102 A 
HETATM    2  C   UNL     1       3.457  30.866  55.830  1.00  0.00     0.103 A 
HETATM    3  C   UNL     1       4.287  30.691  56.943  1.00  0.00     0.069 A 
HETATM    4  C   UNL     1       5.503  30.019  56.809  1.00  0.00     0.044 A 
HETATM    5  C   UNL     1       5.900  29.499  55.575  1.00  0.00    -0.020 A 
HETATM    6  C   UNL     1       7.187  28.711  55.462  1.00  0.00     0.063 C 
HETATM    7  C   UNL     1       8.195  29.119  56.540  1.00  0.00     0.117 C 
HETATM    8  C   UNL     1       7.575  29.310  57.902  1.00  0.00     0.223 C 
HETATM    9  O   UNL     1       8.201  29.113  58.942  1.00  0.00    -0.273 OA
HETATM   10  N   UNL     1       6.313  29.836  57.933  1.00  0.00    -0.327 N 
HETATM   11  C   UNL     1       5.064  29.665  54.461  1.00  0.00     0.049 A 
HETATM   12  H   UNL     1       5.964  30.072  58.854  1.00  0.00     0.169 HD
ENDROOT
BRANCH   6  13
HETATM   13  C   UNL     1       6.972  27.201  55.432  1.00  0.00    -0.046 A 
HETATM   14  C   UNL     1       7.645  26.378  54.515  1.00  0.00     0.045 A 
HETATM   15  C   UNL     1       7.340  25.017  54.417  1.00  0.00     0.076 A 
HETATM   16  C   UNL     1       6.431  24.442  55.303  1.00  0.00     0.037 A 
HETATM   17  C   UNL     1       5.785  25.237  56.248  1.00  0.00     0.003 A 
HETATM   18  C   UNL     1       6.042  26.609  56.303  1.00  0.00     0.008 A 
BRANCH  15  19
HETATM   19  O   UNL     1       7.929  24.170  53.504  1.00  0.00    -0.311 OA
BRANCH  19  20
HETATM   20  C   UNL     1       8.227  22.882  53.893  1.00  0.00     0.076 A 
HETATM   21  C   UNL     1       7.793  21.863  53.041  1.00  0.00     0.037 A 
HETATM   22  C   UNL     1       8.052  20.528  53.357  1.00  0.00     0.003 A 
HETATM   23  C   UNL     1       8.750  20.211  54.523  1.00  0.00     0.000 A 
HETATM   24  C   UNL     1       9.209  21.227  55.360  1.00  0.00     0.003 A 
HETATM   25  C   UNL     1       8.968  22.562  55.035  1.00  0.00     0.037 A 
ENDBRANCH  19  20
ENDBRANCH  15  19
ENDBRANCH   6  13
BRANCH   1  26
HETATM   26  O   UNL     1       2.982  30.554  53.534  1.00  0.00    -0.353 OA
HETATM   27  C   UNL     1       3.510  31.193  52.382  1.00  0.00     0.210 C 
ENDBRANCH   1  26
BRANCH   2  28
HETATM   28  O   UNL     1       2.251  31.522  55.855  1.00  0.00    -0.353 OA
HETATM   29  C   UNL     1       2.267  32.942  55.835  1.00  0.00     0.210 C 
ENDBRANCH   2  28
TORSDOF 5
ENDMDL
MODEL 7
REMARK VINA RESULT:      -8.6      6.436      8.769
REMARK  5 active torsions:
REMARK  status: ('A' for Active; 'I' for Inactive)
REMARK    1  A    between atoms: O_2  and  C_3 
REMARK    2  A    between atoms: C_4  and  O_5 
REMARK    3  A    between atoms: C_10  and  C_11 
REMARK    4  A    between atoms: C_13  and  O_14 
REMARK    5  A    between atoms: O_14  and  C_15 
ROOT
HETATM    1  C   UNL     1       3.294  26.940  48.163  1.00  0.00     0.102 A 
HETATM    2  C   UNL     1       2.148  27.705  48.460  1.00  0.00     0.103 A 
HETATM    3  C   UNL     1       2.147  28.543  49.581  1.00  0.00     0.069 A 
HETATM    4  C   UNL     1       3.284  28.636  50.385  1.00  0.00     0.044 A 
HETATM    5  C   UNL     1       4.427  27.887  50.097  1.00  0.00    -0.020 A 
HETATM    6  C   UNL     1       5.625  27.944  51.019  1.00  0.00     0.063 C 
HETATM    7  C   UNL     1       5.688  29.272  51.780  1.00  0.00     0.117 C 
HETATM    8  C   UNL     1       4.348  29.733  52.297  1.00  0.00     0.223 C 
HETATM    9  O   UNL     1       4.236  30.416  53.314  1.00  0.00    -0.273 OA
HETATM   10  N   UNL     1       3.261  29.464  51.511  1.00  0.00    -0.327 N 
HETATM   11  C   UNL     1       4.425  27.038  48.980  1.00  0.00     0.049 A 
HETATM   12  H   UNL     1       2.392  29.889  51.812  1.00  0.00     0.169 HD
ENDROOT
BRANCH   6  13
HETATM   13  C   UNL     1       5.722  26.748  51.961  1.00  0.00    -0.046 A 
HETATM   14  C   UNL     1       6.960  26.193  52.322  1.00  0.00     0.045 A 
HETATM   15  C   UNL     1       7.024  25.020  53.082  1.00  0.00     0.076 A 
HETATM   16  C   UNL     1       5.853  24.446  53.574  1.00  0.00     0.037 A 
HETATM   17  C   UNL     1       4.618  25.010  53.261  1.00  0.00     0.003 A 
HETATM   18  C   UNL     1       4.551  26.143  52.447  1.00  0.00     0.008 A 
BRANCH  15  19
HETATM   19  O   UNL     1       8.205  24.401  53.425  1.00  0.00    -0.311 OA
BRANCH  19  20
HETATM   20  C   UNL     1       8.177  23.068  53.774  1.00  0.00     0.076 A 
HETATM   21  C   UNL     1       8.270  22.784  55.138  1.00  0.00     0.037 A 
HETATM   22  C   UNL     1       8.250  21.460  55.581  1.00  0.00     0.003 A 
HETATM   23  C   UNL     1       8.131  20.419  54.660  1.00  0.00     0.000 A 
HETATM   24  C   UNL     1       8.010  20.701  53.300  1.00  0.00     0.003 A 
HETATM   25  C   UNL     1       8.009  22.025  52.858  1.00  0.00     0.037 A 
ENDBRANCH  19  20
ENDBRANCH  15  19
ENDBRANCH   6  13
BRANCH   1  26
HETATM   26  O   UNL     1       3.222  26.142  47.047  1.00  0.00    -0.353 OA
HETATM   27  C   UNL     1       3.017  24.753  47.260  1.00  0.00     0.210 C 
ENDBRANCH   1  26
BRANCH   2  28
HETATM   28  O   UNL     1       1.087  27.554  47.601  1.00  0.00    -0.353 OA
HETATM   29  C   UNL     1       0.757  28.647  46.757  1.00  0.00     0.210 C 
ENDBRANCH   2  28
TORSDOF 5
ENDMDL
MODEL 8
REMARK VINA RESULT:      -8.5      4.497      9.139
REMARK  5 active torsions:
REMARK  status: ('A' for Active; 'I' for Inactive)
REMARK    1  A    between atoms: O_2  and  C_3 
REMARK    2  A    between atoms: C_4  and  O_5 
REMARK    3  A    between atoms: C_10  and  C_11 
REMARK    4  A    between atoms: C_13  and  O_14 
REMARK    5  A    between atoms: O_14  and  C_15 
ROOT
HETATM    1  C   UNL     1       5.459  37.111  62.068  1.00  0.00     0.102 A 
HETATM    2  C   UNL     1       4.650  37.270  60.926  1.00  0.00     0.103 A 
HETATM    3  C   UNL     1       4.087  36.144  60.314  1.00  0.00     0.069 A 
HETATM    4  C   UNL     1       4.309  34.874  60.848  1.00  0.00     0.044 A 
HETATM    5  C   UNL     1       5.105  34.705  61.983  1.00  0.00    -0.020 A 
HETATM    6  C   UNL     1       5.396  33.316  62.507  1.00  0.00     0.063 C 
HETATM    7  C   UNL     1       4.286  32.328  62.132  1.00  0.00     0.117 C 
HETATM    8  C   UNL     1       3.796  32.484  60.713  1.00  0.00     0.223 C 
HETATM    9  O   UNL     1       3.348  31.540  60.066  1.00  0.00    -0.273 OA
HETATM   10  N   UNL     1       3.755  33.757  60.215  1.00  0.00    -0.327 N 
HETATM   11  C   UNL     1       5.678  35.832  62.591  1.00  0.00     0.049 A 
HETATM   12  H   UNL     1       3.308  33.855  59.312  1.00  0.00     0.169 HD
ENDROOT
BRANCH   6  13
HETATM   13  C   UNL     1       6.773  32.794  62.112  1.00  0.00    -0.046 A 
HETATM   14  C   UNL     1       7.288  32.977  60.819  1.00  0.00     0.045 A 
HETATM   15  C   UNL     1       8.495  32.382  60.438  1.00  0.00     0.076 A 
HETATM   16  C   UNL     1       9.251  31.682  61.376  1.00  0.00     0.037 A 
HETATM   17  C   UNL     1       8.775  31.527  62.676  1.00  0.00     0.003 A 
HETATM   18  C   UNL     1       7.538  32.066  63.038  1.00  0.00     0.008 A 
BRANCH  15  19
HETATM   19  O   UNL     1       9.025  32.483  59.170  1.00  0.00    -0.311 OA
BRANCH  19  20
HETATM   20  C   UNL     1       9.298  31.327  58.473  1.00  0.00     0.076 A 
HETATM   21  C   UNL     1       8.252  30.407  58.366  1.00  0.00     0.037 A 
HETATM   22  C   UNL     1       8.442  29.208  57.677  1.00  0.00     0.003 A 
HETATM   23  C   UNL     1       9.676  28.929  57.089  1.00  0.00     0.000 A 
HETATM   24  C   UNL     1      10.713  29.858  57.170  1.00  0.00     0.003 A 
HETATM   25  C   UNL     1      10.518  31.066  57.841  1.00  0.00     0.037 A 
ENDBRANCH  19  20
ENDBRANCH  15  19
ENDBRANCH   6  13
BRANCH   1  26
HETATM   26  O   UNL     1       5.975  38.260  62.615  1.00  0.00    -0.353 OA
HETATM   27  C   UNL     1       5.732  38.483  63.996  1.00  0.00     0.210 C 
ENDBRANCH   1  26
BRANCH   2  28
HETATM   28  O   UNL     1       4.480  38.560  60.486  1.00  0.00    -0.353 OA
HETATM   29  C   UNL     1       3.229  39.185  60.730  1.00  0.00     0.210 C 
ENDBRANCH   2  28
TORSDOF 5
ENDMDL
MODEL 9
REMARK VINA RESULT:      -8.2      3.189      8.358
REMARK  5 active torsions:
REMARK  status: ('A' for Active; 'I' for Inactive)
REMARK    1  A    between atoms: O_2  and  C_3 
REMARK    2  A    between atoms: C_4  and  O_5 
REMARK    3  A    between atoms: C_10  and  C_11 
REMARK    4  A    between atoms: C_13  and  O_14 
REMARK    5  A    between atoms: O_14  and  C_15 
ROOT
HETATM    1  C   UNL     1       5.086  33.823  62.154  1.00  0.00     0.102 A 
HETATM    2  C   UNL     1       5.113  33.056  63.336  1.00  0.00     0.103 A 
HETATM    3  C   UNL     1       6.088  32.064  63.495  1.00  0.00     0.069 A 
HETATM    4  C   UNL     1       7.040  31.854  62.496  1.00  0.00     0.044 A 
HETATM    5  C   UNL     1       7.025  32.612  61.323  1.00  0.00    -0.020 A 
HETATM    6  C   UNL     1       8.020  32.322  60.220  1.00  0.00     0.063 C 
HETATM    7  C   UNL     1       9.302  31.689  60.768  1.00  0.00     0.117 C 
HETATM    8  C   UNL     1       9.050  30.634  61.817  1.00  0.00     0.223 C 
HETATM    9  O   UNL     1       9.812  29.683  61.988  1.00  0.00    -0.273 OA
HETATM   10  N   UNL     1       7.997  30.847  62.662  1.00  0.00    -0.327 N 
HETATM   11  C   UNL     1       6.043  33.598  61.158  1.00  0.00     0.049 A 
HETATM   12  H   UNL     1       7.920  30.196  63.433  1.00  0.00     0.169 HD
ENDROOT
BRANCH   6  13
HETATM   13  C   UNL     1       7.432  31.507  59.073  1.00  0.00    -0.046 A 
HETATM   14  C   UNL     1       8.201  30.573  58.361  1.00  0.00     0.045 A 
HETATM   15  C   UNL     1       7.683  29.930  57.233  1.00  0.00     0.076 A 
HETATM   16  C   UNL     1       6.356  30.137  56.863  1.00  0.00     0.037 A 
HETATM   17  C   UNL     1       5.564  31.029  57.584  1.00  0.00     0.003 A 
HETATM   18  C   UNL     1       6.102  31.721  58.672  1.00  0.00     0.008 A 
BRANCH  15  19
HETATM   19  O   UNL     1       8.405  29.043  56.466  1.00  0.00    -0.311 OA
BRANCH  19  20
HETATM   20  C   UNL     1       7.938  27.754  56.327  1.00  0.00     0.076 A 
HETATM   21  C   UNL     1       7.999  26.948  57.467  1.00  0.00     0.037 A 
HETATM   22  C   UNL     1       7.547  25.628  57.416  1.00  0.00     0.003 A 
HETATM   23  C   UNL     1       7.029  25.114  56.228  1.00  0.00     0.000 A 
HETATM   24  C   UNL     1       6.941  25.924  55.096  1.00  0.00     0.003 A 
HETATM   25  C   UNL     1       7.373  27.250  55.152  1.00  0.00     0.037 A 
ENDBRANCH  19  20
ENDBRANCH  15  19
ENDBRANCH   6  13
BRANCH   1  26
HETATM   26  O   UNL     1       4.102  34.778  62.069  1.00  0.00    -0.353 OA
HETATM   27  C   UNL     1       4.211  35.724  61.016  1.00  0.00     0.210 C 
ENDBRANCH   1  26
BRANCH   2  28
HETATM   28  O   UNL     1       4.143  33.348  64.263  1.00  0.00    -0.353 OA
HETATM   29  C   UNL     1       4.564  33.789  65.546  1.00  0.00     0.210 C 
ENDBRANCH   2  28
TORSDOF 5
ENDMDL
MODEL 10
REMARK VINA RESULT:      -8.1      2.545      4.339
REMARK  5 active torsions:
REMARK  status: ('A' for Active; 'I' for Inactive)
REMARK    1  A    between atoms: O_2  and  C_3 
REMARK    2  A    between atoms: C_4  and  O_5 
REMARK    3  A    between atoms: C_10  and  C_11 
REMARK    4  A    between atoms: C_13  and  O_14 
REMARK    5  A    between atoms: O_14  and  C_15 
ROOT
HETATM    1  C   UNL     1       4.092  28.661  52.702  1.00  0.00     0.102 A 
HETATM    2  C   UNL     1       4.933  28.815  51.582  1.00  0.00     0.103 A 
HETATM    3  C   UNL     1       5.902  27.844  51.305  1.00  0.00     0.069 A 
HETATM    4  C   UNL     1       6.017  26.719  52.123  1.00  0.00     0.044 A 
HETATM    5  C   UNL     1       5.185  26.553  53.233  1.00  0.00    -0.020 A 
HETATM    6  C   UNL     1       5.371  25.364  54.151  1.00  0.00     0.063 C 
HETATM    7  C   UNL     1       5.999  24.177  53.415  1.00  0.00     0.117 C 
HETATM    8  C   UNL     1       7.127  24.569  52.494  1.00  0.00     0.223 C 
HETATM    9  O   UNL     1       8.063  23.811  52.242  1.00  0.00    -0.273 OA
HETATM   10  N   UNL     1       7.002  25.766  51.845  1.00  0.00    -0.327 N 
HETATM   11  C   UNL     1       4.221  27.531  53.517  1.00  0.00     0.049 A 
HETATM   12  H   UNL     1       7.704  25.953  51.140  1.00  0.00     0.169 HD
ENDROOT
BRANCH   6  13
HETATM   13  C   UNL     1       6.127  25.700  55.432  1.00  0.00    -0.046 A 
HETATM   14  C   UNL     1       6.147  27.002  55.957  1.00  0.00     0.045 A 
HETATM   15  C   UNL     1       6.949  27.317  57.059  1.00  0.00     0.076 A 
HETATM   16  C   UNL     1       7.663  26.312  57.709  1.00  0.00     0.037 A 
HETATM   17  C   UNL     1       7.621  25.006  57.226  1.00  0.00     0.003 A 
HETATM   18  C   UNL     1       6.871  24.704  56.086  1.00  0.00     0.008 A 
BRANCH  15  19
HETATM   19  O   UNL     1       7.048  28.585  57.588  1.00  0.00    -0.311 OA
BRANCH  19  20
HETATM   20  C   UNL     1       8.262  29.234  57.527  1.00  0.00     0.076 A 
HETATM   21  C   UNL     1       8.978  29.098  56.335  1.00  0.00     0.037 A 
HETATM   22  C   UNL     1      10.217  29.722  56.186  1.00  0.00     0.003 A 
HETATM   23  C   UNL     1      10.741  30.488  57.228  1.00  0.00     0.000 A 
HETATM   24  C   UNL     1      10.017  30.649  58.409  1.00  0.00     0.003 A 
HETATM   25  C   UNL     1       8.768  30.042  58.550  1.00  0.00     0.037 A 
ENDBRANCH  19  20
ENDBRANCH  15  19
ENDBRANCH   6  13
BRANCH   1  26
HETATM   26  O   UNL     1       3.164  29.652  52.909  1.00  0.00    -0.353 OA
HETATM   27  C   UNL     1       3.395  30.534  53.998  1.00  0.00     0.210 C 
ENDBRANCH   1  26
BRANCH   2  28
HETATM   28  O   UNL     1       4.732  29.948  50.833  1.00  0.00    -0.353 OA
HETATM   29  C   UNL     1       5.513  30.114  49.658  1.00  0.00     0.210 C 
ENDBRANCH   2  28
TORSDOF 5
ENDMDL
