MODEL 1
REMARK VINA RESULT:      -8.9      0.000      0.000
REMARK  5 active torsions:
REMARK  status: ('A' for Active; 'I' for Inactive)
REMARK    1  A    between atoms: C_2  and  C_3 
REMARK       I    between atoms: C_3  and  N_4 
REMARK    2  A    between atoms: N_4  and  C_5 
REMARK    3  A    between atoms: C_5  and  C_6 
REMARK    4  A    between atoms: C_5  and  C_17 
REMARK    5  A    between atoms: C_7  and  O_8 
ROOT
HETATM    1  C   UNL     1       6.407  26.815  55.096  1.00  0.00     0.154 C 
ENDROOT
BRANCH   1   2
HETATM    2  N   UNL     1       5.532  27.577  54.209  1.00  0.00    -0.348 N 
HETATM    3  C   UNL     1       4.478  28.314  54.701  1.00  0.00     0.218 C 
HETATM    4  O   UNL     1       4.109  28.272  55.872  1.00  0.00    -0.274 OA
HETATM    5  H   UNL     1       5.960  27.930  53.365  1.00  0.00     0.163 HD
BRANCH   3   6
HETATM    6  C   UNL     1       3.847  29.255  53.695  1.00  0.00     0.098 C 
HETATM    7  C   UNL     1       3.485  28.585  52.382  1.00  0.00     0.014 C 
ENDBRANCH   3   6
ENDBRANCH   1   2
BRANCH   1   8
HETATM    8  C   UNL     1       6.833  25.482  54.490  1.00  0.00     0.005 A 
HETATM    9  C   UNL     1       6.926  24.322  55.290  1.00  0.00     0.103 A 
HETATM   10  C   UNL     1       7.361  23.076  54.807  1.00  0.00     0.100 A 
HETATM   11  C   UNL     1       7.697  22.998  53.441  1.00  0.00    -0.004 A 
HETATM   12  N   UNL     1       7.445  21.987  55.610  1.00  0.00    -0.257 NA
HETATM   13  C   UNL     1       7.580  24.127  52.615  1.00  0.00     0.014 A 
HETATM   14  C   UNL     1       8.142  21.771  52.929  1.00  0.00     0.015 A 
HETATM   15  C   UNL     1       7.146  25.349  53.132  1.00  0.00     0.013 A 
HETATM   16  C   UNL     1       8.237  20.664  53.762  1.00  0.00     0.020 A 
HETATM   17  C   UNL     1       7.878  20.822  55.084  1.00  0.00     0.117 A 
BRANCH   9  18
HETATM   18  O   UNL     1       6.547  24.405  56.614  1.00  0.00    -0.358 OA
HETATM   19  H   UNL     1       5.566  24.501  56.597  1.00  0.00     0.218 HD
ENDBRANCH   9  18
ENDBRANCH   1   8
BRANCH   1  20
HETATM   20  C   UNL     1       7.575  27.678  55.582  1.00  0.00    -0.031 A 
HETATM   21  C   UNL     1       7.900  27.681  56.948  1.00  0.00     0.010 A 
HETATM   22  C   UNL     1       8.938  28.478  57.436  1.00  0.00     0.007 A 
HETATM   23  C   UNL     1       9.677  29.291  56.571  1.00  0.00    -0.062 A 
HETATM   24  C   UNL     1      10.806  30.130  57.091  1.00  0.00     0.048 C 
HETATM   25  C   UNL     1       9.387  29.265  55.203  1.00  0.00     0.007 A 
HETATM   26  C   UNL     1       8.346  28.471  54.715  1.00  0.00     0.010 A 
ENDBRANCH   1  20
TORSDOF 5
ENDMDL
MODEL 2
REMARK VINA RESULT:      -8.4      2.297      6.285
REMARK  5 active torsions:
REMARK  status: ('A' for Active; 'I' for Inactive)
REMARK    1  A    between atoms: C_2  and  C_3 
REMARK       I    between atoms: C_3  and  N_4 
REMARK    2  A    between atoms: N_4  and  C_5 
REMARK    3  A    between atoms: C_5  and  C_6 
REMARK    4  A    between atoms: C_5  and  C_17 
REMARK    5  A    between atoms: C_7  and  O_8 
ROOT
HETATM    1  C   UNL     1       6.950  27.452  53.756  1.00  0.00     0.154 C 
ENDROOT
BRANCH   1   2
HETATM    2  N   UNL     1       5.562  27.716  53.388  1.00  0.00    -0.348 N 
HETATM    3  C   UNL     1       5.245  28.493  52.296  1.00  0.00     0.218 C 
HETATM    4  O   UNL     1       6.075  29.130  51.652  1.00  0.00    -0.274 OA
HETATM    5  H   UNL     1       4.900  26.989  53.618  1.00  0.00     0.163 HD
BRANCH   3   6
HETATM    6  C   UNL     1       3.786  28.440  51.891  1.00  0.00     0.098 C 
HETATM    7  C   UNL     1       3.559  28.674  50.408  1.00  0.00     0.014 C 
ENDBRANCH   3   6
ENDBRANCH   1   2
BRANCH   1   8
HETATM    8  C   UNL     1       7.348  28.138  55.059  1.00  0.00     0.005 A 
HETATM    9  C   UNL     1       8.563  28.851  55.159  1.00  0.00     0.103 A 
HETATM   10  C   UNL     1       9.012  29.461  56.342  1.00  0.00     0.100 A 
HETATM   11  C   UNL     1       8.178  29.361  57.473  1.00  0.00    -0.004 A 
HETATM   12  N   UNL     1      10.190  30.129  56.400  1.00  0.00    -0.257 NA
HETATM   13  C   UNL     1       6.949  28.688  57.393  1.00  0.00     0.014 A 
HETATM   14  C   UNL     1       8.601  29.952  58.673  1.00  0.00     0.015 A 
HETATM   15  C   UNL     1       6.537  28.092  56.200  1.00  0.00     0.013 A 
HETATM   16  C   UNL     1       9.815  30.624  58.726  1.00  0.00     0.020 A 
HETATM   17  C   UNL     1      10.567  30.685  57.571  1.00  0.00     0.117 A 
BRANCH   9  18
HETATM   18  O   UNL     1       9.344  28.980  54.029  1.00  0.00    -0.358 OA
HETATM   19  H   UNL     1      10.230  29.259  54.358  1.00  0.00     0.218 HD
ENDBRANCH   9  18
ENDBRANCH   1   8
BRANCH   1  20
HETATM   20  C   UNL     1       7.246  25.950  53.729  1.00  0.00    -0.031 A 
HETATM   21  C   UNL     1       7.744  25.372  52.551  1.00  0.00     0.010 A 
HETATM   22  C   UNL     1       7.997  24.000  52.476  1.00  0.00     0.007 A 
HETATM   23  C   UNL     1       7.758  23.173  53.578  1.00  0.00    -0.062 A 
HETATM   24  C   UNL     1       8.050  21.704  53.506  1.00  0.00     0.048 C 
HETATM   25  C   UNL     1       7.300  23.745  54.769  1.00  0.00     0.007 A 
HETATM   26  C   UNL     1       7.043  25.116  54.843  1.00  0.00     0.010 A 
ENDBRANCH   1  20
TORSDOF 5
ENDMDL
MODEL 3
REMARK VINA RESULT:      -8.2      6.037      8.653
REMARK  5 active torsions:
REMARK  status: ('A' for Active; 'I' for Inactive)
REMARK    1  A    between atoms: C_2  and  C_3 
REMARK       I    between atoms: C_3  and  N_4 
REMARK    2  A    between atoms: N_4  and  C_5 
REMARK    3  A    between atoms: C_5  and  C_6 
REMARK    4  A    between atoms: C_5  and  C_17 
REMARK    5  A    between atoms: C_7  and  O_8 
ROOT
HETATM    1  C   UNL     1       6.159  32.269  60.515  1.00  0.00     0.154 C 
ENDROOT
BRANCH   1   2
HETATM    2  N   UNL     1       5.359  33.258  59.797  1.00  0.00    -0.348 N 
HETATM    3  C   UNL     1       4.095  32.961  59.337  1.00  0.00     0.218 C 
HETATM    4  O   UNL     1       3.612  31.831  59.361  1.00  0.00    -0.274 OA
HETATM    5  H   UNL     1       5.520  34.222  60.049  1.00  0.00     0.163 HD
BRANCH   3   6
HETATM    6  C   UNL     1       3.301  34.162  58.866  1.00  0.00     0.098 C 
HETATM    7  C   UNL     1       3.648  35.444  59.602  1.00  0.00     0.014 C 
ENDBRANCH   3   6
ENDBRANCH   1   2
BRANCH   1   8
HETATM    8  C   UNL     1       7.406  31.854  59.740  1.00  0.00     0.005 A 
HETATM    9  C   UNL     1       7.329  30.896  58.706  1.00  0.00     0.103 A 
HETATM   10  C   UNL     1       8.444  30.432  57.990  1.00  0.00     0.100 A 
HETATM   11  C   UNL     1       9.697  30.984  58.324  1.00  0.00    -0.004 A 
HETATM   12  N   UNL     1       8.330  29.503  57.009  1.00  0.00    -0.257 NA
HETATM   13  C   UNL     1       9.798  31.964  59.324  1.00  0.00     0.014 A 
HETATM   14  C   UNL     1      10.833  30.536  57.633  1.00  0.00     0.015 A 
HETATM   15  C   UNL     1       8.666  32.398  60.016  1.00  0.00     0.013 A 
HETATM   16  C   UNL     1      10.707  29.575  56.639  1.00  0.00     0.020 A 
HETATM   17  C   UNL     1       9.444  29.095  56.365  1.00  0.00     0.117 A 
BRANCH   9  18
HETATM   18  O   UNL     1       6.087  30.402  58.359  1.00  0.00    -0.358 OA
HETATM   19  H   UNL     1       5.946  29.623  58.947  1.00  0.00     0.218 HD
ENDBRANCH   9  18
ENDBRANCH   1   8
BRANCH   1  20
HETATM   20  C   UNL     1       6.443  32.732  61.946  1.00  0.00    -0.031 A 
HETATM   21  C   UNL     1       5.810  33.889  62.428  1.00  0.00     0.010 A 
HETATM   22  C   UNL     1       6.067  34.362  63.718  1.00  0.00     0.007 A 
HETATM   23  C   UNL     1       6.962  33.690  64.556  1.00  0.00    -0.062 A 
HETATM   24  C   UNL     1       7.220  34.184  65.948  1.00  0.00     0.048 C 
HETATM   25  C   UNL     1       7.565  32.514  64.100  1.00  0.00     0.007 A 
HETATM   26  C   UNL     1       7.313  32.043  62.809  1.00  0.00     0.010 A 
ENDBRANCH   1  20
TORSDOF 5
ENDMDL
MODEL 4
REMARK VINA RESULT:      -8.1      1.862      6.267
REMARK  5 active torsions:
REMARK  status: ('A' for Active; 'I' for Inactive)
REMARK    1  A    between atoms: C_2  and  C_3 
REMARK       I    between atoms: C_3  and  N_4 
REMARK    2  A    between atoms: N_4  and  C_5 
REMARK    3  A    between atoms: C_5  and  C_6 
REMARK    4  A    between atoms: C_5  and  C_17 
REMARK    5  A    between atoms: C_7  and  O_8 
ROOT
HETATM    1  C   UNL     1       6.424  25.621  54.600  1.00  0.00     0.154 C 
ENDROOT
BRANCH   1   2
HETATM    2  N   UNL     1       7.411  26.471  55.261  1.00  0.00    -0.348 N 
HETATM    3  C   UNL     1       7.174  27.012  56.505  1.00  0.00     0.218 C 
HETATM    4  O   UNL     1       6.089  26.947  57.078  1.00  0.00    -0.274 OA
HETATM    5  H   UNL     1       8.377  26.276  55.042  1.00  0.00     0.163 HD
BRANCH   3   6
HETATM    6  C   UNL     1       8.390  27.631  57.161  1.00  0.00     0.098 C 
HETATM    7  C   UNL     1       8.078  28.888  57.953  1.00  0.00     0.014 C 
ENDBRANCH   3   6
ENDBRANCH   1   2
BRANCH   1   8
HETATM    8  C   UNL     1       5.830  26.274  53.357  1.00  0.00     0.005 A 
HETATM    9  C   UNL     1       4.775  27.207  53.463  1.00  0.00     0.103 A 
HETATM   10  C   UNL     1       4.150  27.805  52.357  1.00  0.00     0.100 A 
HETATM   11  C   UNL     1       4.633  27.456  51.080  1.00  0.00    -0.004 A 
HETATM   12  N   UNL     1       3.133  28.690  52.501  1.00  0.00    -0.257 NA
HETATM   13  C   UNL     1       5.703  26.558  50.946  1.00  0.00     0.014 A 
HETATM   14  C   UNL     1       4.025  28.030  49.953  1.00  0.00     0.015 A 
HETATM   15  C   UNL     1       6.298  25.982  52.069  1.00  0.00     0.013 A 
HETATM   16  C   UNL     1       2.976  28.926  50.111  1.00  0.00     0.020 A 
HETATM   17  C   UNL     1       2.571  29.223  51.396  1.00  0.00     0.117 A 
BRANCH   9  18
HETATM   18  O   UNL     1       4.348  27.573  54.723  1.00  0.00    -0.358 OA
HETATM   19  H   UNL     1       3.568  26.999  54.909  1.00  0.00     0.218 HD
ENDBRANCH   9  18
ENDBRANCH   1   8
BRANCH   1  20
HETATM   20  C   UNL     1       6.988  24.219  54.356  1.00  0.00    -0.031 A 
HETATM   21  C   UNL     1       7.160  23.352  55.447  1.00  0.00     0.010 A 
HETATM   22  C   UNL     1       7.702  22.076  55.270  1.00  0.00     0.007 A 
HETATM   23  C   UNL     1       8.083  21.636  53.999  1.00  0.00    -0.062 A 
HETATM   24  C   UNL     1       8.643  20.258  53.805  1.00  0.00     0.048 C 
HETATM   25  C   UNL     1       7.878  22.477  52.901  1.00  0.00     0.007 A 
HETATM   26  C   UNL     1       7.341  23.754  53.077  1.00  0.00     0.010 A 
ENDBRANCH   1  20
TORSDOF 5
ENDMDL
MODEL 5
REMARK VINA RESULT:      -8.0      1.560      4.031
REMARK  5 active torsions:
REMARK  status: ('A' for Active; 'I' for Inactive)
REMARK    1  A    between atoms: C_2  and  C_3 
REMARK       I    between atoms: C_3  and  N_4 
REMARK    2  A    between atoms: N_4  and  C_5 
REMARK    3  A    between atoms: C_5  and  C_6 
REMARK    4  A    between atoms: C_5  and  C_17 
REMARK    5  A    between atoms: C_7  and  O_8 
ROOT
HETATM    1  C   UNL     1       7.319  26.952  54.299  1.00  0.00     0.154 C 
ENDROOT
BRANCH   1   2
HETATM    2  N   UNL     1       7.254  27.196  55.737  1.00  0.00    -0.348 N 
HETATM    3  C   UNL     1       7.850  28.300  56.305  1.00  0.00     0.218 C 
HETATM    4  O   UNL     1       8.587  29.066  55.688  1.00  0.00    -0.274 OA
HETATM    5  H   UNL     1       6.429  26.852  56.206  1.00  0.00     0.163 HD
BRANCH   3   6
HETATM    6  C   UNL     1       7.460  28.551  57.747  1.00  0.00     0.098 C 
HETATM    7  C   UNL     1       8.254  29.665  58.404  1.00  0.00     0.014 C 
ENDBRANCH   3   6
ENDBRANCH   1   2
BRANCH   1   8
HETATM    8  C   UNL     1       7.504  25.475  53.965  1.00  0.00     0.005 A 
HETATM    9  C   UNL     1       7.408  24.489  54.972  1.00  0.00     0.103 A 
HETATM   10  C   UNL     1       7.618  23.120  54.742  1.00  0.00     0.100 A 
HETATM   11  C   UNL     1       7.918  22.728  53.422  1.00  0.00    -0.004 A 
HETATM   12  N   UNL     1       7.526  22.205  55.738  1.00  0.00    -0.257 NA
HETATM   13  C   UNL     1       7.985  23.683  52.395  1.00  0.00     0.014 A 
HETATM   14  C   UNL     1       8.142  21.368  53.161  1.00  0.00     0.015 A 
HETATM   15  C   UNL     1       7.772  25.036  52.663  1.00  0.00     0.013 A 
HETATM   16  C   UNL     1       8.058  20.440  54.190  1.00  0.00     0.020 A 
HETATM   17  C   UNL     1       7.748  20.904  55.451  1.00  0.00     0.117 A 
BRANCH   9  18
HETATM   18  O   UNL     1       7.066  24.886  56.248  1.00  0.00    -0.358 OA
HETATM   19  H   UNL     1       7.175  24.081  56.807  1.00  0.00     0.218 HD
ENDBRANCH   9  18
ENDBRANCH   1   8
BRANCH   1  20
HETATM   20  C   UNL     1       6.136  27.607  53.581  1.00  0.00    -0.031 A 
HETATM   21  C   UNL     1       4.841  27.427  54.092  1.00  0.00     0.010 A 
HETATM   22  C   UNL     1       3.732  27.983  53.448  1.00  0.00     0.007 A 
HETATM   23  C   UNL     1       3.891  28.731  52.278  1.00  0.00    -0.062 A 
HETATM   24  C   UNL     1       2.704  29.347  51.599  1.00  0.00     0.048 C 
HETATM   25  C   UNL     1       5.181  28.950  51.783  1.00  0.00     0.007 A 
HETATM   26  C   UNL     1       6.290  28.392  52.424  1.00  0.00     0.010 A 
ENDBRANCH   1  20
TORSDOF 5
ENDMDL
MODEL 6
REMARK VINA RESULT:      -8.0      1.616      2.224
REMARK  5 active torsions:
REMARK  status: ('A' for Active; 'I' for Inactive)
REMARK    1  A    between atoms: C_2  and  C_3 
REMARK       I    between atoms: C_3  and  N_4 
REMARK    2  A    between atoms: N_4  and  C_5 
REMARK    3  A    between atoms: C_5  and  C_6 
REMARK    4  A    between atoms: C_5  and  C_17 
REMARK    5  A    between atoms: C_7  and  O_8 
ROOT
HETATM    1  C   UNL     1       6.687  26.411  55.068  1.00  0.00     0.154 C 
ENDROOT
BRANCH   1   2
HETATM    2  N   UNL     1       6.531  26.879  53.693  1.00  0.00    -0.348 N 
HETATM    3  C   UNL     1       5.429  27.607  53.304  1.00  0.00     0.218 C 
HETATM    4  O   UNL     1       4.448  27.789  54.021  1.00  0.00    -0.274 OA
HETATM    5  H   UNL     1       7.388  27.077  53.196  1.00  0.00     0.163 HD
BRANCH   3   6
HETATM    6  C   UNL     1       5.551  28.247  51.937  1.00  0.00     0.098 C 
HETATM    7  C   UNL     1       5.315  27.278  50.792  1.00  0.00     0.014 C 
ENDBRANCH   3   6
ENDBRANCH   1   2
BRANCH   1   8
HETATM    8  C   UNL     1       7.348  25.039  55.145  1.00  0.00     0.005 A 
HETATM    9  C   UNL     1       7.151  24.083  54.125  1.00  0.00     0.103 A 
HETATM   10  C   UNL     1       7.688  22.785  54.160  1.00  0.00     0.100 A 
HETATM   11  C   UNL     1       8.482  22.448  55.274  1.00  0.00    -0.004 A 
HETATM   12  N   UNL     1       7.467  21.892  53.164  1.00  0.00    -0.257 NA
HETATM   13  C   UNL     1       8.724  23.391  56.286  1.00  0.00     0.014 A 
HETATM   14  C   UNL     1       9.027  21.157  55.343  1.00  0.00     0.015 A 
HETATM   15  C   UNL     1       8.171  24.670  56.217  1.00  0.00     0.013 A 
HETATM   16  C   UNL     1       8.785  20.246  54.324  1.00  0.00     0.020 A 
HETATM   17  C   UNL     1       8.006  20.659  53.263  1.00  0.00     0.117 A 
BRANCH   9  18
HETATM   18  O   UNL     1       6.410  24.446  53.019  1.00  0.00    -0.358 OA
HETATM   19  H   UNL     1       6.988  24.251  52.245  1.00  0.00     0.218 HD
ENDBRANCH   9  18
ENDBRANCH   1   8
BRANCH   1  20
HETATM   20  C   UNL     1       7.364  27.477  55.934  1.00  0.00    -0.031 A 
HETATM   21  C   UNL     1       8.349  28.298  55.362  1.00  0.00     0.010 A 
HETATM   22  C   UNL     1       9.013  29.261  56.127  1.00  0.00     0.007 A 
HETATM   23  C   UNL     1       8.707  29.425  57.482  1.00  0.00    -0.062 A 
HETATM   24  C   UNL     1       9.403  30.474  58.298  1.00  0.00     0.048 C 
HETATM   25  C   UNL     1       7.700  28.640  58.051  1.00  0.00     0.007 A 
HETATM   26  C   UNL     1       7.039  27.674  57.288  1.00  0.00     0.010 A 
ENDBRANCH   1  20
TORSDOF 5
ENDMDL
MODEL 7
REMARK VINA RESULT:      -7.8      1.877      6.594
REMARK  5 active torsions:
REMARK  status: ('A' for Active; 'I' for Inactive)
REMARK    1  A    between atoms: C_2  and  C_3 
REMARK       I    between atoms: C_3  and  N_4 
REMARK    2  A    between atoms: N_4  and  C_5 
REMARK    3  A    between atoms: C_5  and  C_6 
REMARK    4  A    between atoms: C_5  and  C_17 
REMARK    5  A    between atoms: C_7  and  O_8 
ROOT
HETATM    1  C   UNL     1       6.070  26.727  54.373  1.00  0.00     0.154 C 
ENDROOT
BRANCH   1   2
HETATM    2  N   UNL     1       6.969  25.880  53.594  1.00  0.00    -0.348 N 
HETATM    3  C   UNL     1       7.106  24.537  53.868  1.00  0.00     0.218 C 
HETATM    4  O   UNL     1       6.613  23.991  54.852  1.00  0.00    -0.274 OA
HETATM    5  H   UNL     1       7.101  26.148  52.630  1.00  0.00     0.163 HD
BRANCH   3   6
HETATM    6  C   UNL     1       7.853  23.754  52.807  1.00  0.00     0.098 C 
HETATM    7  C   UNL     1       7.859  22.256  53.051  1.00  0.00     0.014 C 
ENDBRANCH   3   6
ENDBRANCH   1   2
BRANCH   1   8
HETATM    8  C   UNL     1       6.806  27.530  55.441  1.00  0.00     0.005 A 
HETATM    9  C   UNL     1       7.942  28.300  55.112  1.00  0.00     0.103 A 
HETATM   10  C   UNL     1       8.695  29.020  56.054  1.00  0.00     0.100 A 
HETATM   11  C   UNL     1       8.259  28.975  57.393  1.00  0.00    -0.004 A 
HETATM   12  N   UNL     1       9.787  29.741  55.698  1.00  0.00    -0.257 NA
HETATM   13  C   UNL     1       7.112  28.247  57.744  1.00  0.00     0.014 A 
HETATM   14  C   UNL     1       8.993  29.678  58.361  1.00  0.00     0.015 A 
HETATM   15  C   UNL     1       6.391  27.541  56.779  1.00  0.00     0.013 A 
HETATM   16  C   UNL     1      10.118  30.402  57.989  1.00  0.00     0.020 A 
HETATM   17  C   UNL     1      10.470  30.404  56.655  1.00  0.00     0.117 A 
BRANCH   9  18
HETATM   18  O   UNL     1       8.326  28.371  53.788  1.00  0.00    -0.358 OA
HETATM   19  H   UNL     1       8.966  27.632  53.664  1.00  0.00     0.218 HD
ENDBRANCH   9  18
ENDBRANCH   1   8
BRANCH   1  20
HETATM   20  C   UNL     1       5.188  27.576  53.455  1.00  0.00    -0.031 A 
HETATM   21  C   UNL     1       4.284  28.487  54.025  1.00  0.00     0.010 A 
HETATM   22  C   UNL     1       3.440  29.258  53.222  1.00  0.00     0.007 A 
HETATM   23  C   UNL     1       3.478  29.136  51.829  1.00  0.00    -0.062 A 
HETATM   24  C   UNL     1       2.588  29.979  50.966  1.00  0.00     0.048 C 
HETATM   25  C   UNL     1       4.402  28.261  51.250  1.00  0.00     0.007 A 
HETATM   26  C   UNL     1       5.244  27.487  52.053  1.00  0.00     0.010 A 
ENDBRANCH   1  20
TORSDOF 5
ENDMDL
MODEL 8
REMARK VINA RESULT:      -7.7      2.329      4.360
REMARK  5 active torsions:
REMARK  status: ('A' for Active; 'I' for Inactive)
REMARK    1  A    between atoms: C_2  and  C_3 
REMARK       I    between atoms: C_3  and  N_4 
REMARK    2  A    between atoms: N_4  and  C_5 
REMARK    3  A    between atoms: C_5  and  C_6 
REMARK    4  A    between atoms: C_5  and  C_17 
REMARK    5  A    between atoms: C_7  and  O_8 
ROOT
HETATM    1  C   UNL     1       7.873  28.158  55.537  1.00  0.00     0.154 C 
ENDROOT
BRANCH   1   2
HETATM    2  N   UNL     1       8.907  28.496  56.512  1.00  0.00    -0.348 N 
HETATM    3  C   UNL     1       9.919  29.380  56.208  1.00  0.00     0.218 C 
HETATM    4  O   UNL     1      10.112  29.827  55.080  1.00  0.00    -0.274 OA
HETATM    5  H   UNL     1       8.625  28.466  57.481  1.00  0.00     0.163 HD
BRANCH   3   6
HETATM    6  C   UNL     1      10.737  29.830  57.400  1.00  0.00     0.098 C 
HETATM    7  C   UNL     1      10.199  31.084  58.066  1.00  0.00     0.014 C 
ENDBRANCH   3   6
ENDBRANCH   1   2
BRANCH   1   8
HETATM    8  C   UNL     1       7.781  26.657  55.282  1.00  0.00     0.005 A 
HETATM    9  C   UNL     1       8.030  25.731  56.319  1.00  0.00     0.103 A 
HETATM   10  C   UNL     1       8.011  24.338  56.139  1.00  0.00     0.100 A 
HETATM   11  C   UNL     1       7.704  23.861  54.850  1.00  0.00    -0.004 A 
HETATM   12  N   UNL     1       8.265  23.481  57.159  1.00  0.00    -0.257 NA
HETATM   13  C   UNL     1       7.418  24.758  53.809  1.00  0.00     0.014 A 
HETATM   14  C   UNL     1       7.685  22.474  54.634  1.00  0.00     0.015 A 
HETATM   15  C   UNL     1       7.448  26.137  54.026  1.00  0.00     0.013 A 
HETATM   16  C   UNL     1       7.959  21.605  55.682  1.00  0.00     0.020 A 
HETATM   17  C   UNL     1       8.239  22.154  56.916  1.00  0.00     0.117 A 
BRANCH   9  18
HETATM   18  O   UNL     1       8.281  26.216  57.586  1.00  0.00    -0.358 OA
HETATM   19  H   UNL     1       9.248  26.408  57.602  1.00  0.00     0.218 HD
ENDBRANCH   9  18
ENDBRANCH   1   8
BRANCH   1  20
HETATM   20  C   UNL     1       6.538  28.808  55.911  1.00  0.00    -0.031 A 
HETATM   21  C   UNL     1       5.562  28.985  54.917  1.00  0.00     0.010 A 
HETATM   22  C   UNL     1       4.344  29.603  55.210  1.00  0.00     0.007 A 
HETATM   23  C   UNL     1       4.072  30.058  56.504  1.00  0.00    -0.062 A 
HETATM   24  C   UNL     1       2.755  30.700  56.825  1.00  0.00     0.048 C 
HETATM   25  C   UNL     1       5.021  29.851  57.510  1.00  0.00     0.007 A 
HETATM   26  C   UNL     1       6.241  29.237  57.216  1.00  0.00     0.010 A 
ENDBRANCH   1  20
TORSDOF 5
ENDMDL
MODEL 9
REMARK VINA RESULT:      -7.5     10.968     14.738
REMARK  5 active torsions:
REMARK  status: ('A' for Active; 'I' for Inactive)
REMARK    1  A    between atoms: C_2  and  C_3 
REMARK       I    between atoms: C_3  and  N_4 
REMARK    2  A    between atoms: N_4  and  C_5 
REMARK    3  A    between atoms: C_5  and  C_6 
REMARK    4  A    between atoms: C_5  and  C_17 
REMARK    5  A    between atoms: C_7  and  O_8 
ROOT
HETATM    1  C   UNL     1       5.256  35.257  64.275  1.00  0.00     0.154 C 
ENDROOT
BRANCH   1   2
HETATM    2  N   UNL     1       5.582  35.384  65.693  1.00  0.00    -0.348 N 
HETATM    3  C   UNL     1       4.617  35.241  66.666  1.00  0.00     0.218 C 
HETATM    4  O   UNL     1       3.417  35.146  66.423  1.00  0.00    -0.274 OA
HETATM    5  H   UNL     1       6.517  35.110  65.956  1.00  0.00     0.163 HD
BRANCH   3   6
HETATM    6  C   UNL     1       5.162  35.126  68.075  1.00  0.00     0.098 C 
HETATM    7  C   UNL     1       6.561  34.541  68.139  1.00  0.00     0.014 C 
ENDBRANCH   3   6
ENDBRANCH   1   2
BRANCH   1   8
HETATM    8  C   UNL     1       5.149  36.609  63.577  1.00  0.00     0.005 A 
HETATM    9  C   UNL     1       3.959  36.992  62.921  1.00  0.00     0.103 A 
HETATM   10  C   UNL     1       3.813  38.199  62.217  1.00  0.00     0.100 A 
HETATM   11  C   UNL     1       4.921  39.068  62.195  1.00  0.00    -0.004 A 
HETATM   12  N   UNL     1       2.655  38.526  61.592  1.00  0.00    -0.257 NA
HETATM   13  C   UNL     1       6.105  38.729  62.868  1.00  0.00     0.014 A 
HETATM   14  C   UNL     1       4.810  40.278  61.494  1.00  0.00     0.015 A 
HETATM   15  C   UNL     1       6.213  37.519  63.556  1.00  0.00     0.013 A 
HETATM   16  C   UNL     1       3.624  40.600  60.846  1.00  0.00     0.020 A 
HETATM   17  C   UNL     1       2.583  39.698  60.926  1.00  0.00     0.117 A 
BRANCH   9  18
HETATM   18  O   UNL     1       2.869  36.149  62.993  1.00  0.00    -0.358 OA
HETATM   19  H   UNL     1       3.099  35.487  63.687  1.00  0.00     0.218 HD
ENDBRANCH   9  18
ENDBRANCH   1   8
BRANCH   1  20
HETATM   20  C   UNL     1       6.204  34.273  63.583  1.00  0.00    -0.031 A 
HETATM   21  C   UNL     1       7.131  33.558  64.358  1.00  0.00     0.010 A 
HETATM   22  C   UNL     1       8.035  32.676  63.761  1.00  0.00     0.007 A 
HETATM   23  C   UNL     1       8.033  32.487  62.375  1.00  0.00    -0.062 A 
HETATM   24  C   UNL     1       8.988  31.522  61.737  1.00  0.00     0.048 C 
HETATM   25  C   UNL     1       7.087  33.163  61.600  1.00  0.00     0.007 A 
HETATM   26  C   UNL     1       6.186  34.050  62.195  1.00  0.00     0.010 A 
ENDBRANCH   1  20
TORSDOF 5
ENDMDL
MODEL 10
REMARK VINA RESULT:      -7.1      9.524     12.321
REMARK  5 active torsions:
REMARK  status: ('A' for Active; 'I' for Inactive)
REMARK    1  A    between atoms: C_2  and  C_3 
REMARK       I    between atoms: C_3  and  N_4 
REMARK    2  A    between atoms: N_4  and  C_5 
REMARK    3  A    between atoms: C_5  and  C_6 
REMARK    4  A    between atoms: C_5  and  C_17 
REMARK    5  A    between atoms: C_7  and  O_8 
ROOT
HETATM    1  C   UNL     1       4.598  33.914  62.601  1.00  0.00     0.154 C 
ENDROOT
BRANCH   1   2
HETATM    2  N   UNL     1       4.520  34.550  63.913  1.00  0.00    -0.348 N 
HETATM    3  C   UNL     1       3.388  34.454  64.692  1.00  0.00     0.218 C 
HETATM    4  O   UNL     1       2.332  33.966  64.296  1.00  0.00    -0.274 OA
HETATM    5  H   UNL     1       5.393  34.634  64.414  1.00  0.00     0.163 HD
BRANCH   3   6
HETATM    6  C   UNL     1       3.568  34.926  66.120  1.00  0.00     0.098 C 
HETATM    7  C   UNL     1       4.616  34.143  66.890  1.00  0.00     0.014 C 
ENDBRANCH   3   6
ENDBRANCH   1   2
BRANCH   1   8
HETATM    8  C   UNL     1       4.143  34.838  61.477  1.00  0.00     0.005 A 
HETATM    9  C   UNL     1       3.156  34.425  60.556  1.00  0.00     0.103 A 
HETATM   10  C   UNL     1       2.729  35.206  59.469  1.00  0.00     0.100 A 
HETATM   11  C   UNL     1       3.318  36.477  59.322  1.00  0.00    -0.004 A 
HETATM   12  N   UNL     1       1.785  34.768  58.600  1.00  0.00    -0.257 NA
HETATM   13  C   UNL     1       4.276  36.928  60.243  1.00  0.00     0.014 A 
HETATM   14  C   UNL     1       2.919  37.279  58.242  1.00  0.00     0.015 A 
HETATM   15  C   UNL     1       4.676  36.122  61.310  1.00  0.00     0.013 A 
HETATM   16  C   UNL     1       1.961  36.818  57.350  1.00  0.00     0.020 A 
HETATM   17  C   UNL     1       1.426  35.566  57.572  1.00  0.00     0.117 A 
BRANCH   9  18
HETATM   18  O   UNL     1       2.556  33.196  60.743  1.00  0.00    -0.358 OA
HETATM   19  H   UNL     1       1.682  33.263  60.292  1.00  0.00     0.218 HD
ENDBRANCH   9  18
ENDBRANCH   1   8
BRANCH   1  20
HETATM   20  C   UNL     1       5.980  33.295  62.376  1.00  0.00    -0.031 A 
HETATM   21  C   UNL     1       6.329  32.851  61.090  1.00  0.00     0.010 A 
HETATM   22  C   UNL     1       7.569  32.252  60.850  1.00  0.00     0.007 A 
HETATM   23  C   UNL     1       8.489  32.083  61.889  1.00  0.00    -0.062 A 
HETATM   24  C   UNL     1       9.828  31.462  61.628  1.00  0.00     0.048 C 
HETATM   25  C   UNL     1       8.167  32.558  63.164  1.00  0.00     0.007 A 
HETATM   26  C   UNL     1       6.926  33.153  63.406  1.00  0.00     0.010 A 
ENDBRANCH   1  20
TORSDOF 5
ENDMDL
