MODEL 1
REMARK VINA RESULT:      -8.8      0.000      0.000
REMARK  6 active torsions:
REMARK  status: ('A' for Active; 'I' for Inactive)
REMARK    1  A    between atoms: O_1  and  C_2 
REMARK    2  A    between atoms: C_2  and  CA_3 
REMARK    3  A    between atoms: CA_3  and  N_4 
REMARK    4  A    between atoms: CA_3  and  C_20 
REMARK       I    between atoms: N_4  and  C_5 
REMARK       I    between atoms: C_5  and  N_7 
REMARK    5  A    between atoms: N_7  and  C_8 
REMARK    6  A    between atoms: C_11  and  C_14 
ROOT
HETATM    1  N   UNL     1       7.738  26.521  56.243  1.00  0.00    -0.332 N 
HETATM    2  C   UNL     1       7.676  27.784  56.722  1.00  0.00     0.322 C 
HETATM    3  O   UNL     1       6.748  28.566  56.772  1.00  0.00    -0.247 OA
HETATM    4  N   UNL     1       8.937  28.185  57.177  1.00  0.00    -0.289 N 
HETATM    5  H   UNL     1       8.578  25.968  56.310  1.00  0.00     0.165 HD
HETATM    6  H   UNL     1       9.778  27.651  57.058  1.00  0.00     0.172 HD
ENDROOT
BRANCH   1   7
HETATM    7  CA  UNL     1       6.560  25.838  55.715  1.00  0.00     0.143 C 
BRANCH   7   8
HETATM    8  C   UNL     1       5.591  25.376  56.832  1.00  0.00     0.194 C 
BRANCH   8   9
HETATM    9  O   UNL     1       4.547  26.327  57.024  1.00  0.00    -0.398 OA
HETATM   10  H   UNL     1       4.785  26.858  57.807  1.00  0.00     0.209 HD
ENDBRANCH   8   9
ENDBRANCH   7   8
BRANCH   7  11
HETATM   11  C   UNL     1       7.034  24.689  54.840  1.00  0.00    -0.033 A 
HETATM   12  C   UNL     1       7.389  24.933  53.505  1.00  0.00     0.009 A 
HETATM   13  C   UNL     1       7.881  23.904  52.698  1.00  0.00     0.001 A 
HETATM   14  C   UNL     1       8.030  22.620  53.217  1.00  0.00     0.000 A 
HETATM   15  C   UNL     1       7.691  22.362  54.541  1.00  0.00     0.001 A 
HETATM   16  C   UNL     1       7.201  23.389  55.351  1.00  0.00     0.009 A 
ENDBRANCH   7  11
ENDBRANCH   1   7
BRANCH   4  17
HETATM   17  C   UNL     1       9.111  29.345  57.786  1.00  0.00     0.153 A 
HETATM   18  N   UNL     1       8.389  29.827  58.799  1.00  0.00    -0.335 N 
HETATM   19  H   UNL     1       7.585  29.281  59.118  1.00  0.00     0.168 HD
HETATM   20  C   UNL     1       8.853  31.025  59.317  1.00  0.00     0.051 A 
HETATM   21  C   UNL     1       9.935  31.494  58.600  1.00  0.00     0.083 A 
HETATM   22  S   UNL     1      10.390  30.411  57.338  1.00  0.00    -0.063 SA
BRANCH  20  23
HETATM   23  C   UNL     1       8.268  31.684  60.486  1.00  0.00    -0.006 A 
HETATM   24  C   UNL     1       8.909  31.677  61.732  1.00  0.00     0.033 A 
HETATM   25  C   UNL     1       8.289  32.289  62.811  1.00  0.00     0.117 A 
HETATM   26  N   UNL     1       7.091  32.896  62.733  1.00  0.00    -0.273 NA
HETATM   27  C   UNL     1       6.483  32.901  61.534  1.00  0.00     0.117 A 
HETATM   28  C   UNL     1       7.023  32.319  60.396  1.00  0.00     0.033 A 
ENDBRANCH  20  23
ENDBRANCH   4  17
TORSDOF 6
ENDMDL
MODEL 2
REMARK VINA RESULT:      -8.8      6.601      9.437
REMARK  6 active torsions:
REMARK  status: ('A' for Active; 'I' for Inactive)
REMARK    1  A    between atoms: O_1  and  C_2 
REMARK    2  A    between atoms: C_2  and  CA_3 
REMARK    3  A    between atoms: CA_3  and  N_4 
REMARK    4  A    between atoms: CA_3  and  C_20 
REMARK       I    between atoms: N_4  and  C_5 
REMARK       I    between atoms: C_5  and  N_7 
REMARK    5  A    between atoms: N_7  and  C_8 
REMARK    6  A    between atoms: C_11  and  C_14 
ROOT
HETATM    1  N   UNL     1       4.692  27.388  51.402  1.00  0.00    -0.332 N 
HETATM    2  C   UNL     1       5.507  26.450  51.938  1.00  0.00     0.322 C 
HETATM    3  O   UNL     1       6.486  25.899  51.479  1.00  0.00    -0.247 OA
HETATM    4  N   UNL     1       5.049  26.090  53.209  1.00  0.00    -0.289 N 
HETATM    5  H   UNL     1       3.932  27.792  51.925  1.00  0.00     0.165 HD
HETATM    6  H   UNL     1       4.183  26.402  53.609  1.00  0.00     0.172 HD
ENDROOT
BRANCH   1   7
HETATM    7  CA  UNL     1       4.940  27.961  50.081  1.00  0.00     0.143 C 
BRANCH   7   8
HETATM    8  C   UNL     1       5.071  29.504  50.120  1.00  0.00     0.194 C 
BRANCH   8   9
HETATM    9  O   UNL     1       5.958  29.912  51.160  1.00  0.00    -0.398 OA
HETATM   10  H   UNL     1       5.966  30.888  51.161  1.00  0.00     0.209 HD
ENDBRANCH   8   9
ENDBRANCH   7   8
BRANCH   7  11
HETATM   11  C   UNL     1       3.835  27.491  49.150  1.00  0.00    -0.033 A 
HETATM   12  C   UNL     1       4.002  26.308  48.414  1.00  0.00     0.009 A 
HETATM   13  C   UNL     1       2.979  25.827  47.595  1.00  0.00     0.001 A 
HETATM   14  C   UNL     1       1.773  26.519  47.503  1.00  0.00     0.000 A 
HETATM   15  C   UNL     1       1.587  27.689  48.231  1.00  0.00     0.001 A 
HETATM   16  C   UNL     1       2.608  28.172  49.054  1.00  0.00     0.009 A 
ENDBRANCH   7  11
ENDBRANCH   1   7
BRANCH   4  17
HETATM   17  C   UNL     1       5.737  25.264  53.979  1.00  0.00     0.153 A 
HETATM   18  N   UNL     1       6.172  24.047  53.649  1.00  0.00    -0.335 N 
HETATM   19  H   UNL     1       5.916  23.678  52.730  1.00  0.00     0.168 HD
HETATM   20  C   UNL     1       6.959  23.438  54.613  1.00  0.00     0.051 A 
HETATM   21  C   UNL     1       7.049  24.215  55.749  1.00  0.00     0.083 A 
HETATM   22  S   UNL     1       6.209  25.710  55.577  1.00  0.00    -0.063 SA
BRANCH  20  23
HETATM   23  C   UNL     1       7.614  22.142  54.424  1.00  0.00    -0.006 A 
HETATM   24  C   UNL     1       7.980  21.338  55.513  1.00  0.00     0.033 A 
HETATM   25  C   UNL     1       8.630  20.137  55.272  1.00  0.00     0.117 A 
HETATM   26  N   UNL     1       8.936  19.691  54.041  1.00  0.00    -0.273 NA
HETATM   27  C   UNL     1       8.579  20.466  53.002  1.00  0.00     0.117 A 
HETATM   28  C   UNL     1       7.924  21.682  53.139  1.00  0.00     0.033 A 
ENDBRANCH  20  23
ENDBRANCH   4  17
TORSDOF 6
ENDMDL
MODEL 3
REMARK VINA RESULT:      -8.7      2.412      3.399
REMARK  6 active torsions:
REMARK  status: ('A' for Active; 'I' for Inactive)
REMARK    1  A    between atoms: O_1  and  C_2 
REMARK    2  A    between atoms: C_2  and  CA_3 
REMARK    3  A    between atoms: CA_3  and  N_4 
REMARK    4  A    between atoms: CA_3  and  C_20 
REMARK       I    between atoms: N_4  and  C_5 
REMARK       I    between atoms: C_5  and  N_7 
REMARK    5  A    between atoms: N_7  and  C_8 
REMARK    6  A    between atoms: C_11  and  C_14 
ROOT
HETATM    1  N   UNL     1       6.633  25.035  54.905  1.00  0.00    -0.332 N 
HETATM    2  C   UNL     1       6.869  26.316  55.272  1.00  0.00     0.322 C 
HETATM    3  O   UNL     1       7.610  27.151  54.794  1.00  0.00    -0.247 OA
HETATM    4  N   UNL     1       6.127  26.629  56.415  1.00  0.00    -0.289 N 
HETATM    5  H   UNL     1       5.947  24.466  55.376  1.00  0.00     0.165 HD
HETATM    6  H   UNL     1       5.592  25.965  56.943  1.00  0.00     0.172 HD
ENDROOT
BRANCH   1   7
HETATM    7  CA  UNL     1       7.266  24.440  53.730  1.00  0.00     0.143 C 
BRANCH   7   8
HETATM    8  C   UNL     1       6.423  24.629  52.444  1.00  0.00     0.194 C 
BRANCH   8   9
HETATM    9  O   UNL     1       7.153  25.363  51.462  1.00  0.00    -0.398 OA
HETATM   10  H   UNL     1       7.863  25.840  51.932  1.00  0.00     0.209 HD
ENDBRANCH   8   9
ENDBRANCH   7   8
BRANCH   7  11
HETATM   11  C   UNL     1       7.546  22.979  54.036  1.00  0.00    -0.033 A 
HETATM   12  C   UNL     1       7.859  22.097  52.990  1.00  0.00     0.009 A 
HETATM   13  C   UNL     1       8.175  20.762  53.253  1.00  0.00     0.001 A 
HETATM   14  C   UNL     1       8.189  20.292  54.564  1.00  0.00     0.000 A 
HETATM   15  C   UNL     1       7.889  21.154  55.614  1.00  0.00     0.001 A 
HETATM   16  C   UNL     1       7.575  22.490  55.355  1.00  0.00     0.009 A 
ENDBRANCH   7  11
ENDBRANCH   1   7
BRANCH   4  17
HETATM   17  C   UNL     1       6.109  27.856  56.907  1.00  0.00     0.153 A 
HETATM   18  N   UNL     1       7.090  28.456  57.584  1.00  0.00    -0.335 N 
HETATM   19  H   UNL     1       7.929  27.912  57.795  1.00  0.00     0.168 HD
HETATM   20  C   UNL     1       6.844  29.784  57.895  1.00  0.00     0.051 A 
HETATM   21  C   UNL     1       5.581  30.166  57.492  1.00  0.00     0.083 A 
HETATM   22  S   UNL     1       4.748  28.892  56.684  1.00  0.00    -0.063 SA
BRANCH  20  23
HETATM   23  C   UNL     1       7.819  30.656  58.552  1.00  0.00    -0.006 A 
HETATM   24  C   UNL     1       7.447  31.527  59.585  1.00  0.00     0.033 A 
HETATM   25  C   UNL     1       8.408  32.354  60.146  1.00  0.00     0.117 A 
HETATM   26  N   UNL     1       9.694  32.374  59.751  1.00  0.00    -0.273 NA
HETATM   27  C   UNL     1      10.044  31.534  58.761  1.00  0.00     0.117 A 
HETATM   28  C   UNL     1       9.157  30.666  58.139  1.00  0.00     0.033 A 
ENDBRANCH  20  23
ENDBRANCH   4  17
TORSDOF 6
ENDMDL
MODEL 4
REMARK VINA RESULT:      -8.7      2.255      9.242
REMARK  6 active torsions:
REMARK  status: ('A' for Active; 'I' for Inactive)
REMARK    1  A    between atoms: O_1  and  C_2 
REMARK    2  A    between atoms: C_2  and  CA_3 
REMARK    3  A    between atoms: CA_3  and  N_4 
REMARK    4  A    between atoms: CA_3  and  C_20 
REMARK       I    between atoms: N_4  and  C_5 
REMARK       I    between atoms: C_5  and  N_7 
REMARK    5  A    between atoms: N_7  and  C_8 
REMARK    6  A    between atoms: C_11  and  C_14 
ROOT
HETATM    1  N   UNL     1       7.785  30.698  60.322  1.00  0.00    -0.332 N 
HETATM    2  C   UNL     1       8.171  30.051  59.199  1.00  0.00     0.322 C 
HETATM    3  O   UNL     1       9.253  29.999  58.649  1.00  0.00    -0.247 OA
HETATM    4  N   UNL     1       7.077  29.396  58.625  1.00  0.00    -0.289 N 
HETATM    5  H   UNL     1       6.850  30.612  60.689  1.00  0.00     0.165 HD
HETATM    6  H   UNL     1       6.130  29.490  58.942  1.00  0.00     0.172 HD
ENDROOT
BRANCH   1   7
HETATM    7  CA  UNL     1       8.729  31.457  61.139  1.00  0.00     0.143 C 
BRANCH   7   8
HETATM    8  C   UNL     1       9.686  30.542  61.943  1.00  0.00     0.194 C 
BRANCH   8   9
HETATM    9  O   UNL     1       8.997  29.394  62.436  1.00  0.00    -0.398 OA
HETATM   10  H   UNL     1       9.348  29.212  63.328  1.00  0.00     0.209 HD
ENDBRANCH   8   9
ENDBRANCH   7   8
BRANCH   7  11
HETATM   11  C   UNL     1       7.932  32.396  62.029  1.00  0.00    -0.033 A 
HETATM   12  C   UNL     1       6.865  33.128  61.488  1.00  0.00     0.009 A 
HETATM   13  C   UNL     1       6.083  33.954  62.298  1.00  0.00     0.001 A 
HETATM   14  C   UNL     1       6.354  34.056  63.661  1.00  0.00     0.000 A 
HETATM   15  C   UNL     1       7.404  33.331  64.216  1.00  0.00     0.001 A 
HETATM   16  C   UNL     1       8.186  32.501  63.408  1.00  0.00     0.009 A 
ENDBRANCH   7  11
ENDBRANCH   1   7
BRANCH   4  17
HETATM   17  C   UNL     1       7.222  28.608  57.573  1.00  0.00     0.153 A 
HETATM   18  N   UNL     1       7.493  27.302  57.590  1.00  0.00    -0.335 N 
HETATM   19  H   UNL     1       7.655  26.857  58.496  1.00  0.00     0.168 HD
HETATM   20  C   UNL     1       7.489  26.698  56.343  1.00  0.00     0.051 A 
HETATM   21  C   UNL     1       7.279  27.623  55.340  1.00  0.00     0.083 A 
HETATM   22  S   UNL     1       7.030  29.209  55.967  1.00  0.00    -0.063 SA
BRANCH  20  23
HETATM   23  C   UNL     1       7.671  25.260  56.138  1.00  0.00    -0.006 A 
HETATM   24  C   UNL     1       7.191  24.614  54.990  1.00  0.00     0.033 A 
HETATM   25  C   UNL     1       7.363  23.244  54.868  1.00  0.00     0.117 A 
HETATM   26  N   UNL     1       7.970  22.485  55.798  1.00  0.00    -0.273 NA
HETATM   27  C   UNL     1       8.430  23.112  56.895  1.00  0.00     0.117 A 
HETATM   28  C   UNL     1       8.309  24.478  57.108  1.00  0.00     0.033 A 
ENDBRANCH  20  23
ENDBRANCH   4  17
TORSDOF 6
ENDMDL
MODEL 5
REMARK VINA RESULT:      -8.5      6.146      9.371
REMARK  6 active torsions:
REMARK  status: ('A' for Active; 'I' for Inactive)
REMARK    1  A    between atoms: O_1  and  C_2 
REMARK    2  A    between atoms: C_2  and  CA_3 
REMARK    3  A    between atoms: CA_3  and  N_4 
REMARK    4  A    between atoms: CA_3  and  C_20 
REMARK       I    between atoms: N_4  and  C_5 
REMARK       I    between atoms: C_5  and  N_7 
REMARK    5  A    between atoms: N_7  and  C_8 
REMARK    6  A    between atoms: C_11  and  C_14 
ROOT
HETATM    1  N   UNL     1       7.300  24.676  53.965  1.00  0.00    -0.332 N 
HETATM    2  C   UNL     1       6.261  25.244  53.311  1.00  0.00     0.322 C 
HETATM    3  O   UNL     1       5.065  25.160  53.505  1.00  0.00    -0.247 OA
HETATM    4  N   UNL     1       6.731  25.999  52.232  1.00  0.00    -0.289 N 
HETATM    5  H   UNL     1       8.256  24.876  53.716  1.00  0.00     0.165 HD
HETATM    6  H   UNL     1       7.686  26.020  51.929  1.00  0.00     0.172 HD
ENDROOT
BRANCH   1   7
HETATM    7  CA  UNL     1       7.104  23.841  55.148  1.00  0.00     0.143 C 
BRANCH   7   8
HETATM    8  C   UNL     1       7.747  24.453  56.418  1.00  0.00     0.194 C 
BRANCH   8   9
HETATM    9  O   UNL     1       6.752  24.757  57.394  1.00  0.00    -0.398 OA
HETATM   10  H   UNL     1       6.261  23.931  57.567  1.00  0.00     0.209 HD
ENDBRANCH   8   9
ENDBRANCH   7   8
BRANCH   7  11
HETATM   11  C   UNL     1       7.634  22.452  54.836  1.00  0.00    -0.033 A 
HETATM   12  C   UNL     1       7.905  22.093  53.507  1.00  0.00     0.009 A 
HETATM   13  C   UNL     1       8.445  20.842  53.201  1.00  0.00     0.001 A 
HETATM   14  C   UNL     1       8.727  19.934  54.219  1.00  0.00     0.000 A 
HETATM   15  C   UNL     1       8.472  20.276  55.544  1.00  0.00     0.001 A 
HETATM   16  C   UNL     1       7.934  21.528  55.853  1.00  0.00     0.009 A 
ENDBRANCH   7  11
ENDBRANCH   1   7
BRANCH   4  17
HETATM   17  C   UNL     1       5.912  26.736  51.501  1.00  0.00     0.153 A 
HETATM   18  N   UNL     1       5.213  26.331  50.438  1.00  0.00    -0.335 N 
HETATM   19  H   UNL     1       5.349  25.372  50.112  1.00  0.00     0.168 HD
HETATM   20  C   UNL     1       4.352  27.284  49.920  1.00  0.00     0.051 A 
HETATM   21  C   UNL     1       4.474  28.485  50.589  1.00  0.00     0.083 A 
HETATM   22  S   UNL     1       5.608  28.390  51.884  1.00  0.00    -0.063 SA
BRANCH  20  23
HETATM   23  C   UNL     1       3.428  27.026  48.814  1.00  0.00    -0.006 A 
HETATM   24  C   UNL     1       2.278  27.805  48.620  1.00  0.00     0.033 A 
HETATM   25  C   UNL     1       1.423  27.490  47.576  1.00  0.00     0.117 A 
HETATM   26  N   UNL     1       1.630  26.468  46.727  1.00  0.00    -0.273 NA
HETATM   27  C   UNL     1       2.736  25.727  46.918  1.00  0.00     0.117 A 
HETATM   28  C   UNL     1       3.654  25.963  47.931  1.00  0.00     0.033 A 
ENDBRANCH  20  23
ENDBRANCH   4  17
TORSDOF 6
ENDMDL
MODEL 6
REMARK VINA RESULT:      -8.4      2.436      9.414
REMARK  6 active torsions:
REMARK  status: ('A' for Active; 'I' for Inactive)
REMARK    1  A    between atoms: O_1  and  C_2 
REMARK    2  A    between atoms: C_2  and  CA_3 
REMARK    3  A    between atoms: CA_3  and  N_4 
REMARK    4  A    between atoms: CA_3  and  C_20 
REMARK       I    between atoms: N_4  and  C_5 
REMARK       I    between atoms: C_5  and  N_7 
REMARK    5  A    between atoms: N_7  and  C_8 
REMARK    6  A    between atoms: C_11  and  C_14 
ROOT
HETATM    1  N   UNL     1       8.324  28.750  57.675  1.00  0.00    -0.332 N 
HETATM    2  C   UNL     1       7.992  28.043  56.570  1.00  0.00     0.322 C 
HETATM    3  O   UNL     1       8.031  28.348  55.396  1.00  0.00    -0.247 OA
HETATM    4  N   UNL     1       7.500  26.786  56.938  1.00  0.00    -0.289 N 
HETATM    5  H   UNL     1       8.281  28.345  58.597  1.00  0.00     0.165 HD
HETATM    6  H   UNL     1       7.318  26.503  57.883  1.00  0.00     0.172 HD
ENDROOT
BRANCH   1   7
HETATM    7  CA  UNL     1       8.881  30.098  57.590  1.00  0.00     0.143 C 
BRANCH   7   8
HETATM    8  C   UNL     1      10.388  30.095  57.229  1.00  0.00     0.194 C 
BRANCH   8   9
HETATM    9  O   UNL     1      10.573  30.251  55.824  1.00  0.00    -0.398 OA
HETATM   10  H   UNL     1      10.985  29.428  55.498  1.00  0.00     0.209 HD
ENDBRANCH   8   9
ENDBRANCH   7   8
BRANCH   7  11
HETATM   11  C   UNL     1       8.595  30.809  58.902  1.00  0.00    -0.033 A 
HETATM   12  C   UNL     1       9.585  30.862  59.895  1.00  0.00     0.009 A 
HETATM   13  C   UNL     1       9.366  31.557  61.085  1.00  0.00     0.001 A 
HETATM   14  C   UNL     1       8.156  32.214  61.299  1.00  0.00     0.000 A 
HETATM   15  C   UNL     1       7.166  32.179  60.322  1.00  0.00     0.001 A 
HETATM   16  C   UNL     1       7.383  31.486  59.128  1.00  0.00     0.009 A 
ENDBRANCH   7  11
ENDBRANCH   1   7
BRANCH   4  17
HETATM   17  C   UNL     1       7.206  25.872  56.030  1.00  0.00     0.153 A 
HETATM   18  N   UNL     1       7.843  24.717  55.829  1.00  0.00    -0.335 N 
HETATM   19  H   UNL     1       8.675  24.524  56.391  1.00  0.00     0.168 HD
HETATM   20  C   UNL     1       7.260  23.896  54.877  1.00  0.00     0.051 A 
HETATM   21  C   UNL     1       6.174  24.509  54.286  1.00  0.00     0.083 A 
HETATM   22  S   UNL     1       5.862  26.063  54.965  1.00  0.00    -0.063 SA
BRANCH  20  23
HETATM   23  C   UNL     1       7.740  22.549  54.564  1.00  0.00    -0.006 A 
HETATM   24  C   UNL     1       7.883  22.109  53.241  1.00  0.00     0.033 A 
HETATM   25  C   UNL     1       8.309  20.811  53.007  1.00  0.00     0.117 A 
HETATM   26  N   UNL     1       8.595  19.934  53.986  1.00  0.00    -0.273 NA
HETATM   27  C   UNL     1       8.458  20.364  55.253  1.00  0.00     0.117 A 
HETATM   28  C   UNL     1       8.041  21.645  55.589  1.00  0.00     0.033 A 
ENDBRANCH  20  23
ENDBRANCH   4  17
TORSDOF 6
ENDMDL
MODEL 7
REMARK VINA RESULT:      -8.4      2.778      9.109
REMARK  6 active torsions:
REMARK  status: ('A' for Active; 'I' for Inactive)
REMARK    1  A    between atoms: O_1  and  C_2 
REMARK    2  A    between atoms: C_2  and  CA_3 
REMARK    3  A    between atoms: CA_3  and  N_4 
REMARK    4  A    between atoms: CA_3  and  C_20 
REMARK       I    between atoms: N_4  and  C_5 
REMARK       I    between atoms: C_5  and  N_7 
REMARK    5  A    between atoms: N_7  and  C_8 
REMARK    6  A    between atoms: C_11  and  C_14 
ROOT
HETATM    1  N   UNL     1       7.044  28.841  56.426  1.00  0.00    -0.332 N 
HETATM    2  C   UNL     1       6.771  27.558  56.096  1.00  0.00     0.322 C 
HETATM    3  O   UNL     1       6.179  26.693  56.711  1.00  0.00    -0.247 OA
HETATM    4  N   UNL     1       7.329  27.255  54.851  1.00  0.00    -0.289 N 
HETATM    5  H   UNL     1       7.512  29.464  55.787  1.00  0.00     0.165 HD
HETATM    6  H   UNL     1       7.935  27.868  54.338  1.00  0.00     0.172 HD
ENDROOT
BRANCH   1   7
HETATM    7  CA  UNL     1       6.569  29.435  57.673  1.00  0.00     0.143 C 
BRANCH   7   8
HETATM    8  C   UNL     1       5.266  30.251  57.482  1.00  0.00     0.194 C 
BRANCH   8   9
HETATM    9  O   UNL     1       4.167  29.611  58.129  1.00  0.00    -0.398 OA
HETATM   10  H   UNL     1       3.368  29.826  57.612  1.00  0.00     0.209 HD
ENDBRANCH   8   9
ENDBRANCH   7   8
BRANCH   7  11
HETATM   11  C   UNL     1       7.699  30.266  58.258  1.00  0.00    -0.033 A 
HETATM   12  C   UNL     1       9.017  30.049  57.829  1.00  0.00     0.009 A 
HETATM   13  C   UNL     1      10.063  30.837  58.311  1.00  0.00     0.001 A 
HETATM   14  C   UNL     1       9.807  31.858  59.225  1.00  0.00     0.000 A 
HETATM   15  C   UNL     1       8.505  32.093  59.655  1.00  0.00     0.001 A 
HETATM   16  C   UNL     1       7.455  31.307  59.173  1.00  0.00     0.009 A 
ENDBRANCH   7  11
ENDBRANCH   1   7
BRANCH   4  17
HETATM   17  C   UNL     1       7.110  26.091  54.264  1.00  0.00     0.153 A 
HETATM   18  N   UNL     1       7.747  24.944  54.510  1.00  0.00    -0.335 N 
HETATM   19  H   UNL     1       8.517  24.958  55.182  1.00  0.00     0.168 HD
HETATM   20  C   UNL     1       7.246  23.850  53.824  1.00  0.00     0.051 A 
HETATM   21  C   UNL     1       6.232  24.220  52.965  1.00  0.00     0.083 A 
HETATM   22  S   UNL     1       5.879  25.904  53.071  1.00  0.00    -0.063 SA
BRANCH  20  23
HETATM   23  C   UNL     1       7.734  22.483  54.011  1.00  0.00    -0.006 A 
HETATM   24  C   UNL     1       8.087  21.673  52.923  1.00  0.00     0.033 A 
HETATM   25  C   UNL     1       8.510  20.374  53.162  1.00  0.00     0.117 A 
HETATM   26  N   UNL     1       8.601  19.835  54.391  1.00  0.00    -0.273 NA
HETATM   27  C   UNL     1       8.263  20.619  55.430  1.00  0.00     0.117 A 
HETATM   28  C   UNL     1       7.831  21.931  55.295  1.00  0.00     0.033 A 
ENDBRANCH  20  23
ENDBRANCH   4  17
TORSDOF 6
ENDMDL
MODEL 8
REMARK VINA RESULT:      -8.2      2.213      9.228
REMARK  6 active torsions:
REMARK  status: ('A' for Active; 'I' for Inactive)
REMARK    1  A    between atoms: O_1  and  C_2 
REMARK    2  A    between atoms: C_2  and  CA_3 
REMARK    3  A    between atoms: CA_3  and  N_4 
REMARK    4  A    between atoms: CA_3  and  C_20 
REMARK       I    between atoms: N_4  and  C_5 
REMARK       I    between atoms: C_5  and  N_7 
REMARK    5  A    between atoms: N_7  and  C_8 
REMARK    6  A    between atoms: C_11  and  C_14 
ROOT
HETATM    1  N   UNL     1       7.535  29.983  58.754  1.00  0.00    -0.332 N 
HETATM    2  C   UNL     1       7.470  29.362  57.554  1.00  0.00     0.322 C 
HETATM    3  O   UNL     1       7.972  29.650  56.487  1.00  0.00    -0.247 OA
HETATM    4  N   UNL     1       6.640  28.240  57.642  1.00  0.00    -0.289 N 
HETATM    5  H   UNL     1       7.096  29.597  59.576  1.00  0.00     0.165 HD
HETATM    6  H   UNL     1       6.090  28.003  58.447  1.00  0.00     0.172 HD
ENDROOT
BRANCH   1   7
HETATM    7  CA  UNL     1       8.345  31.181  58.961  1.00  0.00     0.143 C 
BRANCH   7   8
HETATM    8  C   UNL     1       9.862  30.904  58.805  1.00  0.00     0.194 C 
BRANCH   8   9
HETATM    9  O   UNL     1      10.522  32.018  58.207  1.00  0.00    -0.398 OA
HETATM   10  H   UNL     1      10.664  32.677  58.912  1.00  0.00     0.209 HD
ENDBRANCH   8   9
ENDBRANCH   7   8
BRANCH   7  11
HETATM   11  C   UNL     1       7.993  31.759  60.321  1.00  0.00    -0.033 A 
HETATM   12  C   UNL     1       6.729  32.333  60.526  1.00  0.00     0.009 A 
HETATM   13  C   UNL     1       6.362  32.820  61.782  1.00  0.00     0.001 A 
HETATM   14  C   UNL     1       7.251  32.736  62.852  1.00  0.00     0.000 A 
HETATM   15  C   UNL     1       8.506  32.164  62.668  1.00  0.00     0.001 A 
HETATM   16  C   UNL     1       8.875  31.673  61.413  1.00  0.00     0.009 A 
ENDBRANCH   7  11
ENDBRANCH   1   7
BRANCH   4  17
HETATM   17  C   UNL     1       6.500  27.408  56.624  1.00  0.00     0.153 A 
HETATM   18  N   UNL     1       7.328  26.418  56.287  1.00  0.00    -0.335 N 
HETATM   19  H   UNL     1       8.188  26.306  56.829  1.00  0.00     0.168 HD
HETATM   20  C   UNL     1       6.886  25.633  55.234  1.00  0.00     0.051 A 
HETATM   21  C   UNL     1       5.702  26.113  54.714  1.00  0.00     0.083 A 
HETATM   22  S   UNL     1       5.130  27.491  55.579  1.00  0.00    -0.063 SA
BRANCH  20  23
HETATM   23  C   UNL     1       7.592  24.441  54.760  1.00  0.00    -0.006 A 
HETATM   24  C   UNL     1       7.394  23.935  53.468  1.00  0.00     0.033 A 
HETATM   25  C   UNL     1       8.065  22.783  53.087  1.00  0.00     0.117 A 
HETATM   26  N   UNL     1       8.904  22.110  53.894  1.00  0.00    -0.273 NA
HETATM   27  C   UNL     1       9.091  22.603  55.132  1.00  0.00     0.117 A 
HETATM   28  C   UNL     1       8.469  23.750  55.604  1.00  0.00     0.033 A 
ENDBRANCH  20  23
ENDBRANCH   4  17
TORSDOF 6
ENDMDL
MODEL 9
REMARK VINA RESULT:      -7.8      5.870      8.426
REMARK  6 active torsions:
REMARK  status: ('A' for Active; 'I' for Inactive)
REMARK    1  A    between atoms: O_1  and  C_2 
REMARK    2  A    between atoms: C_2  and  CA_3 
REMARK    3  A    between atoms: CA_3  and  N_4 
REMARK    4  A    between atoms: CA_3  and  C_20 
REMARK       I    between atoms: N_4  and  C_5 
REMARK       I    between atoms: C_5  and  N_7 
REMARK    5  A    between atoms: N_7  and  C_8 
REMARK    6  A    between atoms: C_11  and  C_14 
ROOT
HETATM    1  N   UNL     1       6.147  24.379  55.885  1.00  0.00    -0.332 N 
HETATM    2  C   UNL     1       6.290  25.335  54.939  1.00  0.00     0.322 C 
HETATM    3  O   UNL     1       7.290  25.818  54.449  1.00  0.00    -0.247 OA
HETATM    4  N   UNL     1       5.035  25.813  54.549  1.00  0.00    -0.289 N 
HETATM    5  H   UNL     1       5.239  24.041  56.165  1.00  0.00     0.165 HD
HETATM    6  H   UNL     1       4.170  25.560  54.990  1.00  0.00     0.172 HD
ENDROOT
BRANCH   1   7
HETATM    7  CA  UNL     1       7.297  23.690  56.467  1.00  0.00     0.143 C 
BRANCH   7   8
HETATM    8  C   UNL     1       8.487  24.646  56.733  1.00  0.00     0.194 C 
BRANCH   8   9
HETATM    9  O   UNL     1       8.401  25.212  58.039  1.00  0.00    -0.398 OA
HETATM   10  H   UNL     1       7.500  25.574  58.134  1.00  0.00     0.209 HD
ENDBRANCH   8   9
ENDBRANCH   7   8
BRANCH   7  11
HETATM   11  C   UNL     1       7.667  22.536  55.551  1.00  0.00    -0.033 A 
HETATM   12  C   UNL     1       7.791  22.755  54.171  1.00  0.00     0.009 A 
HETATM   13  C   UNL     1       8.184  21.722  53.317  1.00  0.00     0.001 A 
HETATM   14  C   UNL     1       8.466  20.458  53.831  1.00  0.00     0.000 A 
HETATM   15  C   UNL     1       8.356  20.225  55.198  1.00  0.00     0.001 A 
HETATM   16  C   UNL     1       7.965  21.257  56.055  1.00  0.00     0.009 A 
ENDBRANCH   7  11
ENDBRANCH   1   7
BRANCH   4  17
HETATM   17  C   UNL     1       4.907  26.681  53.560  1.00  0.00     0.153 A 
HETATM   18  N   UNL     1       5.088  26.438  52.261  1.00  0.00    -0.335 N 
HETATM   19  H   UNL     1       5.406  25.505  51.987  1.00  0.00     0.168 HD
HETATM   20  C   UNL     1       4.787  27.504  51.430  1.00  0.00     0.051 A 
HETATM   21  C   UNL     1       4.435  28.622  52.158  1.00  0.00     0.083 A 
HETATM   22  S   UNL     1       4.425  28.311  53.853  1.00  0.00    -0.063 SA
BRANCH  20  23
HETATM   23  C   UNL     1       4.828  27.430  49.968  1.00  0.00    -0.006 A 
HETATM   24  C   UNL     1       4.333  26.317  49.275  1.00  0.00     0.033 A 
HETATM   25  C   UNL     1       4.431  26.289  47.892  1.00  0.00     0.117 A 
HETATM   26  N   UNL     1       4.982  27.277  47.165  1.00  0.00    -0.273 NA
HETATM   27  C   UNL     1       5.453  28.342  47.837  1.00  0.00     0.117 A 
HETATM   28  C   UNL     1       5.398  28.466  49.218  1.00  0.00     0.033 A 
ENDBRANCH  20  23
ENDBRANCH   4  17
TORSDOF 6
ENDMDL
MODEL 10
REMARK VINA RESULT:      -7.7      2.676      9.392
REMARK  6 active torsions:
REMARK  status: ('A' for Active; 'I' for Inactive)
REMARK    1  A    between atoms: O_1  and  C_2 
REMARK    2  A    between atoms: C_2  and  CA_3 
REMARK    3  A    between atoms: CA_3  and  N_4 
REMARK    4  A    between atoms: CA_3  and  C_20 
REMARK       I    between atoms: N_4  and  C_5 
REMARK       I    between atoms: C_5  and  N_7 
REMARK    5  A    between atoms: N_7  and  C_8 
REMARK    6  A    between atoms: C_11  and  C_14 
ROOT
HETATM    1  N   UNL     1       7.146  31.566  60.538  1.00  0.00    -0.332 N 
HETATM    2  C   UNL     1       7.288  31.246  59.232  1.00  0.00     0.322 C 
HETATM    3  O   UNL     1       8.208  31.448  58.465  1.00  0.00    -0.247 OA
HETATM    4  N   UNL     1       6.128  30.622  58.764  1.00  0.00    -0.289 N 
HETATM    5  H   UNL     1       6.332  31.291  61.066  1.00  0.00     0.165 HD
HETATM    6  H   UNL     1       5.280  30.530  59.293  1.00  0.00     0.172 HD
ENDROOT
BRANCH   1   7
HETATM    7  CA  UNL     1       8.212  32.218  61.294  1.00  0.00     0.143 C 
BRANCH   7   8
HETATM    8  C   UNL     1       9.284  31.215  61.791  1.00  0.00     0.194 C 
BRANCH   8   9
HETATM    9  O   UNL     1       8.692  29.958  62.115  1.00  0.00    -0.398 OA
HETATM   10  H   UNL     1       7.985  29.800  61.462  1.00  0.00     0.209 HD
ENDBRANCH   8   9
ENDBRANCH   7   8
BRANCH   7  11
HETATM   11  C   UNL     1       7.574  33.002  62.429  1.00  0.00    -0.033 A 
HETATM   12  C   UNL     1       6.520  33.887  62.156  1.00  0.00     0.009 A 
HETATM   13  C   UNL     1       5.881  34.576  63.189  1.00  0.00     0.001 A 
HETATM   14  C   UNL     1       6.283  34.386  64.509  1.00  0.00     0.000 A 
HETATM   15  C   UNL     1       7.321  33.506  64.799  1.00  0.00     0.001 A 
HETATM   16  C   UNL     1       7.960  32.813  63.768  1.00  0.00     0.009 A 
ENDBRANCH   7  11
ENDBRANCH   1   7
BRANCH   4  17
HETATM   17  C   UNL     1       6.062  30.122  57.542  1.00  0.00     0.153 A 
HETATM   18  N   UNL     1       6.656  29.010  57.105  1.00  0.00    -0.335 N 
HETATM   19  H   UNL     1       7.267  28.506  57.751  1.00  0.00     0.168 HD
HETATM   20  C   UNL     1       6.334  28.660  55.803  1.00  0.00     0.051 A 
HETATM   21  C   UNL     1       5.516  29.606  55.219  1.00  0.00     0.083 A 
HETATM   22  S   UNL     1       5.114  30.875  56.313  1.00  0.00    -0.063 SA
BRANCH  20  23
HETATM   23  C   UNL     1       6.800  27.433  55.155  1.00  0.00    -0.006 A 
HETATM   24  C   UNL     1       6.931  26.231  55.864  1.00  0.00     0.033 A 
HETATM   25  C   UNL     1       7.410  25.110  55.203  1.00  0.00     0.117 A 
HETATM   26  N   UNL     1       7.765  25.106  53.906  1.00  0.00    -0.273 NA
HETATM   27  C   UNL     1       7.634  26.263  53.232  1.00  0.00     0.117 A 
HETATM   28  C   UNL     1       7.162  27.436  53.802  1.00  0.00     0.033 A 
ENDBRANCH  20  23
ENDBRANCH   4  17
TORSDOF 6
ENDMDL
