MODEL 1
REMARK VINA RESULT:     -10.2      0.000      0.000
REMARK  5 active torsions:
REMARK  status: ('A' for Active; 'I' for Inactive)
REMARK    1  A    between atoms: C_3  and  O_4 
REMARK    2  A    between atoms: C_6  and  N_7 
REMARK       I    between atoms: N_7  and  C_8 
REMARK    3  A    between atoms: C_8  and  C_9 
REMARK    4  A    between atoms: C_12  and  C_13 
REMARK    5  A    between atoms: C_18  and  C_19 
ROOT
HETATM    1  C   UNL     1       6.816  26.449  53.880  1.00  0.00     0.096 A 
HETATM    2  C   UNL     1       6.601  27.085  55.089  1.00  0.00     0.138 A 
HETATM    3  N   UNL     1       5.915  28.240  54.790  1.00  0.00    -0.240 N 
HETATM    4  C   UNL     1       5.551  29.251  55.767  1.00  0.00     0.221 C 
HETATM    5  C   UNL     1       5.624  28.664  57.189  1.00  0.00     0.066 C 
HETATM    6  C   UNL     1       6.899  27.839  57.400  1.00  0.00     0.118 C 
HETATM    7  N   UNL     1       6.979  26.796  56.367  1.00  0.00    -0.365 N 
HETATM    8  N   UNL     1       5.794  28.462  53.473  1.00  0.00    -0.181 NA
HETATM    9  C   UNL     1       6.320  27.365  52.922  1.00  0.00     0.160 A 
HETATM   10  H   UNL     1       7.784  26.182  56.506  1.00  0.00     0.161 HD
ENDROOT
BRANCH   1  11
HETATM   11  C   UNL     1       7.462  25.174  53.613  1.00  0.00     0.261 C 
HETATM   12  N   UNL     1       6.977  24.148  54.401  1.00  0.00    -0.323 N 
HETATM   13  H   UNL     1       6.149  24.373  54.942  1.00  0.00     0.169 HD
HETATM   14  O   UNL     1       8.317  25.078  52.742  1.00  0.00    -0.267 OA
BRANCH  12  15
HETATM   15  C   UNL     1       7.444  22.822  54.477  1.00  0.00     0.037 A 
HETATM   16  C   UNL     1       7.621  21.992  53.369  1.00  0.00     0.066 A 
HETATM   17  C   UNL     1       8.118  20.701  53.539  1.00  0.00     0.067 A 
HETATM   18  C   UNL     1       8.438  20.213  54.802  1.00  0.00     0.036 A 
HETATM   19  C   UNL     1       8.264  21.036  55.912  1.00  0.00     0.005 A 
HETATM   20  C   UNL     1       7.774  22.335  55.750  1.00  0.00     0.029 A 
BRANCH  17  21
HETATM   21  O   UNL     1       8.286  19.934  52.424  1.00  0.00    -0.361 OA
HETATM   22  H   UNL     1       7.904  20.398  51.661  1.00  0.00     0.217 HD
ENDBRANCH  17  21
ENDBRANCH  12  15
ENDBRANCH   1  11
BRANCH   4  23
HETATM   23  C   UNL     1       4.161  29.798  55.521  1.00  0.00     0.409 C 
HETATM   24  F   UNL     1       3.337  28.878  54.969  1.00  0.00    -0.169 F 
HETATM   25  F   UNL     1       3.598  30.155  56.709  1.00  0.00    -0.169 F 
HETATM   26  F   UNL     1       4.139  30.905  54.752  1.00  0.00    -0.169 F 
ENDBRANCH   4  23
BRANCH   6  27
HETATM   27  C   UNL     1       8.159  28.691  57.505  1.00  0.00    -0.035 A 
HETATM   28  C   UNL     1       8.207  29.707  58.482  1.00  0.00     0.012 A 
HETATM   29  C   UNL     1       9.333  30.522  58.618  1.00  0.00     0.043 A 
HETATM   30  C   UNL     1      10.425  30.327  57.785  1.00  0.00     0.116 A 
HETATM   31  F   UNL     1      11.506  31.107  57.917  1.00  0.00    -0.206 F 
HETATM   32  C   UNL     1      10.410  29.334  56.816  1.00  0.00     0.043 A 
HETATM   33  C   UNL     1       9.283  28.520  56.676  1.00  0.00     0.012 A 
ENDBRANCH   6  27
TORSDOF 5
ENDMDL
MODEL 2
REMARK VINA RESULT:     -10.0      1.313      1.815
REMARK  5 active torsions:
REMARK  status: ('A' for Active; 'I' for Inactive)
REMARK    1  A    between atoms: C_3  and  O_4 
REMARK    2  A    between atoms: C_6  and  N_7 
REMARK       I    between atoms: N_7  and  C_8 
REMARK    3  A    between atoms: C_8  and  C_9 
REMARK    4  A    between atoms: C_12  and  C_13 
REMARK    5  A    between atoms: C_18  and  C_19 
ROOT
HETATM    1  C   UNL     1       6.606  25.955  54.993  1.00  0.00     0.096 A 
HETATM    2  C   UNL     1       6.390  27.035  55.830  1.00  0.00     0.138 A 
HETATM    3  N   UNL     1       5.975  28.065  55.017  1.00  0.00    -0.240 N 
HETATM    4  C   UNL     1       5.711  29.416  55.480  1.00  0.00     0.221 C 
HETATM    5  C   UNL     1       5.517  29.424  57.007  1.00  0.00     0.066 C 
HETATM    6  C   UNL     1       6.579  28.579  57.721  1.00  0.00     0.118 C 
HETATM    7  N   UNL     1       6.566  27.216  57.170  1.00  0.00    -0.365 N 
HETATM    8  N   UNL     1       6.041  27.772  53.710  1.00  0.00    -0.181 NA
HETATM    9  C   UNL     1       6.401  26.485  53.697  1.00  0.00     0.160 A 
HETATM   10  H   UNL     1       7.219  26.600  57.660  1.00  0.00     0.161 HD
ENDROOT
BRANCH   1  11
HETATM   11  C   UNL     1       7.018  24.602  55.324  1.00  0.00     0.261 C 
HETATM   12  N   UNL     1       7.660  23.961  54.282  1.00  0.00    -0.323 N 
HETATM   13  H   UNL     1       7.893  24.551  53.490  1.00  0.00     0.169 HD
HETATM   14  O   UNL     1       6.819  24.145  56.443  1.00  0.00    -0.267 OA
BRANCH  12  15
HETATM   15  C   UNL     1       8.092  22.623  54.224  1.00  0.00     0.037 A 
HETATM   16  C   UNL     1       8.737  21.966  55.273  1.00  0.00     0.066 A 
HETATM   17  C   UNL     1       9.103  20.628  55.136  1.00  0.00     0.067 A 
HETATM   18  C   UNL     1       8.843  19.927  53.963  1.00  0.00     0.036 A 
HETATM   19  C   UNL     1       8.199  20.576  52.912  1.00  0.00     0.005 A 
HETATM   20  C   UNL     1       7.822  21.915  53.044  1.00  0.00     0.029 A 
BRANCH  17  21
HETATM   21  O   UNL     1       9.719  20.026  56.194  1.00  0.00    -0.361 OA
HETATM   22  H   UNL     1      10.148  19.211  55.888  1.00  0.00     0.217 HD
ENDBRANCH  17  21
ENDBRANCH  12  15
ENDBRANCH   1  11
BRANCH   4  23
HETATM   23  C   UNL     1       4.488  30.010  54.815  1.00  0.00     0.409 C 
HETATM   24  F   UNL     1       3.489  29.108  54.677  1.00  0.00    -0.169 F 
HETATM   25  F   UNL     1       3.993  31.014  55.592  1.00  0.00    -0.169 F 
HETATM   26  F   UNL     1       4.735  30.559  53.609  1.00  0.00    -0.169 F 
ENDBRANCH   4  23
BRANCH   6  27
HETATM   27  C   UNL     1       7.962  29.223  57.724  1.00  0.00    -0.035 A 
HETATM   28  C   UNL     1       8.987  28.623  56.964  1.00  0.00     0.012 A 
HETATM   29  C   UNL     1      10.273  29.166  56.935  1.00  0.00     0.043 A 
HETATM   30  C   UNL     1      10.547  30.317  57.660  1.00  0.00     0.116 A 
HETATM   31  F   UNL     1      11.780  30.840  57.630  1.00  0.00    -0.206 F 
HETATM   32  C   UNL     1       9.560  30.933  58.414  1.00  0.00     0.043 A 
HETATM   33  C   UNL     1       8.273  30.389  58.447  1.00  0.00     0.012 A 
ENDBRANCH   6  27
TORSDOF 5
ENDMDL
MODEL 3
REMARK VINA RESULT:      -9.9      3.501      7.741
REMARK  5 active torsions:
REMARK  status: ('A' for Active; 'I' for Inactive)
REMARK    1  A    between atoms: C_3  and  O_4 
REMARK    2  A    between atoms: C_6  and  N_7 
REMARK       I    between atoms: N_7  and  C_8 
REMARK    3  A    between atoms: C_8  and  C_9 
REMARK    4  A    between atoms: C_12  and  C_13 
REMARK    5  A    between atoms: C_18  and  C_19 
ROOT
HETATM    1  C   UNL     1       6.359  28.788  56.839  1.00  0.00     0.096 A 
HETATM    2  C   UNL     1       6.579  28.357  55.544  1.00  0.00     0.138 A 
HETATM    3  N   UNL     1       5.337  28.264  54.960  1.00  0.00    -0.240 N 
HETATM    4  C   UNL     1       5.099  27.770  53.616  1.00  0.00     0.221 C 
HETATM    5  C   UNL     1       6.405  27.800  52.801  1.00  0.00     0.066 C 
HETATM    6  C   UNL     1       7.591  27.252  53.606  1.00  0.00     0.118 C 
HETATM    7  N   UNL     1       7.708  27.998  54.867  1.00  0.00    -0.365 N 
HETATM    8  N   UNL     1       4.328  28.468  55.821  1.00  0.00    -0.181 NA
HETATM    9  C   UNL     1       4.949  28.809  56.954  1.00  0.00     0.160 A 
HETATM   10  H   UNL     1       8.524  27.706  55.409  1.00  0.00     0.161 HD
ENDROOT
BRANCH   1  11
HETATM   11  C   UNL     1       7.322  29.088  57.885  1.00  0.00     0.261 C 
HETATM   12  N   UNL     1       7.076  30.292  58.517  1.00  0.00    -0.323 N 
HETATM   13  H   UNL     1       6.191  30.729  58.283  1.00  0.00     0.169 HD
HETATM   14  O   UNL     1       8.217  28.297  58.155  1.00  0.00    -0.267 OA
BRANCH  12  15
HETATM   15  C   UNL     1       7.863  30.932  59.493  1.00  0.00     0.037 A 
HETATM   16  C   UNL     1       7.446  31.157  60.806  1.00  0.00     0.066 A 
HETATM   17  C   UNL     1       8.306  31.775  61.713  1.00  0.00     0.067 A 
HETATM   18  C   UNL     1       9.581  32.182  61.333  1.00  0.00     0.036 A 
HETATM   19  C   UNL     1      10.003  31.960  60.024  1.00  0.00     0.005 A 
HETATM   20  C   UNL     1       9.150  31.335  59.111  1.00  0.00     0.029 A 
BRANCH  17  21
HETATM   21  O   UNL     1       7.858  31.959  62.988  1.00  0.00    -0.361 OA
HETATM   22  H   UNL     1       6.889  31.904  62.993  1.00  0.00     0.217 HD
ENDBRANCH  17  21
ENDBRANCH  12  15
ENDBRANCH   1  11
BRANCH   4  23
HETATM   23  C   UNL     1       4.041  28.579  52.897  1.00  0.00     0.409 C 
HETATM   24  F   UNL     1       4.095  29.893  53.213  1.00  0.00    -0.169 F 
HETATM   25  F   UNL     1       4.246  28.500  51.552  1.00  0.00    -0.169 F 
HETATM   26  F   UNL     1       2.783  28.142  53.107  1.00  0.00    -0.169 F 
ENDBRANCH   4  23
BRANCH   6  27
HETATM   27  C   UNL     1       7.545  25.740  53.794  1.00  0.00    -0.035 A 
HETATM   28  C   UNL     1       7.786  24.913  52.677  1.00  0.00     0.012 A 
HETATM   29  C   UNL     1       7.749  23.522  52.790  1.00  0.00     0.043 A 
HETATM   30  C   UNL     1       7.478  22.941  54.020  1.00  0.00     0.116 A 
HETATM   31  F   UNL     1       7.446  21.606  54.129  1.00  0.00    -0.206 F 
HETATM   32  C   UNL     1       7.241  23.726  55.139  1.00  0.00     0.043 A 
HETATM   33  C   UNL     1       7.273  25.119  55.027  1.00  0.00     0.012 A 
ENDBRANCH   6  27
TORSDOF 5
ENDMDL
MODEL 4
REMARK VINA RESULT:      -9.9      4.265      6.657
REMARK  5 active torsions:
REMARK  status: ('A' for Active; 'I' for Inactive)
REMARK    1  A    between atoms: C_3  and  O_4 
REMARK    2  A    between atoms: C_6  and  N_7 
REMARK       I    between atoms: N_7  and  C_8 
REMARK    3  A    between atoms: C_8  and  C_9 
REMARK    4  A    between atoms: C_12  and  C_13 
REMARK    5  A    between atoms: C_18  and  C_19 
ROOT
HETATM    1  C   UNL     1       5.299  27.163  51.961  1.00  0.00     0.096 A 
HETATM    2  C   UNL     1       5.387  26.704  53.262  1.00  0.00     0.138 A 
HETATM    3  N   UNL     1       6.160  27.622  53.935  1.00  0.00    -0.240 N 
HETATM    4  C   UNL     1       6.571  27.486  55.321  1.00  0.00     0.221 C 
HETATM    5  C   UNL     1       5.680  26.456  56.039  1.00  0.00     0.066 C 
HETATM    6  C   UNL     1       5.467  25.196  55.191  1.00  0.00     0.118 C 
HETATM    7  N   UNL     1       4.923  25.580  53.880  1.00  0.00    -0.365 N 
HETATM    8  N   UNL     1       6.690  28.560  53.135  1.00  0.00    -0.181 NA
HETATM    9  C   UNL     1       6.148  28.295  51.942  1.00  0.00     0.160 A 
HETATM   10  H   UNL     1       4.708  24.764  53.302  1.00  0.00     0.161 HD
ENDROOT
BRANCH   1  11
HETATM   11  C   UNL     1       4.574  26.601  50.834  1.00  0.00     0.261 C 
HETATM   12  N   UNL     1       3.968  27.562  50.047  1.00  0.00    -0.323 N 
HETATM   13  H   UNL     1       4.226  28.519  50.260  1.00  0.00     0.169 HD
HETATM   14  O   UNL     1       4.567  25.392  50.636  1.00  0.00    -0.267 OA
BRANCH  12  15
HETATM   15  C   UNL     1       3.110  27.365  48.949  1.00  0.00     0.037 A 
HETATM   16  C   UNL     1       3.313  26.397  47.964  1.00  0.00     0.066 A 
HETATM   17  C   UNL     1       2.392  26.255  46.927  1.00  0.00     0.067 A 
HETATM   18  C   UNL     1       1.267  27.069  46.848  1.00  0.00     0.036 A 
HETATM   19  C   UNL     1       1.058  28.037  47.827  1.00  0.00     0.005 A 
HETATM   20  C   UNL     1       1.972  28.181  48.875  1.00  0.00     0.029 A 
BRANCH  17  21
HETATM   21  O   UNL     1       2.627  25.286  45.997  1.00  0.00    -0.361 OA
HETATM   22  H   UNL     1       2.909  24.475  46.451  1.00  0.00     0.217 HD
ENDBRANCH  17  21
ENDBRANCH  12  15
ENDBRANCH   1  11
BRANCH   4  23
HETATM   23  C   UNL     1       6.508  28.806  56.059  1.00  0.00     0.409 C 
HETATM   24  F   UNL     1       5.403  29.520  55.743  1.00  0.00    -0.169 F 
HETATM   25  F   UNL     1       6.443  28.572  57.400  1.00  0.00    -0.169 F 
HETATM   26  F   UNL     1       7.589  29.589  55.870  1.00  0.00    -0.169 F 
ENDBRANCH   4  23
BRANCH   6  27
HETATM   27  C   UNL     1       6.707  24.313  55.102  1.00  0.00    -0.035 A 
HETATM   28  C   UNL     1       7.469  24.099  56.269  1.00  0.00     0.012 A 
HETATM   29  C   UNL     1       8.617  23.305  56.244  1.00  0.00     0.043 A 
HETATM   30  C   UNL     1       9.013  22.710  55.055  1.00  0.00     0.116 A 
HETATM   31  F   UNL     1      10.113  21.946  55.031  1.00  0.00    -0.206 F 
HETATM   32  C   UNL     1       8.283  22.898  53.890  1.00  0.00     0.043 A 
HETATM   33  C   UNL     1       7.136  23.695  53.912  1.00  0.00     0.012 A 
ENDBRANCH   6  27
TORSDOF 5
ENDMDL
MODEL 5
REMARK VINA RESULT:      -9.7      3.640      7.597
REMARK  5 active torsions:
REMARK  status: ('A' for Active; 'I' for Inactive)
REMARK    1  A    between atoms: C_3  and  O_4 
REMARK    2  A    between atoms: C_6  and  N_7 
REMARK       I    between atoms: N_7  and  C_8 
REMARK    3  A    between atoms: C_8  and  C_9 
REMARK    4  A    between atoms: C_12  and  C_13 
REMARK    5  A    between atoms: C_18  and  C_19 
ROOT
HETATM    1  C   UNL     1       6.387  27.996  54.581  1.00  0.00     0.096 A 
HETATM    2  C   UNL     1       6.828  27.025  53.700  1.00  0.00     0.138 A 
HETATM    3  N   UNL     1       5.723  26.641  52.976  1.00  0.00    -0.240 N 
HETATM    4  C   UNL     1       5.722  25.580  51.986  1.00  0.00     0.221 C 
HETATM    5  C   UNL     1       7.163  25.269  51.541  1.00  0.00     0.066 C 
HETATM    6  C   UNL     1       8.122  25.184  52.734  1.00  0.00     0.118 C 
HETATM    7  N   UNL     1       8.040  26.428  53.513  1.00  0.00    -0.365 N 
HETATM    8  N   UNL     1       4.581  27.190  53.418  1.00  0.00    -0.181 NA
HETATM    9  C   UNL     1       4.987  28.029  54.375  1.00  0.00     0.160 A 
HETATM   10  H   UNL     1       8.709  26.439  54.286  1.00  0.00     0.161 HD
ENDROOT
BRANCH   1  11
HETATM   11  C   UNL     1       7.142  28.769  55.553  1.00  0.00     0.261 C 
HETATM   12  N   UNL     1       6.398  29.112  56.666  1.00  0.00    -0.323 N 
HETATM   13  H   UNL     1       5.491  28.663  56.734  1.00  0.00     0.169 HD
HETATM   14  O   UNL     1       8.324  29.027  55.363  1.00  0.00    -0.267 OA
BRANCH  12  15
HETATM   15  C   UNL     1       6.780  29.937  57.740  1.00  0.00     0.037 A 
HETATM   16  C   UNL     1       7.833  29.647  58.610  1.00  0.00     0.066 A 
HETATM   17  C   UNL     1       8.158  30.539  59.630  1.00  0.00     0.067 A 
HETATM   18  C   UNL     1       7.447  31.721  59.807  1.00  0.00     0.036 A 
HETATM   19  C   UNL     1       6.395  32.017  58.943  1.00  0.00     0.005 A 
HETATM   20  C   UNL     1       6.067  31.131  57.912  1.00  0.00     0.029 A 
BRANCH  17  21
HETATM   21  O   UNL     1       9.204  30.218  60.445  1.00  0.00    -0.361 OA
HETATM   22  H   UNL     1       8.935  30.344  61.369  1.00  0.00     0.217 HD
ENDBRANCH  17  21
ENDBRANCH  12  15
ENDBRANCH   1  11
BRANCH   4  23
HETATM   23  C   UNL     1       4.889  25.940  50.775  1.00  0.00     0.409 C 
HETATM   24  F   UNL     1       4.059  24.937  50.404  1.00  0.00    -0.169 F 
HETATM   25  F   UNL     1       4.093  27.005  51.073  1.00  0.00    -0.169 F 
HETATM   26  F   UNL     1       5.617  26.309  49.702  1.00  0.00    -0.169 F 
ENDBRANCH   4  23
BRANCH   6  27
HETATM   27  C   UNL     1       7.931  23.925  53.573  1.00  0.00    -0.035 A 
HETATM   28  C   UNL     1       7.967  22.672  52.928  1.00  0.00     0.012 A 
HETATM   29  C   UNL     1       7.791  21.487  53.645  1.00  0.00     0.043 A 
HETATM   30  C   UNL     1       7.583  21.541  55.016  1.00  0.00     0.116 A 
HETATM   31  F   UNL     1       7.417  20.404  55.705  1.00  0.00    -0.206 F 
HETATM   32  C   UNL     1       7.546  22.757  55.681  1.00  0.00     0.043 A 
HETATM   33  C   UNL     1       7.718  23.944  54.964  1.00  0.00     0.012 A 
ENDBRANCH   6  27
TORSDOF 5
ENDMDL
MODEL 6
REMARK VINA RESULT:      -9.3      3.979      6.739
REMARK  5 active torsions:
REMARK  status: ('A' for Active; 'I' for Inactive)
REMARK    1  A    between atoms: C_3  and  O_4 
REMARK    2  A    between atoms: C_6  and  N_7 
REMARK       I    between atoms: N_7  and  C_8 
REMARK    3  A    between atoms: C_8  and  C_9 
REMARK    4  A    between atoms: C_12  and  C_13 
REMARK    5  A    between atoms: C_18  and  C_19 
ROOT
HETATM    1  C   UNL     1       5.783  26.134  52.629  1.00  0.00     0.096 A 
HETATM    2  C   UNL     1       5.599  27.139  51.697  1.00  0.00     0.138 A 
HETATM    3  N   UNL     1       4.650  27.980  52.231  1.00  0.00    -0.240 N 
HETATM    4  C   UNL     1       4.100  29.134  51.543  1.00  0.00     0.221 C 
HETATM    5  C   UNL     1       5.017  29.542  50.375  1.00  0.00     0.066 C 
HETATM    6  C   UNL     1       5.474  28.326  49.558  1.00  0.00     0.118 C 
HETATM    7  N   UNL     1       6.117  27.354  50.454  1.00  0.00    -0.365 N 
HETATM    8  N   UNL     1       4.110  27.519  53.369  1.00  0.00    -0.181 NA
HETATM    9  C   UNL     1       4.813  26.411  53.622  1.00  0.00     0.160 A 
HETATM   10  H   UNL     1       6.493  26.553  49.941  1.00  0.00     0.161 HD
ENDROOT
BRANCH   1  11
HETATM   11  C   UNL     1       6.695  25.003  52.595  1.00  0.00     0.261 C 
HETATM   12  N   UNL     1       6.528  24.141  53.662  1.00  0.00    -0.323 N 
HETATM   13  H   UNL     1       5.710  24.319  54.236  1.00  0.00     0.169 HD
HETATM   14  O   UNL     1       7.485  24.865  51.669  1.00  0.00    -0.267 OA
BRANCH  12  15
HETATM   15  C   UNL     1       7.304  23.015  53.994  1.00  0.00     0.037 A 
HETATM   16  C   UNL     1       7.510  21.931  53.139  1.00  0.00     0.066 A 
HETATM   17  C   UNL     1       8.320  20.871  53.544  1.00  0.00     0.067 A 
HETATM   18  C   UNL     1       8.928  20.866  54.794  1.00  0.00     0.036 A 
HETATM   19  C   UNL     1       8.727  21.944  55.652  1.00  0.00     0.005 A 
HETATM   20  C   UNL     1       7.922  23.015  55.252  1.00  0.00     0.029 A 
BRANCH  17  21
HETATM   21  O   UNL     1       8.502  19.841  52.667  1.00  0.00    -0.361 OA
HETATM   22  H   UNL     1       7.709  19.282  52.667  1.00  0.00     0.217 HD
ENDBRANCH  17  21
ENDBRANCH  12  15
ENDBRANCH   1  11
BRANCH   4  23
HETATM   23  C   UNL     1       3.920  30.313  52.475  1.00  0.00     0.409 C 
HETATM   24  F   UNL     1       4.812  30.305  53.492  1.00  0.00    -0.169 F 
HETATM   25  F   UNL     1       4.133  31.470  51.788  1.00  0.00    -0.169 F 
HETATM   26  F   UNL     1       2.681  30.413  52.996  1.00  0.00    -0.169 F 
ENDBRANCH   4  23
BRANCH   6  27
HETATM   27  C   UNL     1       4.366  27.725  48.700  1.00  0.00    -0.035 A 
HETATM   28  C   UNL     1       3.536  28.595  47.963  1.00  0.00     0.012 A 
HETATM   29  C   UNL     1       2.502  28.100  47.166  1.00  0.00     0.043 A 
HETATM   30  C   UNL     1       2.290  26.731  47.092  1.00  0.00     0.116 A 
HETATM   31  F   UNL     1       1.300  26.255  46.325  1.00  0.00    -0.206 F 
HETATM   32  C   UNL     1       3.091  25.849  47.801  1.00  0.00     0.043 A 
HETATM   33  C   UNL     1       4.124  26.342  48.603  1.00  0.00     0.012 A 
ENDBRANCH   6  27
TORSDOF 5
ENDMDL
MODEL 7
REMARK VINA RESULT:      -9.0     11.133     14.675
REMARK  5 active torsions:
REMARK  status: ('A' for Active; 'I' for Inactive)
REMARK    1  A    between atoms: C_3  and  O_4 
REMARK    2  A    between atoms: C_6  and  N_7 
REMARK       I    between atoms: N_7  and  C_8 
REMARK    3  A    between atoms: C_8  and  C_9 
REMARK    4  A    between atoms: C_12  and  C_13 
REMARK    5  A    between atoms: C_18  and  C_19 
ROOT
HETATM    1  C   UNL     1       6.027  34.259  65.780  1.00  0.00     0.096 A 
HETATM    2  C   UNL     1       5.518  34.798  64.613  1.00  0.00     0.138 A 
HETATM    3  N   UNL     1       6.199  34.185  63.586  1.00  0.00    -0.240 N 
HETATM    4  C   UNL     1       6.031  34.514  62.182  1.00  0.00     0.221 C 
HETATM    5  C   UNL     1       4.710  35.278  61.971  1.00  0.00     0.066 C 
HETATM    6  C   UNL     1       4.510  36.370  63.029  1.00  0.00     0.118 C 
HETATM    7  N   UNL     1       4.594  35.771  64.368  1.00  0.00    -0.365 N 
HETATM    8  N   UNL     1       7.201  33.399  64.007  1.00  0.00    -0.181 NA
HETATM    9  C   UNL     1       7.081  33.426  65.337  1.00  0.00     0.160 A 
HETATM   10  H   UNL     1       4.405  36.454  65.105  1.00  0.00     0.161 HD
ENDROOT
BRANCH   1  11
HETATM   11  C   UNL     1       5.644  34.520  67.157  1.00  0.00     0.261 C 
HETATM   12  N   UNL     1       6.716  34.860  67.962  1.00  0.00    -0.323 N 
HETATM   13  H   UNL     1       7.587  35.030  67.470  1.00  0.00     0.169 HD
HETATM   14  O   UNL     1       4.470  34.463  67.501  1.00  0.00    -0.267 OA
BRANCH  12  15
HETATM   15  C   UNL     1       6.719  35.072  69.353  1.00  0.00     0.037 A 
HETATM   16  C   UNL     1       5.923  34.361  70.252  1.00  0.00     0.066 A 
HETATM   17  C   UNL     1       6.016  34.620  71.619  1.00  0.00     0.067 A 
HETATM   18  C   UNL     1       6.888  35.585  72.111  1.00  0.00     0.036 A 
HETATM   19  C   UNL     1       7.685  36.298  71.219  1.00  0.00     0.005 A 
HETATM   20  C   UNL     1       7.605  36.040  69.848  1.00  0.00     0.029 A 
BRANCH  17  21
HETATM   21  O   UNL     1       5.227  33.888  72.458  1.00  0.00    -0.361 OA
HETATM   22  H   UNL     1       5.725  33.695  73.269  1.00  0.00     0.217 HD
ENDBRANCH  17  21
ENDBRANCH  12  15
ENDBRANCH   1  11
BRANCH   4  23
HETATM   23  C   UNL     1       6.039  33.277  61.309  1.00  0.00     0.409 C 
HETATM   24  F   UNL     1       5.404  32.233  61.889  1.00  0.00    -0.169 F 
HETATM   25  F   UNL     1       5.370  33.536  60.150  1.00  0.00    -0.169 F 
HETATM   26  F   UNL     1       7.273  32.875  60.944  1.00  0.00    -0.169 F 
ENDBRANCH   4  23
BRANCH   6  27
HETATM   27  C   UNL     1       5.431  37.570  62.839  1.00  0.00    -0.035 A 
HETATM   28  C   UNL     1       5.802  38.323  63.972  1.00  0.00     0.012 A 
HETATM   29  C   UNL     1       6.637  39.435  63.856  1.00  0.00     0.043 A 
HETATM   30  C   UNL     1       7.116  39.805  62.607  1.00  0.00     0.116 A 
HETATM   31  F   UNL     1       7.920  40.870  62.495  1.00  0.00    -0.206 F 
HETATM   32  C   UNL     1       6.773  39.084  61.473  1.00  0.00     0.043 A 
HETATM   33  C   UNL     1       5.934  37.972  61.587  1.00  0.00     0.012 A 
ENDBRANCH   6  27
TORSDOF 5
ENDMDL
MODEL 8
REMARK VINA RESULT:      -8.7      4.104      6.496
REMARK  5 active torsions:
REMARK  status: ('A' for Active; 'I' for Inactive)
REMARK    1  A    between atoms: C_3  and  O_4 
REMARK    2  A    between atoms: C_6  and  N_7 
REMARK       I    between atoms: N_7  and  C_8 
REMARK    3  A    between atoms: C_8  and  C_9 
REMARK    4  A    between atoms: C_12  and  C_13 
REMARK    5  A    between atoms: C_18  and  C_19 
ROOT
HETATM    1  C   UNL     1       5.610  26.561  52.358  1.00  0.00     0.096 A 
HETATM    2  C   UNL     1       6.318  27.092  53.420  1.00  0.00     0.138 A 
HETATM    3  N   UNL     1       6.406  26.087  54.356  1.00  0.00    -0.240 N 
HETATM    4  C   UNL     1       7.008  26.242  55.669  1.00  0.00     0.221 C 
HETATM    5  C   UNL     1       7.907  27.491  55.695  1.00  0.00     0.066 C 
HETATM    6  C   UNL     1       7.228  28.696  55.032  1.00  0.00     0.118 C 
HETATM    7  N   UNL     1       6.825  28.335  53.665  1.00  0.00    -0.365 N 
HETATM    8  N   UNL     1       5.692  24.998  54.036  1.00  0.00    -0.181 NA
HETATM    9  C   UNL     1       5.229  25.276  52.814  1.00  0.00     0.160 A 
HETATM   10  H   UNL     1       6.422  29.129  53.164  1.00  0.00     0.161 HD
ENDROOT
BRANCH   1  11
HETATM   11  C   UNL     1       5.259  27.173  51.088  1.00  0.00     0.261 C 
HETATM   12  N   UNL     1       4.089  26.670  50.550  1.00  0.00    -0.323 N 
HETATM   13  H   UNL     1       3.557  26.064  51.166  1.00  0.00     0.169 HD
HETATM   14  O   UNL     1       5.951  28.064  50.612  1.00  0.00    -0.267 OA
BRANCH  12  15
HETATM   15  C   UNL     1       3.520  26.959  49.296  1.00  0.00     0.037 A 
HETATM   16  C   UNL     1       3.381  26.025  48.269  1.00  0.00     0.066 A 
HETATM   17  C   UNL     1       2.776  26.395  47.068  1.00  0.00     0.067 A 
HETATM   18  C   UNL     1       2.310  27.690  46.867  1.00  0.00     0.036 A 
HETATM   19  C   UNL     1       2.446  28.628  47.888  1.00  0.00     0.005 A 
HETATM   20  C   UNL     1       3.043  28.263  49.098  1.00  0.00     0.029 A 
BRANCH  17  21
HETATM   21  O   UNL     1       2.651  25.442  46.100  1.00  0.00    -0.361 OA
HETATM   22  H   UNL     1       3.376  25.543  45.463  1.00  0.00     0.217 HD
ENDBRANCH  17  21
ENDBRANCH  12  15
ENDBRANCH   1  11
BRANCH   4  23
HETATM   23  C   UNL     1       7.823  25.028  56.062  1.00  0.00     0.409 C 
HETATM   24  F   UNL     1       8.776  25.323  56.975  1.00  0.00    -0.169 F 
HETATM   25  F   UNL     1       7.007  24.104  56.643  1.00  0.00    -0.169 F 
HETATM   26  F   UNL     1       8.409  24.405  55.021  1.00  0.00    -0.169 F 
ENDBRANCH   4  23
BRANCH   6  27
HETATM   27  C   UNL     1       6.097  29.286  55.866  1.00  0.00    -0.035 A 
HETATM   28  C   UNL     1       6.412  29.883  57.104  1.00  0.00     0.012 A 
HETATM   29  C   UNL     1       5.415  30.433  57.913  1.00  0.00     0.043 A 
HETATM   30  C   UNL     1       4.093  30.398  57.490  1.00  0.00     0.116 A 
HETATM   31  F   UNL     1       3.137  30.928  58.264  1.00  0.00    -0.206 F 
HETATM   32  C   UNL     1       3.751  29.821  56.276  1.00  0.00     0.043 A 
HETATM   33  C   UNL     1       4.747  29.267  55.467  1.00  0.00     0.012 A 
ENDBRANCH   6  27
TORSDOF 5
ENDMDL
MODEL 9
REMARK VINA RESULT:      -8.7     10.639     14.304
REMARK  5 active torsions:
REMARK  status: ('A' for Active; 'I' for Inactive)
REMARK    1  A    between atoms: C_3  and  O_4 
REMARK    2  A    between atoms: C_6  and  N_7 
REMARK       I    between atoms: N_7  and  C_8 
REMARK    3  A    between atoms: C_8  and  C_9 
REMARK    4  A    between atoms: C_12  and  C_13 
REMARK    5  A    between atoms: C_18  and  C_19 
ROOT
HETATM    1  C   UNL     1       6.268  33.874  65.680  1.00  0.00     0.096 A 
HETATM    2  C   UNL     1       5.530  33.592  64.544  1.00  0.00     0.138 A 
HETATM    3  N   UNL     1       6.448  33.311  63.558  1.00  0.00    -0.240 N 
HETATM    4  C   UNL     1       6.104  33.036  62.174  1.00  0.00     0.221 C 
HETATM    5  C   UNL     1       4.615  32.658  62.064  1.00  0.00     0.066 C 
HETATM    6  C   UNL     1       3.726  33.599  62.888  1.00  0.00     0.118 C 
HETATM    7  N   UNL     1       4.192  33.610  64.282  1.00  0.00    -0.365 N 
HETATM    8  N   UNL     1       7.717  33.526  63.935  1.00  0.00    -0.181 NA
HETATM    9  C   UNL     1       7.609  33.845  65.228  1.00  0.00     0.160 A 
HETATM   10  H   UNL     1       3.589  34.179  64.881  1.00  0.00     0.161 HD
ENDROOT
BRANCH   1  11
HETATM   11  C   UNL     1       5.807  34.201  67.018  1.00  0.00     0.261 C 
HETATM   12  N   UNL     1       6.825  34.622  67.853  1.00  0.00    -0.323 N 
HETATM   13  H   UNL     1       7.714  34.794  67.396  1.00  0.00     0.169 HD
HETATM   14  O   UNL     1       4.619  34.122  67.306  1.00  0.00    -0.267 OA
BRANCH  12  15
HETATM   15  C   UNL     1       6.751  34.914  69.228  1.00  0.00     0.037 A 
HETATM   16  C   UNL     1       5.968  34.199  70.135  1.00  0.00     0.066 A 
HETATM   17  C   UNL     1       5.980  34.542  71.486  1.00  0.00     0.067 A 
HETATM   18  C   UNL     1       6.758  35.596  71.954  1.00  0.00     0.036 A 
HETATM   19  C   UNL     1       7.542  36.313  71.054  1.00  0.00     0.005 A 
HETATM   20  C   UNL     1       7.542  35.971  69.699  1.00  0.00     0.029 A 
BRANCH  17  21
HETATM   21  O   UNL     1       5.209  33.804  72.336  1.00  0.00    -0.361 OA
HETATM   22  H   UNL     1       4.279  33.882  72.066  1.00  0.00     0.217 HD
ENDBRANCH  17  21
ENDBRANCH  12  15
ENDBRANCH   1  11
BRANCH   4  23
HETATM   23  C   UNL     1       6.948  31.921  61.595  1.00  0.00     0.409 C 
HETATM   24  F   UNL     1       7.009  30.844  62.412  1.00  0.00    -0.169 F 
HETATM   25  F   UNL     1       6.389  31.487  60.431  1.00  0.00    -0.169 F 
HETATM   26  F   UNL     1       8.206  32.293  61.287  1.00  0.00    -0.169 F 
ENDBRANCH   4  23
BRANCH   6  27
HETATM   27  C   UNL     1       3.593  34.990  62.278  1.00  0.00    -0.035 A 
HETATM   28  C   UNL     1       3.585  36.107  63.139  1.00  0.00     0.012 A 
HETATM   29  C   UNL     1       3.459  37.403  62.635  1.00  0.00     0.043 A 
HETATM   30  C   UNL     1       3.345  37.599  61.266  1.00  0.00     0.116 A 
HETATM   31  F   UNL     1       3.227  38.842  60.783  1.00  0.00    -0.206 F 
HETATM   32  C   UNL     1       3.353  36.521  60.393  1.00  0.00     0.043 A 
HETATM   33  C   UNL     1       3.475  35.223  60.895  1.00  0.00     0.012 A 
ENDBRANCH   6  27
TORSDOF 5
ENDMDL
MODEL 10
REMARK VINA RESULT:      -8.7      3.365      6.278
REMARK  5 active torsions:
REMARK  status: ('A' for Active; 'I' for Inactive)
REMARK    1  A    between atoms: C_3  and  O_4 
REMARK    2  A    between atoms: C_6  and  N_7 
REMARK       I    between atoms: N_7  and  C_8 
REMARK    3  A    between atoms: C_8  and  C_9 
REMARK    4  A    between atoms: C_12  and  C_13 
REMARK    5  A    between atoms: C_18  and  C_19 
ROOT
HETATM    1  C   UNL     1       5.725  27.402  53.834  1.00  0.00     0.096 A 
HETATM    2  C   UNL     1       5.387  28.384  52.921  1.00  0.00     0.138 A 
HETATM    3  N   UNL     1       4.423  29.152  53.534  1.00  0.00    -0.240 N 
HETATM    4  C   UNL     1       3.729  30.256  52.895  1.00  0.00     0.221 C 
HETATM    5  C   UNL     1       4.511  30.726  51.654  1.00  0.00     0.066 C 
HETATM    6  C   UNL     1       4.991  29.545  50.802  1.00  0.00     0.118 C 
HETATM    7  N   UNL     1       5.781  28.631  51.640  1.00  0.00    -0.365 N 
HETATM    8  N   UNL     1       4.017  28.657  54.713  1.00  0.00    -0.181 NA
HETATM    9  C   UNL     1       4.824  27.609  54.905  1.00  0.00     0.160 A 
HETATM   10  H   UNL     1       6.173  27.859  51.097  1.00  0.00     0.161 HD
ENDROOT
BRANCH   1  11
HETATM   11  C   UNL     1       6.717  26.345  53.723  1.00  0.00     0.261 C 
HETATM   12  N   UNL     1       6.234  25.108  54.108  1.00  0.00    -0.323 N 
HETATM   13  H   UNL     1       5.233  25.066  54.267  1.00  0.00     0.169 HD
HETATM   14  O   UNL     1       7.839  26.584  53.293  1.00  0.00    -0.267 OA
BRANCH  12  15
HETATM   15  C   UNL     1       6.946  23.900  54.224  1.00  0.00     0.037 A 
HETATM   16  C   UNL     1       7.299  23.317  55.442  1.00  0.00     0.066 A 
HETATM   17  C   UNL     1       7.981  22.101  55.459  1.00  0.00     0.067 A 
HETATM   18  C   UNL     1       8.327  21.452  54.278  1.00  0.00     0.036 A 
HETATM   19  C   UNL     1       7.978  22.029  53.059  1.00  0.00     0.005 A 
HETATM   20  C   UNL     1       7.287  23.244  53.032  1.00  0.00     0.029 A 
BRANCH  17  21
HETATM   21  O   UNL     1       8.291  21.564  56.675  1.00  0.00    -0.361 OA
HETATM   22  H   UNL     1       8.378  20.602  56.582  1.00  0.00     0.217 HD
ENDBRANCH  17  21
ENDBRANCH  12  15
ENDBRANCH   1  11
BRANCH   4  23
HETATM   23  C   UNL     1       3.537  31.423  53.839  1.00  0.00     0.409 C 
HETATM   24  F   UNL     1       4.647  31.684  54.567  1.00  0.00    -0.169 F 
HETATM   25  F   UNL     1       3.277  32.550  53.119  1.00  0.00    -0.169 F 
HETATM   26  F   UNL     1       2.498  31.274  54.686  1.00  0.00    -0.169 F 
ENDBRANCH   4  23
BRANCH   6  27
HETATM   27  C   UNL     1       3.866  28.855  50.039  1.00  0.00    -0.035 A 
HETATM   28  C   UNL     1       2.619  29.506  49.940  1.00  0.00     0.012 A 
HETATM   29  C   UNL     1       1.552  28.917  49.259  1.00  0.00     0.043 A 
HETATM   30  C   UNL     1       1.719  27.674  48.665  1.00  0.00     0.116 A 
HETATM   31  F   UNL     1       0.696  27.111  48.009  1.00  0.00    -0.206 F 
HETATM   32  C   UNL     1       2.934  27.009  48.742  1.00  0.00     0.043 A 
HETATM   33  C   UNL     1       4.003  27.596  49.426  1.00  0.00     0.012 A 
ENDBRANCH   6  27
TORSDOF 5
ENDMDL
