MODEL 1
REMARK VINA RESULT:     -10.1      0.000      0.000
REMARK  10 active torsions:
REMARK  status: ('A' for Active; 'I' for Inactive)
REMARK    1  A    between atoms: C_4  and  N_5 
REMARK    2  A    between atoms: N_5  and  C_6 
REMARK    3  A    between atoms: C_6  and  N_7 
REMARK    4  A    between atoms: N_7  and  N_8 
REMARK       I    between atoms: N_8  and  C_9 
REMARK    5  A    between atoms: C_9  and  C_10 
REMARK    6  A    between atoms: C_10  and  O_11 
REMARK    7  A    between atoms: O_11  and  C_12 
REMARK    8  A    between atoms: C_23  and  C_24 
REMARK    9  A    between atoms: C_24  and  O_25 
REMARK   10  A    between atoms: C_28  and  C_29 
ROOT
HETATM    1  C   UNL     1       5.747  28.771  54.440  1.00  0.00     0.191 C 
HETATM    2  S   UNL     1       4.225  28.195  54.023  1.00  0.00    -0.039 SA
ENDROOT
BRANCH   1   3
HETATM    3  N   UNL     1       6.824  27.973  54.136  1.00  0.00    -0.325 N 
HETATM    4  H   UNL     1       7.133  28.134  53.182  1.00  0.00     0.169 HD
BRANCH   3   5
HETATM    5  C   UNL     1       6.990  26.662  54.553  1.00  0.00     0.094 C 
HETATM    6  S   UNL     1       7.597  26.617  56.146  1.00  0.00    -0.075 SA
HETATM    7  C   UNL     1       7.933  24.948  56.043  1.00  0.00    -0.007 C 
HETATM    8  C   UNL     1       8.659  24.278  57.167  1.00  0.00     0.057 C 
HETATM    9  C   UNL     1       7.456  24.411  54.857  1.00  0.00     0.006 C 
HETATM   10  C   UNL     1       6.751  25.395  54.046  1.00  0.00     0.085 C 
BRANCH   9  11
HETATM   11  C   UNL     1       7.723  23.018  54.509  1.00  0.00    -0.024 A 
HETATM   12  C   UNL     1       7.487  22.022  55.468  1.00  0.00     0.012 A 
HETATM   13  C   UNL     1       7.720  20.682  55.162  1.00  0.00     0.001 A 
HETATM   14  C   UNL     1       8.189  20.329  53.898  1.00  0.00     0.000 A 
HETATM   15  C   UNL     1       8.427  21.316  52.940  1.00  0.00     0.001 A 
HETATM   16  C   UNL     1       8.199  22.659  53.244  1.00  0.00     0.012 A 
ENDBRANCH   9  11
BRANCH  10  17
HETATM   17  C   UNL     1       5.903  25.114  52.883  1.00  0.00     0.296 C 
HETATM   18  O   UNL     1       4.878  24.445  52.946  1.00  0.00    -0.259 OA
BRANCH  17  19
HETATM   19  O   UNL     1       6.391  25.621  51.715  1.00  0.00    -0.322 OA
HETATM   20  C   UNL     1       5.416  26.265  50.896  1.00  0.00     0.213 C 
ENDBRANCH  17  19
ENDBRANCH  10  17
ENDBRANCH   3   5
ENDBRANCH   1   3
BRANCH   1  21
HETATM   21  N   UNL     1       5.967  29.923  55.144  1.00  0.00    -0.273 N 
HETATM   22  H   UNL     1       5.123  30.418  55.443  1.00  0.00     0.189 HD
BRANCH  21  23
HETATM   23  N   UNL     1       7.009  30.018  56.086  1.00  0.00    -0.266 N 
HETATM   24  C   UNL     1       6.673  29.950  57.425  1.00  0.00     0.265 C 
HETATM   25  O   UNL     1       5.543  29.671  57.828  1.00  0.00    -0.269 OA
HETATM   26  H   UNL     1       7.863  30.485  55.784  1.00  0.00     0.190 HD
BRANCH  24  27
HETATM   27  C   UNL     1       7.832  30.237  58.384  1.00  0.00     0.218 C 
HETATM   28  C   UNL     1       9.151  29.811  57.747  1.00  0.00     0.050 C 
BRANCH  27  29
HETATM   29  O   UNL     1       7.923  31.635  58.665  1.00  0.00    -0.335 OA
BRANCH  29  30
HETATM   30  C   UNL     1       7.855  32.007  59.983  1.00  0.00     0.091 A 
HETATM   31  C   UNL     1       6.650  32.566  60.436  1.00  0.00     0.068 A 
HETATM   32 CL   UNL     1       5.322  32.822  59.359  1.00  0.00    -0.081 Cl
HETATM   33  C   UNL     1       6.496  32.950  61.770  1.00  0.00     0.046 A 
HETATM   34  C   UNL     1       7.548  32.760  62.661  1.00  0.00     0.012 A 
HETATM   35 BR   UNL     1       7.352  33.276  64.469  1.00  0.00    -0.051 Br
HETATM   36  C   UNL     1       8.743  32.186  62.233  1.00  0.00     0.022 A 
HETATM   37  C   UNL     1       8.895  31.804  60.897  1.00  0.00     0.040 A 
ENDBRANCH  29  30
ENDBRANCH  27  29
ENDBRANCH  24  27
ENDBRANCH  21  23
ENDBRANCH   1  21
TORSDOF 10
ENDMDL
MODEL 2
REMARK VINA RESULT:      -9.9      2.610      4.000
REMARK  10 active torsions:
REMARK  status: ('A' for Active; 'I' for Inactive)
REMARK    1  A    between atoms: C_4  and  N_5 
REMARK    2  A    between atoms: N_5  and  C_6 
REMARK    3  A    between atoms: C_6  and  N_7 
REMARK    4  A    between atoms: N_7  and  N_8 
REMARK       I    between atoms: N_8  and  C_9 
REMARK    5  A    between atoms: C_9  and  C_10 
REMARK    6  A    between atoms: C_10  and  O_11 
REMARK    7  A    between atoms: O_11  and  C_12 
REMARK    8  A    between atoms: C_23  and  C_24 
REMARK    9  A    between atoms: C_24  and  O_25 
REMARK   10  A    between atoms: C_28  and  C_29 
ROOT
HETATM    1  C   UNL     1       5.174  30.329  58.048  1.00  0.00     0.191 C 
HETATM    2  S   UNL     1       3.863  31.367  58.213  1.00  0.00    -0.039 SA
ENDROOT
BRANCH   1   3
HETATM    3  N   UNL     1       4.900  29.019  57.736  1.00  0.00    -0.325 N 
HETATM    4  H   UNL     1       4.957  28.432  58.563  1.00  0.00     0.169 HD
BRANCH   3   5
HETATM    5  C   UNL     1       5.299  28.373  56.576  1.00  0.00     0.094 C 
HETATM    6  S   UNL     1       4.221  28.720  55.301  1.00  0.00    -0.075 SA
HETATM    7  C   UNL     1       4.894  27.506  54.311  1.00  0.00    -0.007 C 
HETATM    8  C   UNL     1       4.248  27.193  52.998  1.00  0.00     0.057 C 
HETATM    9  C   UNL     1       6.017  26.943  54.898  1.00  0.00     0.006 C 
HETATM   10  C   UNL     1       6.353  27.571  56.169  1.00  0.00     0.085 C 
BRANCH   9  11
HETATM   11  C   UNL     1       6.696  25.811  54.274  1.00  0.00    -0.024 A 
HETATM   12  C   UNL     1       6.484  24.524  54.791  1.00  0.00     0.012 A 
HETATM   13  C   UNL     1       7.107  23.421  54.209  1.00  0.00     0.001 A 
HETATM   14  C   UNL     1       7.944  23.596  53.108  1.00  0.00     0.000 A 
HETATM   15  C   UNL     1       8.160  24.874  52.591  1.00  0.00     0.001 A 
HETATM   16  C   UNL     1       7.540  25.982  53.173  1.00  0.00     0.012 A 
ENDBRANCH   9  11
BRANCH  10  17
HETATM   17  C   UNL     1       7.607  27.412  56.912  1.00  0.00     0.296 C 
HETATM   18  O   UNL     1       7.950  26.356  57.432  1.00  0.00    -0.259 OA
BRANCH  17  19
HETATM   19  O   UNL     1       8.331  28.563  57.016  1.00  0.00    -0.322 OA
HETATM   20  C   UNL     1       8.700  29.147  55.768  1.00  0.00     0.213 C 
ENDBRANCH  17  19
ENDBRANCH  10  17
ENDBRANCH   3   5
ENDBRANCH   1   3
BRANCH   1  21
HETATM   21  N   UNL     1       6.471  30.683  58.300  1.00  0.00    -0.273 N 
HETATM   22  H   UNL     1       6.990  31.038  57.493  1.00  0.00     0.189 HD
BRANCH  21  23
HETATM   23  N   UNL     1       6.834  31.325  59.498  1.00  0.00    -0.266 N 
HETATM   24  C   UNL     1       7.932  30.839  60.182  1.00  0.00     0.265 C 
HETATM   25  O   UNL     1       8.685  29.974  59.730  1.00  0.00    -0.269 OA
HETATM   26  H   UNL     1       6.102  31.843  59.984  1.00  0.00     0.190 HD
BRANCH  24  27
HETATM   27  C   UNL     1       8.154  31.474  61.557  1.00  0.00     0.218 C 
HETATM   28  C   UNL     1       9.645  31.699  61.791  1.00  0.00     0.050 C 
BRANCH  27  29
HETATM   29  O   UNL     1       7.510  32.747  61.639  1.00  0.00    -0.335 OA
BRANCH  29  30
HETATM   30  C   UNL     1       6.947  33.079  62.843  1.00  0.00     0.091 A 
HETATM   31  C   UNL     1       5.548  33.193  62.895  1.00  0.00     0.068 A 
HETATM   32 CL   UNL     1       4.581  32.973  61.479  1.00  0.00    -0.081 Cl
HETATM   33  C   UNL     1       4.899  33.507  64.091  1.00  0.00     0.046 A 
HETATM   34  C   UNL     1       5.650  33.694  65.247  1.00  0.00     0.012 A 
HETATM   35 BR   UNL     1       4.783  34.120  66.872  1.00  0.00    -0.051 Br
HETATM   36  C   UNL     1       7.037  33.562  65.219  1.00  0.00     0.022 A 
HETATM   37  C   UNL     1       7.684  33.249  64.020  1.00  0.00     0.040 A 
ENDBRANCH  29  30
ENDBRANCH  27  29
ENDBRANCH  24  27
ENDBRANCH  21  23
ENDBRANCH   1  21
TORSDOF 10
ENDMDL
MODEL 3
REMARK VINA RESULT:      -9.4      4.406     10.977
REMARK  10 active torsions:
REMARK  status: ('A' for Active; 'I' for Inactive)
REMARK    1  A    between atoms: C_4  and  N_5 
REMARK    2  A    between atoms: N_5  and  C_6 
REMARK    3  A    between atoms: C_6  and  N_7 
REMARK    4  A    between atoms: N_7  and  N_8 
REMARK       I    between atoms: N_8  and  C_9 
REMARK    5  A    between atoms: C_9  and  C_10 
REMARK    6  A    between atoms: C_10  and  O_11 
REMARK    7  A    between atoms: O_11  and  C_12 
REMARK    8  A    between atoms: C_23  and  C_24 
REMARK    9  A    between atoms: C_24  and  O_25 
REMARK   10  A    between atoms: C_28  and  C_29 
ROOT
HETATM    1  C   UNL     1       8.147  30.393  58.643  1.00  0.00     0.191 C 
HETATM    2  S   UNL     1       9.760  30.788  58.386  1.00  0.00    -0.039 SA
ENDROOT
BRANCH   1   3
HETATM    3  N   UNL     1       7.716  30.335  59.946  1.00  0.00    -0.325 N 
HETATM    4  H   UNL     1       7.104  29.536  60.088  1.00  0.00     0.169 HD
BRANCH   3   5
HETATM    5  C   UNL     1       7.379  31.430  60.726  1.00  0.00     0.094 C 
HETATM    6  S   UNL     1       8.458  31.580  62.038  1.00  0.00    -0.075 SA
HETATM    7  C   UNL     1       7.470  32.741  62.805  1.00  0.00    -0.007 C 
HETATM    8  C   UNL     1       7.831  33.213  64.178  1.00  0.00     0.057 C 
HETATM    9  C   UNL     1       6.405  33.107  61.996  1.00  0.00     0.006 C 
HETATM   10  C   UNL     1       6.442  32.451  60.696  1.00  0.00     0.085 C 
BRANCH   9  11
HETATM   11  C   UNL     1       5.372  34.013  62.491  1.00  0.00    -0.024 A 
HETATM   12  C   UNL     1       5.492  35.385  62.231  1.00  0.00     0.012 A 
HETATM   13  C   UNL     1       4.515  36.274  62.679  1.00  0.00     0.001 A 
HETATM   14  C   UNL     1       3.413  35.797  63.387  1.00  0.00     0.000 A 
HETATM   15  C   UNL     1       3.290  34.433  63.650  1.00  0.00     0.001 A 
HETATM   16  C   UNL     1       4.268  33.540  63.207  1.00  0.00     0.012 A 
ENDBRANCH   9  11
BRANCH  10  17
HETATM   17  C   UNL     1       5.640  32.805  59.521  1.00  0.00     0.296 C 
HETATM   18  O   UNL     1       6.114  32.922  58.396  1.00  0.00    -0.259 OA
BRANCH  17  19
HETATM   19  O   UNL     1       4.329  33.044  59.806  1.00  0.00    -0.322 OA
HETATM   20  C   UNL     1       3.518  31.873  59.895  1.00  0.00     0.213 C 
ENDBRANCH  17  19
ENDBRANCH  10  17
ENDBRANCH   3   5
ENDBRANCH   1   3
BRANCH   1  21
HETATM   21  N   UNL     1       7.277  30.034  57.650  1.00  0.00    -0.273 N 
HETATM   22  H   UNL     1       7.347  30.583  56.790  1.00  0.00     0.189 HD
BRANCH  21  23
HETATM   23  N   UNL     1       6.967  28.684  57.402  1.00  0.00    -0.266 N 
HETATM   24  C   UNL     1       7.647  28.045  56.382  1.00  0.00     0.265 C 
HETATM   25  O   UNL     1       8.598  28.548  55.781  1.00  0.00    -0.269 OA
HETATM   26  H   UNL     1       6.050  28.357  57.704  1.00  0.00     0.190 HD
BRANCH  24  27
HETATM   27  C   UNL     1       7.131  26.640  56.059  1.00  0.00     0.218 C 
HETATM   28  C   UNL     1       5.619  26.585  56.253  1.00  0.00     0.050 C 
BRANCH  27  29
HETATM   29  O   UNL     1       7.401  26.300  54.698  1.00  0.00    -0.335 OA
BRANCH  29  30
HETATM   30  C   UNL     1       7.619  24.974  54.424  1.00  0.00     0.091 A 
HETATM   31  C   UNL     1       7.451  24.551  53.095  1.00  0.00     0.068 A 
HETATM   32 CL   UNL     1       6.939  25.653  51.865  1.00  0.00    -0.081 Cl
HETATM   33  C   UNL     1       7.675  23.221  52.734  1.00  0.00     0.046 A 
HETATM   34  C   UNL     1       8.085  22.310  53.702  1.00  0.00     0.012 A 
HETATM   35 BR   UNL     1       8.391  20.507  53.225  1.00  0.00    -0.051 Br
HETATM   36  C   UNL     1       8.278  22.717  55.021  1.00  0.00     0.022 A 
HETATM   37  C   UNL     1       8.051  24.049  55.381  1.00  0.00     0.040 A 
ENDBRANCH  29  30
ENDBRANCH  27  29
ENDBRANCH  24  27
ENDBRANCH  21  23
ENDBRANCH   1  21
TORSDOF 10
ENDMDL
MODEL 4
REMARK VINA RESULT:      -9.4      2.090      2.822
REMARK  10 active torsions:
REMARK  status: ('A' for Active; 'I' for Inactive)
REMARK    1  A    between atoms: C_4  and  N_5 
REMARK    2  A    between atoms: N_5  and  C_6 
REMARK    3  A    between atoms: C_6  and  N_7 
REMARK    4  A    between atoms: N_7  and  N_8 
REMARK       I    between atoms: N_8  and  C_9 
REMARK    5  A    between atoms: C_9  and  C_10 
REMARK    6  A    between atoms: C_10  and  O_11 
REMARK    7  A    between atoms: O_11  and  C_12 
REMARK    8  A    between atoms: C_23  and  C_24 
REMARK    9  A    between atoms: C_24  and  O_25 
REMARK   10  A    between atoms: C_28  and  C_29 
ROOT
HETATM    1  C   UNL     1       4.385  28.602  55.390  1.00  0.00     0.191 C 
HETATM    2  S   UNL     1       4.340  29.910  54.335  1.00  0.00    -0.039 SA
ENDROOT
BRANCH   1   3
HETATM    3  N   UNL     1       4.354  27.347  54.832  1.00  0.00    -0.325 N 
HETATM    4  H   UNL     1       3.523  26.842  55.128  1.00  0.00     0.169 HD
BRANCH   3   5
HETATM    5  C   UNL     1       5.456  26.528  54.643  1.00  0.00     0.094 C 
HETATM    6  S   UNL     1       6.245  26.920  53.184  1.00  0.00    -0.075 SA
HETATM    7  C   UNL     1       7.210  25.515  53.249  1.00  0.00    -0.007 C 
HETATM    8  C   UNL     1       8.096  25.184  52.090  1.00  0.00     0.057 C 
HETATM    9  C   UNL     1       7.026  24.834  54.442  1.00  0.00     0.006 C 
HETATM   10  C   UNL     1       6.108  25.523  55.340  1.00  0.00     0.085 C 
BRANCH   9  11
HETATM   11  C   UNL     1       7.674  23.546  54.672  1.00  0.00    -0.024 A 
HETATM   12  C   UNL     1       7.244  22.430  53.938  1.00  0.00     0.012 A 
HETATM   13  C   UNL     1       7.852  21.189  54.126  1.00  0.00     0.001 A 
HETATM   14  C   UNL     1       8.892  21.056  55.044  1.00  0.00     0.000 A 
HETATM   15  C   UNL     1       9.322  22.162  55.778  1.00  0.00     0.001 A 
HETATM   16  C   UNL     1       8.714  23.405  55.597  1.00  0.00     0.012 A 
ENDBRANCH   9  11
BRANCH  10  17
HETATM   17  C   UNL     1       5.900  25.231  56.761  1.00  0.00     0.296 C 
HETATM   18  O   UNL     1       4.789  25.108  57.266  1.00  0.00    -0.259 OA
BRANCH  17  19
HETATM   19  O   UNL     1       7.056  25.164  57.480  1.00  0.00    -0.322 OA
HETATM   20  C   UNL     1       7.733  26.411  57.632  1.00  0.00     0.213 C 
ENDBRANCH  17  19
ENDBRANCH  10  17
ENDBRANCH   3   5
ENDBRANCH   1   3
BRANCH   1  21
HETATM   21  N   UNL     1       4.350  28.713  56.753  1.00  0.00    -0.273 N 
HETATM   22  H   UNL     1       3.719  28.061  57.226  1.00  0.00     0.189 HD
BRANCH  21  23
HETATM   23  N   UNL     1       5.518  28.966  57.496  1.00  0.00    -0.266 N 
HETATM   24  C   UNL     1       5.812  30.281  57.803  1.00  0.00     0.265 C 
HETATM   25  O   UNL     1       5.042  31.218  57.586  1.00  0.00    -0.269 OA
HETATM   26  H   UNL     1       6.253  28.262  57.454  1.00  0.00     0.190 HD
BRANCH  24  27
HETATM   27  C   UNL     1       7.182  30.488  58.455  1.00  0.00     0.218 C 
HETATM   28  C   UNL     1       8.286  30.097  57.479  1.00  0.00     0.050 C 
BRANCH  27  29
HETATM   29  O   UNL     1       7.379  31.861  58.798  1.00  0.00    -0.335 OA
BRANCH  29  30
HETATM   30  C   UNL     1       7.278  32.188  60.126  1.00  0.00     0.091 A 
HETATM   31  C   UNL     1       8.467  32.254  60.869  1.00  0.00     0.068 A 
HETATM   32 CL   UNL     1       9.994  31.887  60.146  1.00  0.00    -0.081 Cl
HETATM   33  C   UNL     1       8.447  32.601  62.222  1.00  0.00     0.046 A 
HETATM   34  C   UNL     1       7.233  32.899  62.833  1.00  0.00     0.012 A 
HETATM   35 BR   UNL     1       7.194  33.369  64.663  1.00  0.00    -0.051 Br
HETATM   36  C   UNL     1       6.046  32.860  62.105  1.00  0.00     0.022 A 
HETATM   37  C   UNL     1       6.068  32.511  60.751  1.00  0.00     0.040 A 
ENDBRANCH  29  30
ENDBRANCH  27  29
ENDBRANCH  24  27
ENDBRANCH  21  23
ENDBRANCH   1  21
TORSDOF 10
ENDMDL
MODEL 5
REMARK VINA RESULT:      -9.3      4.212     10.555
REMARK  10 active torsions:
REMARK  status: ('A' for Active; 'I' for Inactive)
REMARK    1  A    between atoms: C_4  and  N_5 
REMARK    2  A    between atoms: N_5  and  C_6 
REMARK    3  A    between atoms: C_6  and  N_7 
REMARK    4  A    between atoms: N_7  and  N_8 
REMARK       I    between atoms: N_8  and  C_9 
REMARK    5  A    between atoms: C_9  and  C_10 
REMARK    6  A    between atoms: C_10  and  O_11 
REMARK    7  A    between atoms: O_11  and  C_12 
REMARK    8  A    between atoms: C_23  and  C_24 
REMARK    9  A    between atoms: C_24  and  O_25 
REMARK   10  A    between atoms: C_28  and  C_29 
ROOT
HETATM    1  C   UNL     1       5.111  30.347  57.338  1.00  0.00     0.191 C 
HETATM    2  S   UNL     1       4.164  31.213  56.254  1.00  0.00    -0.039 SA
ENDROOT
BRANCH   1   3
HETATM    3  N   UNL     1       6.333  30.881  57.668  1.00  0.00    -0.325 N 
HETATM    4  H   UNL     1       7.085  30.256  57.393  1.00  0.00     0.169 HD
BRANCH   3   5
HETATM    5  C   UNL     1       6.608  31.595  58.824  1.00  0.00     0.094 C 
HETATM    6  S   UNL     1       8.220  31.336  59.314  1.00  0.00    -0.075 SA
HETATM    7  C   UNL     1       7.949  32.072  60.829  1.00  0.00    -0.007 C 
HETATM    8  C   UNL     1       9.033  32.041  61.860  1.00  0.00     0.057 C 
HETATM    9  C   UNL     1       6.682  32.631  60.897  1.00  0.00     0.006 C 
HETATM   10  C   UNL     1       5.945  32.491  59.647  1.00  0.00     0.085 C 
BRANCH   9  11
HETATM   11  C   UNL     1       6.195  33.224  62.139  1.00  0.00    -0.024 A 
HETATM   12  C   UNL     1       6.289  34.613  62.309  1.00  0.00     0.012 A 
HETATM   13  C   UNL     1       5.821  35.212  63.479  1.00  0.00     0.001 A 
HETATM   14  C   UNL     1       5.256  34.427  64.483  1.00  0.00     0.000 A 
HETATM   15  C   UNL     1       5.162  33.044  64.320  1.00  0.00     0.001 A 
HETATM   16  C   UNL     1       5.633  32.441  63.152  1.00  0.00     0.012 A 
ENDBRANCH   9  11
BRANCH  10  17
HETATM   17  C   UNL     1       4.707  33.189  59.286  1.00  0.00     0.296 C 
HETATM   18  O   UNL     1       4.681  34.179  58.563  1.00  0.00    -0.259 OA
BRANCH  17  19
HETATM   19  O   UNL     1       3.594  32.667  59.874  1.00  0.00    -0.322 OA
HETATM   20  C   UNL     1       2.828  33.605  60.629  1.00  0.00     0.213 C 
ENDBRANCH  17  19
ENDBRANCH  10  17
ENDBRANCH   3   5
ENDBRANCH   1   3
BRANCH   1  21
HETATM   21  N   UNL     1       4.785  29.111  57.826  1.00  0.00    -0.273 N 
HETATM   22  H   UNL     1       4.011  29.098  58.496  1.00  0.00     0.189 HD
BRANCH  21  23
HETATM   23  N   UNL     1       4.802  27.971  57.002  1.00  0.00    -0.266 N 
HETATM   24  C   UNL     1       6.024  27.375  56.754  1.00  0.00     0.265 C 
HETATM   25  O   UNL     1       7.066  27.700  57.325  1.00  0.00    -0.269 OA
HETATM   26  H   UNL     1       4.024  27.860  56.352  1.00  0.00     0.190 HD
BRANCH  24  27
HETATM   27  C   UNL     1       5.982  26.254  55.711  1.00  0.00     0.218 C 
HETATM   28  C   UNL     1       5.181  26.706  54.495  1.00  0.00     0.050 C 
BRANCH  27  29
HETATM   29  O   UNL     1       7.299  25.930  55.261  1.00  0.00    -0.335 OA
BRANCH  29  30
HETATM   30  C   UNL     1       7.499  24.653  54.803  1.00  0.00     0.091 A 
HETATM   31  C   UNL     1       7.864  24.498  53.456  1.00  0.00     0.068 A 
HETATM   32 CL   UNL     1       8.004  25.864  52.405  1.00  0.00    -0.081 Cl
HETATM   33  C   UNL     1       8.105  23.230  52.922  1.00  0.00     0.046 A 
HETATM   34  C   UNL     1       7.997  22.112  53.741  1.00  0.00     0.012 A 
HETATM   35 BR   UNL     1       8.321  20.391  53.029  1.00  0.00    -0.051 Br
HETATM   36  C   UNL     1       7.658  22.249  55.086  1.00  0.00     0.022 A 
HETATM   37  C   UNL     1       7.415  23.519  55.618  1.00  0.00     0.040 A 
ENDBRANCH  29  30
ENDBRANCH  27  29
ENDBRANCH  24  27
ENDBRANCH  21  23
ENDBRANCH   1  21
TORSDOF 10
ENDMDL
MODEL 6
REMARK VINA RESULT:      -9.3      1.721      2.563
REMARK  10 active torsions:
REMARK  status: ('A' for Active; 'I' for Inactive)
REMARK    1  A    between atoms: C_4  and  N_5 
REMARK    2  A    between atoms: N_5  and  C_6 
REMARK    3  A    between atoms: C_6  and  N_7 
REMARK    4  A    between atoms: N_7  and  N_8 
REMARK       I    between atoms: N_8  and  C_9 
REMARK    5  A    between atoms: C_9  and  C_10 
REMARK    6  A    between atoms: C_10  and  O_11 
REMARK    7  A    between atoms: O_11  and  C_12 
REMARK    8  A    between atoms: C_23  and  C_24 
REMARK    9  A    between atoms: C_24  and  O_25 
REMARK   10  A    between atoms: C_28  and  C_29 
ROOT
HETATM    1  C   UNL     1       6.382  29.259  56.321  1.00  0.00     0.191 C 
HETATM    2  S   UNL     1       4.721  29.015  56.390  1.00  0.00    -0.039 SA
ENDROOT
BRANCH   1   3
HETATM    3  N   UNL     1       7.104  28.432  55.496  1.00  0.00    -0.325 N 
HETATM    4  H   UNL     1       7.015  28.724  54.526  1.00  0.00     0.169 HD
BRANCH   3   5
HETATM    5  C   UNL     1       7.225  27.060  55.647  1.00  0.00     0.094 C 
HETATM    6  S   UNL     1       7.976  26.689  57.132  1.00  0.00    -0.075 SA
HETATM    7  C   UNL     1       8.194  25.055  56.691  1.00  0.00    -0.007 C 
HETATM    8  C   UNL     1       8.980  24.155  57.592  1.00  0.00     0.057 C 
HETATM    9  C   UNL     1       7.573  24.773  55.484  1.00  0.00     0.006 C 
HETATM   10  C   UNL     1       6.859  25.922  54.945  1.00  0.00     0.085 C 
BRANCH   9  11
HETATM   11  C   UNL     1       7.717  23.460  54.862  1.00  0.00    -0.024 A 
HETATM   12  C   UNL     1       8.097  23.386  53.514  1.00  0.00     0.012 A 
HETATM   13  C   UNL     1       8.255  22.147  52.894  1.00  0.00     0.001 A 
HETATM   14  C   UNL     1       8.037  20.975  53.618  1.00  0.00     0.000 A 
HETATM   15  C   UNL     1       7.657  21.043  54.959  1.00  0.00     0.001 A 
HETATM   16  C   UNL     1       7.494  22.282  55.581  1.00  0.00     0.012 A 
ENDBRANCH   9  11
BRANCH  10  17
HETATM   17  C   UNL     1       5.888  25.904  53.846  1.00  0.00     0.296 C 
HETATM   18  O   UNL     1       4.939  25.129  53.803  1.00  0.00    -0.259 OA
BRANCH  17  19
HETATM   19  O   UNL     1       6.170  26.792  52.851  1.00  0.00    -0.322 OA
HETATM   20  C   UNL     1       5.035  27.489  52.338  1.00  0.00     0.213 C 
ENDBRANCH  17  19
ENDBRANCH  10  17
ENDBRANCH   3   5
ENDBRANCH   1   3
BRANCH   1  21
HETATM   21  N   UNL     1       7.060  30.154  57.103  1.00  0.00    -0.273 N 
HETATM   22  H   UNL     1       7.794  30.682  56.624  1.00  0.00     0.189 HD
BRANCH  21  23
HETATM   23  N   UNL     1       6.398  30.919  58.082  1.00  0.00    -0.266 N 
HETATM   24  C   UNL     1       7.171  31.715  58.907  1.00  0.00     0.265 C 
HETATM   25  O   UNL     1       8.378  31.896  58.740  1.00  0.00    -0.269 OA
HETATM   26  H   UNL     1       5.480  30.592  58.380  1.00  0.00     0.190 HD
BRANCH  24  27
HETATM   27  C   UNL     1       6.399  32.374  60.054  1.00  0.00     0.218 C 
HETATM   28  C   UNL     1       4.963  32.651  59.622  1.00  0.00     0.050 C 
BRANCH  27  29
HETATM   29  O   UNL     1       6.346  31.513  61.192  1.00  0.00    -0.335 OA
BRANCH  29  30
HETATM   30  C   UNL     1       6.370  32.114  62.424  1.00  0.00     0.091 A 
HETATM   31  C   UNL     1       7.626  32.422  62.971  1.00  0.00     0.068 A 
HETATM   32 CL   UNL     1       9.087  32.012  62.142  1.00  0.00    -0.081 Cl
HETATM   33  C   UNL     1       7.730  33.054  64.212  1.00  0.00     0.046 A 
HETATM   34  C   UNL     1       6.573  33.394  64.905  1.00  0.00     0.012 A 
HETATM   35 BR   UNL     1       6.701  34.249  66.586  1.00  0.00    -0.051 Br
HETATM   36  C   UNL     1       5.318  33.115  64.368  1.00  0.00     0.022 A 
HETATM   37  C   UNL     1       5.216  32.481  63.126  1.00  0.00     0.040 A 
ENDBRANCH  29  30
ENDBRANCH  27  29
ENDBRANCH  24  27
ENDBRANCH  21  23
ENDBRANCH   1  21
TORSDOF 10
ENDMDL
MODEL 7
REMARK VINA RESULT:      -9.1      2.161      3.197
REMARK  10 active torsions:
REMARK  status: ('A' for Active; 'I' for Inactive)
REMARK    1  A    between atoms: C_4  and  N_5 
REMARK    2  A    between atoms: N_5  and  C_6 
REMARK    3  A    between atoms: C_6  and  N_7 
REMARK    4  A    between atoms: N_7  and  N_8 
REMARK       I    between atoms: N_8  and  C_9 
REMARK    5  A    between atoms: C_9  and  C_10 
REMARK    6  A    between atoms: C_10  and  O_11 
REMARK    7  A    between atoms: O_11  and  C_12 
REMARK    8  A    between atoms: C_23  and  C_24 
REMARK    9  A    between atoms: C_24  and  O_25 
REMARK   10  A    between atoms: C_28  and  C_29 
ROOT
HETATM    1  C   UNL     1       4.971  30.241  55.643  1.00  0.00     0.191 C 
HETATM    2  S   UNL     1       3.542  30.015  56.497  1.00  0.00    -0.039 SA
ENDROOT
BRANCH   1   3
HETATM    3  N   UNL     1       5.041  29.698  54.383  1.00  0.00    -0.325 N 
HETATM    4  H   UNL     1       4.242  29.981  53.823  1.00  0.00     0.169 HD
BRANCH   3   5
HETATM    5  C   UNL     1       5.494  28.422  54.087  1.00  0.00     0.094 C 
HETATM    6  S   UNL     1       4.348  27.589  53.137  1.00  0.00    -0.075 SA
HETATM    7  C   UNL     1       5.154  26.101  53.349  1.00  0.00    -0.007 C 
HETATM    8  C   UNL     1       4.524  24.849  52.825  1.00  0.00     0.057 C 
HETATM    9  C   UNL     1       6.357  26.271  54.018  1.00  0.00     0.006 C 
HETATM   10  C   UNL     1       6.637  27.670  54.311  1.00  0.00     0.085 C 
BRANCH   9  11
HETATM   11  C   UNL     1       7.166  25.117  54.400  1.00  0.00    -0.024 A 
HETATM   12  C   UNL     1       7.289  24.795  55.759  1.00  0.00     0.012 A 
HETATM   13  C   UNL     1       8.044  23.692  56.155  1.00  0.00     0.001 A 
HETATM   14  C   UNL     1       8.678  22.903  55.196  1.00  0.00     0.000 A 
HETATM   15  C   UNL     1       8.561  23.220  53.843  1.00  0.00     0.001 A 
HETATM   16  C   UNL     1       7.809  24.326  53.442  1.00  0.00     0.012 A 
ENDBRANCH   9  11
BRANCH  10  17
HETATM   17  C   UNL     1       7.918  28.225  54.757  1.00  0.00     0.296 C 
HETATM   18  O   UNL     1       8.815  28.546  53.986  1.00  0.00    -0.259 OA
BRANCH  17  19
HETATM   19  O   UNL     1       8.041  28.298  56.113  1.00  0.00    -0.322 OA
HETATM   20  C   UNL     1       9.261  28.883  56.567  1.00  0.00     0.213 C 
ENDBRANCH  17  19
ENDBRANCH  10  17
ENDBRANCH   3   5
ENDBRANCH   1   3
BRANCH   1  21
HETATM   21  N   UNL     1       6.088  30.839  56.159  1.00  0.00    -0.273 N 
HETATM   22  H   UNL     1       6.272  31.786  55.818  1.00  0.00     0.189 HD
BRANCH  21  23
HETATM   23  N   UNL     1       6.448  30.675  57.509  1.00  0.00    -0.266 N 
HETATM   24  C   UNL     1       6.361  31.779  58.337  1.00  0.00     0.265 C 
HETATM   25  O   UNL     1       5.856  32.848  57.991  1.00  0.00    -0.269 OA
HETATM   26  H   UNL     1       7.080  29.905  57.729  1.00  0.00     0.190 HD
BRANCH  24  27
HETATM   27  C   UNL     1       6.935  31.566  59.740  1.00  0.00     0.218 C 
HETATM   28  C   UNL     1       8.068  30.546  59.688  1.00  0.00     0.050 C 
BRANCH  27  29
HETATM   29  O   UNL     1       7.477  32.782  60.257  1.00  0.00    -0.335 OA
BRANCH  29  30
HETATM   30  C   UNL     1       7.281  33.029  61.592  1.00  0.00     0.091 A 
HETATM   31  C   UNL     1       6.139  33.762  61.954  1.00  0.00     0.068 A 
HETATM   32 CL   UNL     1       5.052  34.373  60.756  1.00  0.00    -0.081 Cl
HETATM   33  C   UNL     1       5.860  34.034  63.295  1.00  0.00     0.046 A 
HETATM   34  C   UNL     1       6.718  33.560  64.282  1.00  0.00     0.012 A 
HETATM   35 BR   UNL     1       6.350  33.923  66.100  1.00  0.00    -0.051 Br
HETATM   36  C   UNL     1       7.843  32.812  63.942  1.00  0.00     0.022 A 
HETATM   37  C   UNL     1       8.122  32.541  62.599  1.00  0.00     0.040 A 
ENDBRANCH  29  30
ENDBRANCH  27  29
ENDBRANCH  24  27
ENDBRANCH  21  23
ENDBRANCH   1  21
TORSDOF 10
ENDMDL
MODEL 8
REMARK VINA RESULT:      -9.1      2.557      4.340
REMARK  10 active torsions:
REMARK  status: ('A' for Active; 'I' for Inactive)
REMARK    1  A    between atoms: C_4  and  N_5 
REMARK    2  A    between atoms: N_5  and  C_6 
REMARK    3  A    between atoms: C_6  and  N_7 
REMARK    4  A    between atoms: N_7  and  N_8 
REMARK       I    between atoms: N_8  and  C_9 
REMARK    5  A    between atoms: C_9  and  C_10 
REMARK    6  A    between atoms: C_10  and  O_11 
REMARK    7  A    between atoms: O_11  and  C_12 
REMARK    8  A    between atoms: C_23  and  C_24 
REMARK    9  A    between atoms: C_24  and  O_25 
REMARK   10  A    between atoms: C_28  and  C_29 
ROOT
HETATM    1  C   UNL     1       8.285  29.374  57.885  1.00  0.00     0.191 C 
HETATM    2  S   UNL     1       9.538  29.437  56.768  1.00  0.00    -0.039 SA
ENDROOT
BRANCH   1   3
HETATM    3  N   UNL     1       7.721  28.144  58.125  1.00  0.00    -0.325 N 
HETATM    4  H   UNL     1       8.148  27.703  58.934  1.00  0.00     0.169 HD
BRANCH   3   5
HETATM    5  C   UNL     1       7.330  27.240  57.149  1.00  0.00     0.094 C 
HETATM    6  S   UNL     1       8.215  25.790  57.294  1.00  0.00    -0.075 SA
HETATM    7  C   UNL     1       7.663  25.223  55.782  1.00  0.00    -0.007 C 
HETATM    8  C   UNL     1       8.229  23.954  55.227  1.00  0.00     0.057 C 
HETATM    9  C   UNL     1       6.707  26.072  55.246  1.00  0.00     0.006 C 
HETATM   10  C   UNL     1       6.389  27.183  56.134  1.00  0.00     0.085 C 
BRANCH   9  11
HETATM   11  C   UNL     1       6.170  25.838  53.908  1.00  0.00    -0.024 A 
HETATM   12  C   UNL     1       6.807  26.432  52.809  1.00  0.00     0.012 A 
HETATM   13  C   UNL     1       6.326  26.217  51.517  1.00  0.00     0.001 A 
HETATM   14  C   UNL     1       5.209  25.408  51.317  1.00  0.00     0.000 A 
HETATM   15  C   UNL     1       4.570  24.817  52.408  1.00  0.00     0.001 A 
HETATM   16  C   UNL     1       5.046  25.033  53.703  1.00  0.00     0.012 A 
ENDBRANCH   9  11
BRANCH  10  17
HETATM   17  C   UNL     1       5.252  28.099  56.005  1.00  0.00     0.296 C 
HETATM   18  O   UNL     1       4.766  28.419  54.926  1.00  0.00    -0.259 OA
BRANCH  17  19
HETATM   19  O   UNL     1       4.821  28.606  57.195  1.00  0.00    -0.322 OA
HETATM   20  C   UNL     1       4.496  29.995  57.165  1.00  0.00     0.213 C 
ENDBRANCH  17  19
ENDBRANCH  10  17
ENDBRANCH   3   5
ENDBRANCH   1   3
BRANCH   1  21
HETATM   21  N   UNL     1       7.735  30.473  58.487  1.00  0.00    -0.273 N 
HETATM   22  H   UNL     1       6.842  30.782  58.095  1.00  0.00     0.189 HD
BRANCH  21  23
HETATM   23  N   UNL     1       7.803  30.654  59.881  1.00  0.00    -0.266 N 
HETATM   24  C   UNL     1       7.139  31.739  60.421  1.00  0.00     0.265 C 
HETATM   25  O   UNL     1       6.383  32.464  59.773  1.00  0.00    -0.269 OA
HETATM   26  H   UNL     1       8.598  30.234  60.362  1.00  0.00     0.190 HD
BRANCH  24  27
HETATM   27  C   UNL     1       7.407  31.967  61.911  1.00  0.00     0.218 C 
HETATM   28  C   UNL     1       8.875  31.694  62.223  1.00  0.00     0.050 C 
BRANCH  27  29
HETATM   29  O   UNL     1       7.137  33.323  62.274  1.00  0.00    -0.335 OA
BRANCH  29  30
HETATM   30  C   UNL     1       6.650  33.539  63.537  1.00  0.00     0.091 A 
HETATM   31  C   UNL     1       5.256  33.552  63.702  1.00  0.00     0.068 A 
HETATM   32 CL   UNL     1       4.195  33.353  62.351  1.00  0.00    -0.081 Cl
HETATM   33  C   UNL     1       4.686  33.746  64.962  1.00  0.00     0.046 A 
HETATM   34  C   UNL     1       5.513  33.913  66.068  1.00  0.00     0.012 A 
HETATM   35 BR   UNL     1       4.753  34.177  67.778  1.00  0.00    -0.051 Br
HETATM   36  C   UNL     1       6.899  33.881  65.926  1.00  0.00     0.022 A 
HETATM   37  C   UNL     1       7.467  33.688  64.664  1.00  0.00     0.040 A 
ENDBRANCH  29  30
ENDBRANCH  27  29
ENDBRANCH  24  27
ENDBRANCH  21  23
ENDBRANCH   1  21
TORSDOF 10
ENDMDL
MODEL 9
REMARK VINA RESULT:      -9.0      4.012     10.383
REMARK  10 active torsions:
REMARK  status: ('A' for Active; 'I' for Inactive)
REMARK    1  A    between atoms: C_4  and  N_5 
REMARK    2  A    between atoms: N_5  and  C_6 
REMARK    3  A    between atoms: C_6  and  N_7 
REMARK    4  A    between atoms: N_7  and  N_8 
REMARK       I    between atoms: N_8  and  C_9 
REMARK    5  A    between atoms: C_9  and  C_10 
REMARK    6  A    between atoms: C_10  and  O_11 
REMARK    7  A    between atoms: O_11  and  C_12 
REMARK    8  A    between atoms: C_23  and  C_24 
REMARK    9  A    between atoms: C_24  and  O_25 
REMARK   10  A    between atoms: C_28  and  C_29 
ROOT
HETATM    1  C   UNL     1       8.359  29.925  57.828  1.00  0.00     0.191 C 
HETATM    2  S   UNL     1      10.004  30.024  57.495  1.00  0.00    -0.039 SA
ENDROOT
BRANCH   1   3
HETATM    3  N   UNL     1       7.992  29.836  59.149  1.00  0.00    -0.325 N 
HETATM    4  H   UNL     1       7.448  28.993  59.316  1.00  0.00     0.169 HD
BRANCH   3   5
HETATM    5  C   UNL     1       7.610  30.902  59.947  1.00  0.00     0.094 C 
HETATM    6  S   UNL     1       8.717  31.116  61.225  1.00  0.00    -0.075 SA
HETATM    7  C   UNL     1       7.681  32.206  62.031  1.00  0.00    -0.007 C 
HETATM    8  C   UNL     1       8.054  32.695  63.395  1.00  0.00     0.057 C 
HETATM    9  C   UNL     1       6.569  32.506  61.259  1.00  0.00     0.006 C 
HETATM   10  C   UNL     1       6.608  31.860  59.953  1.00  0.00     0.085 C 
BRANCH   9  11
HETATM   11  C   UNL     1       5.496  33.341  61.792  1.00  0.00    -0.024 A 
HETATM   12  C   UNL     1       4.338  32.722  62.286  1.00  0.00     0.012 A 
HETATM   13  C   UNL     1       3.301  33.490  62.814  1.00  0.00     0.001 A 
HETATM   14  C   UNL     1       3.414  34.879  62.852  1.00  0.00     0.000 A 
HETATM   15  C   UNL     1       4.563  35.499  62.359  1.00  0.00     0.001 A 
HETATM   16  C   UNL     1       5.602  34.734  61.826  1.00  0.00     0.012 A 
ENDBRANCH   9  11
BRANCH  10  17
HETATM   17  C   UNL     1       5.748  32.166  58.807  1.00  0.00     0.296 C 
HETATM   18  O   UNL     1       5.103  31.315  58.205  1.00  0.00    -0.259 OA
BRANCH  17  19
HETATM   19  O   UNL     1       5.774  33.478  58.438  1.00  0.00    -0.322 OA
HETATM   20  C   UNL     1       4.498  34.030  58.117  1.00  0.00     0.213 C 
ENDBRANCH  17  19
ENDBRANCH  10  17
ENDBRANCH   3   5
ENDBRANCH   1   3
BRANCH   1  21
HETATM   21  N   UNL     1       7.386  29.829  56.872  1.00  0.00    -0.273 N 
HETATM   22  H   UNL     1       7.179  30.698  56.373  1.00  0.00     0.189 HD
BRANCH  21  23
HETATM   23  N   UNL     1       7.283  28.696  56.044  1.00  0.00    -0.266 N 
HETATM   24  C   UNL     1       6.020  28.197  55.790  1.00  0.00     0.265 C 
HETATM   25  O   UNL     1       4.983  28.769  56.130  1.00  0.00    -0.269 OA
HETATM   26  H   UNL     1       8.105  28.097  55.978  1.00  0.00     0.190 HD
BRANCH  24  27
HETATM   27  C   UNL     1       6.004  26.867  55.032  1.00  0.00     0.218 C 
HETATM   28  C   UNL     1       5.144  26.993  53.779  1.00  0.00     0.050 C 
BRANCH  27  29
HETATM   29  O   UNL     1       7.321  26.506  54.613  1.00  0.00    -0.335 OA
BRANCH  29  30
HETATM   30  C   UNL     1       7.516  25.201  54.240  1.00  0.00     0.091 A 
HETATM   31  C   UNL     1       7.465  24.224  55.247  1.00  0.00     0.068 A 
HETATM   32 CL   UNL     1       7.217  24.659  56.902  1.00  0.00    -0.081 Cl
HETATM   33  C   UNL     1       7.632  22.872  54.942  1.00  0.00     0.046 A 
HETATM   34  C   UNL     1       7.837  22.490  53.620  1.00  0.00     0.012 A 
HETATM   35 BR   UNL     1       8.066  20.663  53.194  1.00  0.00    -0.051 Br
HETATM   36  C   UNL     1       7.869  23.444  52.605  1.00  0.00     0.022 A 
HETATM   37  C   UNL     1       7.702  24.797  52.913  1.00  0.00     0.040 A 
ENDBRANCH  29  30
ENDBRANCH  27  29
ENDBRANCH  24  27
ENDBRANCH  21  23
ENDBRANCH   1  21
TORSDOF 10
ENDMDL
MODEL 10
REMARK VINA RESULT:      -9.0      3.793     10.240
REMARK  10 active torsions:
REMARK  status: ('A' for Active; 'I' for Inactive)
REMARK    1  A    between atoms: C_4  and  N_5 
REMARK    2  A    between atoms: N_5  and  C_6 
REMARK    3  A    between atoms: C_6  and  N_7 
REMARK    4  A    between atoms: N_7  and  N_8 
REMARK       I    between atoms: N_8  and  C_9 
REMARK    5  A    between atoms: C_9  and  C_10 
REMARK    6  A    between atoms: C_10  and  O_11 
REMARK    7  A    between atoms: O_11  and  C_12 
REMARK    8  A    between atoms: C_23  and  C_24 
REMARK    9  A    between atoms: C_24  and  O_25 
REMARK   10  A    between atoms: C_28  and  C_29 
ROOT
HETATM    1  C   UNL     1       6.303  30.309  56.712  1.00  0.00     0.191 C 
HETATM    2  S   UNL     1       6.825  28.973  57.587  1.00  0.00    -0.039 SA
ENDROOT
BRANCH   1   3
HETATM    3  N   UNL     1       6.371  31.532  57.336  1.00  0.00    -0.325 N 
HETATM    4  H   UNL     1       7.159  32.070  56.987  1.00  0.00     0.169 HD
BRANCH   3   5
HETATM    5  C   UNL     1       6.097  31.763  58.674  1.00  0.00     0.094 C 
HETATM    6  S   UNL     1       4.413  31.811  58.937  1.00  0.00    -0.075 SA
HETATM    7  C   UNL     1       4.608  32.430  60.515  1.00  0.00    -0.007 C 
HETATM    8  C   UNL     1       3.399  32.845  61.292  1.00  0.00     0.057 C 
HETATM    9  C   UNL     1       5.946  32.463  60.880  1.00  0.00     0.006 C 
HETATM   10  C   UNL     1       6.817  31.913  59.849  1.00  0.00     0.085 C 
BRANCH   9  11
HETATM   11  C   UNL     1       6.356  33.052  62.151  1.00  0.00    -0.024 A 
HETATM   12  C   UNL     1       7.063  32.261  63.068  1.00  0.00     0.012 A 
HETATM   13  C   UNL     1       7.481  32.799  64.285  1.00  0.00     0.001 A 
HETATM   14  C   UNL     1       7.196  34.129  64.592  1.00  0.00     0.000 A 
HETATM   15  C   UNL     1       6.492  34.919  63.683  1.00  0.00     0.001 A 
HETATM   16  C   UNL     1       6.069  34.384  62.466  1.00  0.00     0.012 A 
ENDBRANCH   9  11
BRANCH  10  17
HETATM   17  C   UNL     1       8.228  31.552  60.007  1.00  0.00     0.296 C 
HETATM   18  O   UNL     1       8.613  30.658  60.753  1.00  0.00    -0.259 OA
BRANCH  17  19
HETATM   19  O   UNL     1       9.078  32.338  59.288  1.00  0.00    -0.322 OA
HETATM   20  C   UNL     1      10.031  31.620  58.504  1.00  0.00     0.213 C 
ENDBRANCH  17  19
ENDBRANCH  10  17
ENDBRANCH   3   5
ENDBRANCH   1   3
BRANCH   1  21
HETATM   21  N   UNL     1       5.729  30.240  55.472  1.00  0.00    -0.273 N 
HETATM   22  H   UNL     1       5.612  31.138  54.996  1.00  0.00     0.189 HD
BRANCH  21  23
HETATM   23  N   UNL     1       6.037  29.195  54.581  1.00  0.00    -0.266 N 
HETATM   24  C   UNL     1       5.062  28.244  54.343  1.00  0.00     0.265 C 
HETATM   25  O   UNL     1       3.905  28.340  54.754  1.00  0.00    -0.269 OA
HETATM   26  H   UNL     1       7.024  28.977  54.449  1.00  0.00     0.190 HD
BRANCH  24  27
HETATM   27  C   UNL     1       5.533  27.051  53.507  1.00  0.00     0.218 C 
HETATM   28  C   UNL     1       5.524  27.419  52.027  1.00  0.00     0.050 C 
BRANCH  27  29
HETATM   29  O   UNL     1       6.870  26.686  53.850  1.00  0.00    -0.335 OA
BRANCH  29  30
HETATM   30  C   UNL     1       7.060  25.417  54.334  1.00  0.00     0.091 A 
HETATM   31  C   UNL     1       7.571  24.455  53.448  1.00  0.00     0.068 A 
HETATM   32 CL   UNL     1       7.899  24.847  51.796  1.00  0.00    -0.081 Cl
HETATM   33  C   UNL     1       7.812  23.147  53.873  1.00  0.00     0.046 A 
HETATM   34  C   UNL     1       7.554  22.800  55.196  1.00  0.00     0.012 A 
HETATM   35 BR   UNL     1       7.875  21.032  55.782  1.00  0.00    -0.051 Br
HETATM   36  C   UNL     1       7.068  23.747  56.094  1.00  0.00     0.022 A 
HETATM   37  C   UNL     1       6.827  25.056  55.666  1.00  0.00     0.040 A 
ENDBRANCH  29  30
ENDBRANCH  27  29
ENDBRANCH  24  27
ENDBRANCH  21  23
ENDBRANCH   1  21
TORSDOF 10
ENDMDL
