MODEL 1
REMARK VINA RESULT:      -9.0      0.000      0.000
REMARK  6 active torsions:
REMARK  status: ('A' for Active; 'I' for Inactive)
REMARK       I    between atoms: C_2  and  N_3 
REMARK    1  A    between atoms: N_3  and  C_4 
REMARK    2  A    between atoms: C_7  and  C_8 
REMARK    3  A    between atoms: C_8  and  N_9 
REMARK    4  A    between atoms: N_9  and  C_11 
REMARK    5  A    between atoms: C_11  and  C_12 
REMARK    6  A    between atoms: C_14  and  C_15 
ROOT
HETATM    1  N   UNL     1       7.069  28.001  56.124  1.00  0.00    -0.063 N 
HETATM    2  H   UNL     1       6.997  29.032  56.122  1.00  0.00     0.280 HD
HETATM    3  C   UNL     1       5.836  27.428  56.732  1.00  0.00     0.270 C 
ENDROOT
BRANCH   1   4
HETATM    4  C   UNL     1       8.309  27.743  56.963  1.00  0.00     0.294 C 
BRANCH   4   5
HETATM    5  C   UNL     1       8.761  28.994  57.649  1.00  0.00     0.069 A 
HETATM    6  C   UNL     1       9.744  29.886  57.265  1.00  0.00     0.082 A 
HETATM    7  S   UNL     1       9.860  31.154  58.425  1.00  0.00    -0.062 SA
HETATM    8  C   UNL     1       8.592  30.439  59.308  1.00  0.00     0.173 A 
HETATM    9  N   UNL     1       8.121  29.314  58.837  1.00  0.00    -0.227 NA
BRANCH   8  10
HETATM   10  N   UNL     1       8.187  31.115  60.422  1.00  0.00    -0.306 N 
HETATM   11  C   UNL     1       8.733  30.835  61.657  1.00  0.00     0.219 C 
HETATM   12  C   UNL     1       8.188  31.734  62.736  1.00  0.00     0.117 C 
HETATM   13  O   UNL     1       9.545  29.947  61.907  1.00  0.00    -0.274 OA
HETATM   14  H   UNL     1       7.433  31.781  60.320  1.00  0.00     0.171 HD
ENDBRANCH   8  10
ENDBRANCH   4   5
ENDBRANCH   1   4
BRANCH   1  15
HETATM   15  C   UNL     1       7.225  27.659  54.656  1.00  0.00     0.312 C 
BRANCH  15  16
HETATM   16  C   UNL     1       6.920  26.242  54.295  1.00  0.00     0.130 A 
HETATM   17  N   UNL     1       7.585  25.168  54.678  1.00  0.00    -0.232 NA
HETATM   18  C   UNL     1       7.012  24.106  54.013  1.00  0.00     0.084 A 
HETATM   19  C   UNL     1       5.949  24.545  53.256  1.00  0.00     0.122 A 
HETATM   20  N   UNL     1       5.890  25.898  53.453  1.00  0.00    -0.351 N 
HETATM   21  H   UNL     1       5.221  26.527  53.023  1.00  0.00     0.166 HD
BRANCH  18  22
HETATM   22  C   UNL     1       7.506  22.743  54.112  1.00  0.00    -0.006 A 
HETATM   23  C   UNL     1       7.648  22.149  55.375  1.00  0.00     0.014 A 
HETATM   24  C   UNL     1       8.142  20.847  55.499  1.00  0.00     0.001 A 
HETATM   25  C   UNL     1       8.505  20.129  54.362  1.00  0.00     0.000 A 
HETATM   26  C   UNL     1       8.373  20.708  53.102  1.00  0.00     0.001 A 
HETATM   27  C   UNL     1       7.874  22.008  52.976  1.00  0.00     0.014 A 
ENDBRANCH  18  22
ENDBRANCH  15  16
ENDBRANCH   1  15
TORSDOF 6
ENDMDL
MODEL 2
REMARK VINA RESULT:      -8.9      1.691      2.171
REMARK  6 active torsions:
REMARK  status: ('A' for Active; 'I' for Inactive)
REMARK       I    between atoms: C_2  and  N_3 
REMARK    1  A    between atoms: N_3  and  C_4 
REMARK    2  A    between atoms: C_7  and  C_8 
REMARK    3  A    between atoms: C_8  and  N_9 
REMARK    4  A    between atoms: N_9  and  C_11 
REMARK    5  A    between atoms: C_11  and  C_12 
REMARK    6  A    between atoms: C_14  and  C_15 
ROOT
HETATM    1  N   UNL     1       5.809  27.921  55.593  1.00  0.00    -0.063 N 
HETATM    2  H   UNL     1       6.755  27.696  55.245  1.00  0.00     0.280 HD
HETATM    3  C   UNL     1       4.849  27.882  54.455  1.00  0.00     0.270 C 
ENDROOT
BRANCH   1   4
HETATM    4  C   UNL     1       5.976  29.317  56.170  1.00  0.00     0.294 C 
BRANCH   4   5
HETATM    5  C   UNL     1       7.329  29.483  56.786  1.00  0.00     0.069 A 
HETATM    6  C   UNL     1       8.572  29.347  56.198  1.00  0.00     0.082 A 
HETATM    7  S   UNL     1       9.801  29.644  57.367  1.00  0.00    -0.062 SA
HETATM    8  C   UNL     1       8.597  29.956  58.529  1.00  0.00     0.173 A 
HETATM    9  N   UNL     1       7.359  29.815  58.133  1.00  0.00    -0.227 NA
BRANCH   8  10
HETATM   10  N   UNL     1       9.043  30.331  59.763  1.00  0.00    -0.306 N 
HETATM   11  C   UNL     1       9.268  31.659  60.060  1.00  0.00     0.219 C 
HETATM   12  C   UNL     1       9.699  31.856  61.491  1.00  0.00     0.117 C 
HETATM   13  O   UNL     1       9.177  32.603  59.278  1.00  0.00    -0.274 OA
HETATM   14  H   UNL     1       9.257  29.601  60.428  1.00  0.00     0.171 HD
ENDBRANCH   8  10
ENDBRANCH   4   5
ENDBRANCH   1   4
BRANCH   1  15
HETATM   15  C   UNL     1       5.553  26.843  56.628  1.00  0.00     0.312 C 
BRANCH  15  16
HETATM   16  C   UNL     1       6.420  25.632  56.516  1.00  0.00     0.130 A 
HETATM   17  N   UNL     1       6.498  24.809  55.489  1.00  0.00    -0.232 NA
HETATM   18  C   UNL     1       7.335  23.785  55.881  1.00  0.00     0.084 A 
HETATM   19  C   UNL     1       7.808  24.027  57.150  1.00  0.00     0.122 A 
HETATM   20  N   UNL     1       7.233  25.207  57.539  1.00  0.00    -0.351 N 
HETATM   21  H   UNL     1       7.368  25.660  58.437  1.00  0.00     0.166 HD
BRANCH  18  22
HETATM   22  C   UNL     1       7.627  22.631  55.048  1.00  0.00    -0.006 A 
HETATM   23  C   UNL     1       7.881  21.390  55.650  1.00  0.00     0.014 A 
HETATM   24  C   UNL     1       8.187  20.270  54.872  1.00  0.00     0.001 A 
HETATM   25  C   UNL     1       8.249  20.381  53.485  1.00  0.00     0.000 A 
HETATM   26  C   UNL     1       8.002  21.609  52.874  1.00  0.00     0.001 A 
HETATM   27  C   UNL     1       7.691  22.729  53.651  1.00  0.00     0.014 A 
ENDBRANCH  18  22
ENDBRANCH  15  16
ENDBRANCH   1  15
TORSDOF 6
ENDMDL
MODEL 3
REMARK VINA RESULT:      -8.6      1.744      1.959
REMARK  6 active torsions:
REMARK  status: ('A' for Active; 'I' for Inactive)
REMARK       I    between atoms: C_2  and  N_3 
REMARK    1  A    between atoms: N_3  and  C_4 
REMARK    2  A    between atoms: C_7  and  C_8 
REMARK    3  A    between atoms: C_8  and  N_9 
REMARK    4  A    between atoms: N_9  and  C_11 
REMARK    5  A    between atoms: C_11  and  C_12 
REMARK    6  A    between atoms: C_14  and  C_15 
ROOT
HETATM    1  N   UNL     1       5.338  27.802  55.524  1.00  0.00    -0.063 N 
HETATM    2  H   UNL     1       4.569  28.488  55.596  1.00  0.00     0.280 HD
HETATM    3  C   UNL     1       5.275  26.875  56.688  1.00  0.00     0.270 C 
ENDROOT
BRANCH   1   4
HETATM    4  C   UNL     1       6.582  28.675  55.538  1.00  0.00     0.294 C 
BRANCH   4   5
HETATM    5  C   UNL     1       6.509  29.693  56.633  1.00  0.00     0.069 A 
HETATM    6  C   UNL     1       5.643  30.761  56.766  1.00  0.00     0.082 A 
HETATM    7  S   UNL     1       6.002  31.619  58.216  1.00  0.00    -0.062 SA
HETATM    8  C   UNL     1       7.235  30.496  58.555  1.00  0.00     0.173 A 
HETATM    9  N   UNL     1       7.432  29.564  57.660  1.00  0.00    -0.227 NA
BRANCH   8  10
HETATM   10  N   UNL     1       7.896  30.675  59.736  1.00  0.00    -0.306 N 
HETATM   11  C   UNL     1       8.909  31.604  59.845  1.00  0.00     0.219 C 
HETATM   12  C   UNL     1       9.462  31.680  61.245  1.00  0.00     0.117 C 
HETATM   13  O   UNL     1       9.368  32.287  58.932  1.00  0.00    -0.274 OA
HETATM   14  H   UNL     1       7.658  30.064  60.505  1.00  0.00     0.171 HD
ENDBRANCH   8  10
ENDBRANCH   4   5
ENDBRANCH   1   4
BRANCH   1  15
HETATM   15  C   UNL     1       5.071  27.116  54.199  1.00  0.00     0.312 C 
BRANCH  15  16
HETATM   16  C   UNL     1       6.043  26.043  53.829  1.00  0.00     0.130 A 
HETATM   17  N   UNL     1       6.005  24.779  54.206  1.00  0.00    -0.232 NA
HETATM   18  C   UNL     1       7.157  24.200  53.720  1.00  0.00     0.084 A 
HETATM   19  C   UNL     1       7.874  25.122  52.993  1.00  0.00     0.122 A 
HETATM   20  N   UNL     1       7.153  26.284  53.057  1.00  0.00    -0.351 N 
HETATM   21  H   UNL     1       7.418  27.165  52.631  1.00  0.00     0.166 HD
BRANCH  18  22
HETATM   22  C   UNL     1       7.526  22.818  53.980  1.00  0.00    -0.006 A 
HETATM   23  C   UNL     1       7.521  22.337  55.297  1.00  0.00     0.014 A 
HETATM   24  C   UNL     1       7.893  21.019  55.576  1.00  0.00     0.001 A 
HETATM   25  C   UNL     1       8.281  20.171  54.542  1.00  0.00     0.000 A 
HETATM   26  C   UNL     1       8.295  20.637  53.229  1.00  0.00     0.001 A 
HETATM   27  C   UNL     1       7.917  21.954  52.948  1.00  0.00     0.014 A 
ENDBRANCH  18  22
ENDBRANCH  15  16
ENDBRANCH   1  15
TORSDOF 6
ENDMDL
MODEL 4
REMARK VINA RESULT:      -8.3      2.621      3.395
REMARK  6 active torsions:
REMARK  status: ('A' for Active; 'I' for Inactive)
REMARK       I    between atoms: C_2  and  N_3 
REMARK    1  A    between atoms: N_3  and  C_4 
REMARK    2  A    between atoms: C_7  and  C_8 
REMARK    3  A    between atoms: C_8  and  N_9 
REMARK    4  A    between atoms: N_9  and  C_11 
REMARK    5  A    between atoms: C_11  and  C_12 
REMARK    6  A    between atoms: C_14  and  C_15 
ROOT
HETATM    1  N   UNL     1       4.841  28.040  53.617  1.00  0.00    -0.063 N 
HETATM    2  H   UNL     1       5.838  28.149  53.862  1.00  0.00     0.280 HD
HETATM    3  C   UNL     1       4.506  28.971  52.504  1.00  0.00     0.270 C 
ENDROOT
BRANCH   1   4
HETATM    4  C   UNL     1       4.126  28.394  54.911  1.00  0.00     0.294 C 
BRANCH   4   5
HETATM    5  C   UNL     1       5.042  29.119  55.846  1.00  0.00     0.069 A 
HETATM    6  C   UNL     1       4.729  29.816  56.997  1.00  0.00     0.082 A 
HETATM    7  S   UNL     1       6.167  30.464  57.690  1.00  0.00    -0.062 SA
HETATM    8  C   UNL     1       7.072  29.746  56.440  1.00  0.00     0.173 A 
HETATM    9  N   UNL     1       6.391  29.103  55.527  1.00  0.00    -0.227 NA
BRANCH   8  10
HETATM   10  N   UNL     1       8.425  29.906  56.516  1.00  0.00    -0.306 N 
HETATM   11  C   UNL     1       9.235  28.879  56.952  1.00  0.00     0.219 C 
HETATM   12  C   UNL     1      10.696  29.247  56.903  1.00  0.00     0.117 C 
HETATM   13  O   UNL     1       8.859  27.788  57.375  1.00  0.00    -0.274 OA
HETATM   14  H   UNL     1       8.804  30.818  56.299  1.00  0.00     0.171 HD
ENDBRANCH   8  10
ENDBRANCH   4   5
ENDBRANCH   1   4
BRANCH   1  15
HETATM   15  C   UNL     1       4.735  26.579  53.225  1.00  0.00     0.312 C 
BRANCH  15  16
HETATM   16  C   UNL     1       5.824  25.699  53.746  1.00  0.00     0.130 A 
HETATM   17  N   UNL     1       6.043  24.438  53.424  1.00  0.00    -0.232 NA
HETATM   18  C   UNL     1       7.074  24.010  54.232  1.00  0.00     0.084 A 
HETATM   19  C   UNL     1       7.516  25.050  55.018  1.00  0.00     0.122 A 
HETATM   20  N   UNL     1       6.727  26.119  54.693  1.00  0.00    -0.351 N 
HETATM   21  H   UNL     1       6.787  27.043  55.107  1.00  0.00     0.166 HD
BRANCH  18  22
HETATM   22  C   UNL     1       7.573  22.645  54.232  1.00  0.00    -0.006 A 
HETATM   23  C   UNL     1       7.760  21.976  55.451  1.00  0.00     0.014 A 
HETATM   24  C   UNL     1       8.259  20.671  55.479  1.00  0.00     0.001 A 
HETATM   25  C   UNL     1       8.584  20.025  54.289  1.00  0.00     0.000 A 
HETATM   26  C   UNL     1       8.408  20.679  53.071  1.00  0.00     0.001 A 
HETATM   27  C   UNL     1       7.903  21.982  53.042  1.00  0.00     0.014 A 
ENDBRANCH  18  22
ENDBRANCH  15  16
ENDBRANCH   1  15
TORSDOF 6
ENDMDL
MODEL 5
REMARK VINA RESULT:      -8.2      5.244      7.637
REMARK  6 active torsions:
REMARK  status: ('A' for Active; 'I' for Inactive)
REMARK       I    between atoms: C_2  and  N_3 
REMARK    1  A    between atoms: N_3  and  C_4 
REMARK    2  A    between atoms: C_7  and  C_8 
REMARK    3  A    between atoms: C_8  and  N_9 
REMARK    4  A    between atoms: N_9  and  C_11 
REMARK    5  A    between atoms: C_11  and  C_12 
REMARK    6  A    between atoms: C_14  and  C_15 
ROOT
HETATM    1  N   UNL     1       5.265  28.163  54.007  1.00  0.00    -0.063 N 
HETATM    2  H   UNL     1       4.976  27.314  53.496  1.00  0.00     0.280 HD
HETATM    3  C   UNL     1       4.545  28.218  55.309  1.00  0.00     0.270 C 
ENDROOT
BRANCH   1   4
HETATM    4  C   UNL     1       4.860  29.287  53.067  1.00  0.00     0.294 C 
BRANCH   4   5
HETATM    5  C   UNL     1       4.978  28.858  51.638  1.00  0.00     0.069 A 
HETATM    6  C   UNL     1       5.554  29.529  50.577  1.00  0.00     0.082 A 
HETATM    7  S   UNL     1       5.409  28.582  49.146  1.00  0.00    -0.062 SA
HETATM    8  C   UNL     1       4.635  27.365  50.050  1.00  0.00     0.173 A 
HETATM    9  N   UNL     1       4.436  27.622  51.316  1.00  0.00    -0.227 NA
BRANCH   8  10
HETATM   10  N   UNL     1       4.303  26.233  49.365  1.00  0.00    -0.306 N 
HETATM   11  C   UNL     1       3.188  26.199  48.553  1.00  0.00     0.219 C 
HETATM   12  C   UNL     1       3.040  24.876  47.847  1.00  0.00     0.117 C 
HETATM   13  O   UNL     1       2.363  27.099  48.417  1.00  0.00    -0.274 OA
HETATM   14  H   UNL     1       4.866  25.407  49.518  1.00  0.00     0.171 HD
ENDBRANCH   8  10
ENDBRANCH   4   5
ENDBRANCH   1   4
BRANCH   1  15
HETATM   15  C   UNL     1       6.763  27.987  54.159  1.00  0.00     0.312 C 
BRANCH  15  16
HETATM   16  C   UNL     1       7.199  26.654  54.674  1.00  0.00     0.130 A 
HETATM   17  N   UNL     1       7.273  25.528  53.989  1.00  0.00    -0.232 NA
HETATM   18  C   UNL     1       7.610  24.549  54.898  1.00  0.00     0.084 A 
HETATM   19  C   UNL     1       7.793  25.107  56.143  1.00  0.00     0.122 A 
HETATM   20  N   UNL     1       7.544  26.444  55.987  1.00  0.00    -0.351 N 
HETATM   21  H   UNL     1       7.580  27.139  56.724  1.00  0.00     0.166 HD
BRANCH  18  22
HETATM   22  C   UNL     1       7.725  23.143  54.549  1.00  0.00    -0.006 A 
HETATM   23  C   UNL     1       7.704  22.174  55.563  1.00  0.00     0.014 A 
HETATM   24  C   UNL     1       7.835  20.817  55.256  1.00  0.00     0.001 A 
HETATM   25  C   UNL     1       7.995  20.415  53.932  1.00  0.00     0.000 A 
HETATM   26  C   UNL     1       8.021  21.367  52.915  1.00  0.00     0.001 A 
HETATM   27  C   UNL     1       7.885  22.725  53.221  1.00  0.00     0.014 A 
ENDBRANCH  18  22
ENDBRANCH  15  16
ENDBRANCH   1  15
TORSDOF 6
ENDMDL
MODEL 6
REMARK VINA RESULT:      -7.9      3.318     10.304
REMARK  6 active torsions:
REMARK  status: ('A' for Active; 'I' for Inactive)
REMARK       I    between atoms: C_2  and  N_3 
REMARK    1  A    between atoms: N_3  and  C_4 
REMARK    2  A    between atoms: C_7  and  C_8 
REMARK    3  A    between atoms: C_8  and  N_9 
REMARK    4  A    between atoms: N_9  and  C_11 
REMARK    5  A    between atoms: C_11  and  C_12 
REMARK    6  A    between atoms: C_14  and  C_15 
ROOT
HETATM    1  N   UNL     1       7.910  29.598  58.268  1.00  0.00    -0.063 N 
HETATM    2  H   UNL     1       7.508  28.964  58.976  1.00  0.00     0.280 HD
HETATM    3  C   UNL     1       6.836  30.481  57.737  1.00  0.00     0.270 C 
ENDROOT
BRANCH   1   4
HETATM    4  C   UNL     1       8.455  28.643  57.218  1.00  0.00     0.294 C 
BRANCH   4   5
HETATM    5  C   UNL     1       7.650  27.383  57.173  1.00  0.00     0.069 A 
HETATM    6  C   UNL     1       6.298  27.225  56.938  1.00  0.00     0.082 A 
HETATM    7  S   UNL     1       5.888  25.554  57.006  1.00  0.00    -0.062 SA
HETATM    8  C   UNL     1       7.523  25.184  57.303  1.00  0.00     0.173 A 
HETATM    9  N   UNL     1       8.339  26.201  57.401  1.00  0.00    -0.227 NA
BRANCH   8  10
HETATM   10  N   UNL     1       7.825  23.857  57.405  1.00  0.00    -0.306 N 
HETATM   11  C   UNL     1       8.243  23.140  56.302  1.00  0.00     0.219 C 
HETATM   12  C   UNL     1       8.578  21.712  56.647  1.00  0.00     0.117 C 
HETATM   13  O   UNL     1       8.315  23.560  55.149  1.00  0.00    -0.274 OA
HETATM   14  H   UNL     1       7.675  23.407  58.297  1.00  0.00     0.171 HD
ENDBRANCH   8  10
ENDBRANCH   4   5
ENDBRANCH   1   4
BRANCH   1  15
HETATM   15  C   UNL     1       8.976  30.352  59.039  1.00  0.00     0.312 C 
BRANCH  15  16
HETATM   16  C   UNL     1       8.594  30.757  60.425  1.00  0.00     0.130 A 
HETATM   17  N   UNL     1       7.923  31.838  60.775  1.00  0.00    -0.232 NA
HETATM   18  C   UNL     1       7.908  31.848  62.154  1.00  0.00     0.084 A 
HETATM   19  C   UNL     1       8.537  30.724  62.638  1.00  0.00     0.122 A 
HETATM   20  N   UNL     1       8.957  30.032  61.534  1.00  0.00    -0.351 N 
HETATM   21  H   UNL     1       9.469  29.157  61.548  1.00  0.00     0.166 HD
BRANCH  18  22
HETATM   22  C   UNL     1       7.319  32.922  62.936  1.00  0.00    -0.006 A 
HETATM   23  C   UNL     1       7.554  32.981  64.318  1.00  0.00     0.014 A 
HETATM   24  C   UNL     1       6.981  33.991  65.096  1.00  0.00     0.001 A 
HETATM   25  C   UNL     1       6.161  34.947  64.502  1.00  0.00     0.000 A 
HETATM   26  C   UNL     1       5.916  34.898  63.131  1.00  0.00     0.001 A 
HETATM   27  C   UNL     1       6.493  33.891  62.351  1.00  0.00     0.014 A 
ENDBRANCH  18  22
ENDBRANCH  15  16
ENDBRANCH   1  15
TORSDOF 6
ENDMDL
MODEL 7
REMARK VINA RESULT:      -7.8      3.594     10.440
REMARK  6 active torsions:
REMARK  status: ('A' for Active; 'I' for Inactive)
REMARK       I    between atoms: C_2  and  N_3 
REMARK    1  A    between atoms: N_3  and  C_4 
REMARK    2  A    between atoms: C_7  and  C_8 
REMARK    3  A    between atoms: C_8  and  N_9 
REMARK    4  A    between atoms: N_9  and  C_11 
REMARK    5  A    between atoms: C_11  and  C_12 
REMARK    6  A    between atoms: C_14  and  C_15 
ROOT
HETATM    1  N   UNL     1       7.914  29.437  58.239  1.00  0.00    -0.063 N 
HETATM    2  H   UNL     1       7.638  28.792  58.997  1.00  0.00     0.280 HD
HETATM    3  C   UNL     1       6.704  30.142  57.733  1.00  0.00     0.270 C 
ENDROOT
BRANCH   1   4
HETATM    4  C   UNL     1       8.526  28.508  57.203  1.00  0.00     0.294 C 
BRANCH   4   5
HETATM    5  C   UNL     1       7.642  27.328  56.953  1.00  0.00     0.069 A 
HETATM    6  C   UNL     1       7.409  26.232  57.763  1.00  0.00     0.082 A 
HETATM    7  S   UNL     1       6.306  25.162  56.986  1.00  0.00    -0.062 SA
HETATM    8  C   UNL     1       6.206  26.244  55.676  1.00  0.00     0.173 A 
HETATM    9  N   UNL     1       6.958  27.312  55.747  1.00  0.00    -0.227 NA
BRANCH   8  10
HETATM   10  N   UNL     1       5.344  25.894  54.678  1.00  0.00    -0.306 N 
HETATM   11  C   UNL     1       5.764  25.115  53.621  1.00  0.00     0.219 C 
HETATM   12  C   UNL     1       4.642  24.798  52.666  1.00  0.00     0.117 C 
HETATM   13  O   UNL     1       6.913  24.728  53.416  1.00  0.00    -0.274 OA
HETATM   14  H   UNL     1       4.407  26.273  54.710  1.00  0.00     0.171 HD
ENDBRANCH   8  10
ENDBRANCH   4   5
ENDBRANCH   1   4
BRANCH   1  15
HETATM   15  C   UNL     1       8.908  30.363  58.912  1.00  0.00     0.312 C 
BRANCH  15  16
HETATM   16  C   UNL     1       8.567  30.755  60.313  1.00  0.00     0.130 A 
HETATM   17  N   UNL     1       7.871  31.810  60.691  1.00  0.00    -0.232 NA
HETATM   18  C   UNL     1       7.910  31.821  62.069  1.00  0.00     0.084 A 
HETATM   19  C   UNL     1       8.600  30.722  62.527  1.00  0.00     0.122 A 
HETATM   20  N   UNL     1       9.000  30.045  61.406  1.00  0.00    -0.351 N 
HETATM   21  H   UNL     1       9.545  29.190  61.399  1.00  0.00     0.166 HD
BRANCH  18  22
HETATM   22  C   UNL     1       7.313  32.873  62.875  1.00  0.00    -0.006 A 
HETATM   23  C   UNL     1       6.468  33.814  62.269  1.00  0.00     0.014 A 
HETATM   24  C   UNL     1       5.899  34.848  63.018  1.00  0.00     0.001 A 
HETATM   25  C   UNL     1       6.175  34.955  64.379  1.00  0.00     0.000 A 
HETATM   26  C   UNL     1       7.016  34.029  64.993  1.00  0.00     0.001 A 
HETATM   27  C   UNL     1       7.582  32.992  64.246  1.00  0.00     0.014 A 
ENDBRANCH  18  22
ENDBRANCH  15  16
ENDBRANCH   1  15
TORSDOF 6
ENDMDL
MODEL 8
REMARK VINA RESULT:      -7.8      2.608      3.379
REMARK  6 active torsions:
REMARK  status: ('A' for Active; 'I' for Inactive)
REMARK       I    between atoms: C_2  and  N_3 
REMARK    1  A    between atoms: N_3  and  C_4 
REMARK    2  A    between atoms: C_7  and  C_8 
REMARK    3  A    between atoms: C_8  and  N_9 
REMARK    4  A    between atoms: N_9  and  C_11 
REMARK    5  A    between atoms: C_11  and  C_12 
REMARK    6  A    between atoms: C_14  and  C_15 
ROOT
HETATM    1  N   UNL     1       5.741  29.604  57.575  1.00  0.00    -0.063 N 
HETATM    2  H   UNL     1       5.149  29.427  58.403  1.00  0.00     0.280 HD
HETATM    3  C   UNL     1       7.108  29.070  57.830  1.00  0.00     0.270 C 
ENDROOT
BRANCH   1   4
HETATM    4  C   UNL     1       5.718  31.119  57.452  1.00  0.00     0.294 C 
BRANCH   4   5
HETATM    5  C   UNL     1       5.338  31.756  58.751  1.00  0.00     0.069 A 
HETATM    6  C   UNL     1       4.077  32.013  59.254  1.00  0.00     0.082 A 
HETATM    7  S   UNL     1       4.211  32.770  60.795  1.00  0.00    -0.062 SA
HETATM    8  C   UNL     1       5.906  32.664  60.680  1.00  0.00     0.173 A 
HETATM    9  N   UNL     1       6.381  32.154  59.574  1.00  0.00    -0.227 NA
BRANCH   8  10
HETATM   10  N   UNL     1       6.606  33.117  61.760  1.00  0.00    -0.306 N 
HETATM   11  C   UNL     1       7.108  32.238  62.697  1.00  0.00     0.219 C 
HETATM   12  C   UNL     1       7.895  32.942  63.772  1.00  0.00     0.117 C 
HETATM   13  O   UNL     1       6.931  31.022  62.718  1.00  0.00    -0.274 OA
HETATM   14  H   UNL     1       6.692  34.117  61.880  1.00  0.00     0.171 HD
ENDBRANCH   8  10
ENDBRANCH   4   5
ENDBRANCH   1   4
BRANCH   1  15
HETATM   15  C   UNL     1       5.013  28.876  56.462  1.00  0.00     0.312 C 
BRANCH  15  16
HETATM   16  C   UNL     1       5.303  27.414  56.361  1.00  0.00     0.130 A 
HETATM   17  N   UNL     1       6.122  26.829  55.508  1.00  0.00    -0.232 NA
HETATM   18  C   UNL     1       5.980  25.472  55.710  1.00  0.00     0.084 A 
HETATM   19  C   UNL     1       5.098  25.242  56.741  1.00  0.00     0.122 A 
HETATM   20  N   UNL     1       4.684  26.480  57.156  1.00  0.00    -0.351 N 
HETATM   21  H   UNL     1       4.017  26.659  57.898  1.00  0.00     0.166 HD
BRANCH  18  22
HETATM   22  C   UNL     1       6.669  24.471  54.913  1.00  0.00    -0.006 A 
HETATM   23  C   UNL     1       7.178  23.322  55.536  1.00  0.00     0.014 A 
HETATM   24  C   UNL     1       7.863  22.355  54.795  1.00  0.00     0.001 A 
HETATM   25  C   UNL     1       8.052  22.530  53.427  1.00  0.00     0.000 A 
HETATM   26  C   UNL     1       7.554  23.669  52.796  1.00  0.00     0.001 A 
HETATM   27  C   UNL     1       6.864  24.634  53.535  1.00  0.00     0.014 A 
ENDBRANCH  18  22
ENDBRANCH  15  16
ENDBRANCH   1  15
TORSDOF 6
ENDMDL
MODEL 9
REMARK VINA RESULT:      -7.7      2.476      2.788
REMARK  6 active torsions:
REMARK  status: ('A' for Active; 'I' for Inactive)
REMARK       I    between atoms: C_2  and  N_3 
REMARK    1  A    between atoms: N_3  and  C_4 
REMARK    2  A    between atoms: C_7  and  C_8 
REMARK    3  A    between atoms: C_8  and  N_9 
REMARK    4  A    between atoms: N_9  and  C_11 
REMARK    5  A    between atoms: C_11  and  C_12 
REMARK    6  A    between atoms: C_14  and  C_15 
ROOT
HETATM    1  N   UNL     1       5.593  27.806  55.691  1.00  0.00    -0.063 N 
HETATM    2  H   UNL     1       4.879  28.544  55.803  1.00  0.00     0.280 HD
HETATM    3  C   UNL     1       5.533  26.888  56.861  1.00  0.00     0.270 C 
ENDROOT
BRANCH   1   4
HETATM    4  C   UNL     1       6.893  28.590  55.628  1.00  0.00     0.294 C 
BRANCH   4   5
HETATM    5  C   UNL     1       7.052  29.461  56.834  1.00  0.00     0.069 A 
HETATM    6  C   UNL     1       8.188  29.708  57.582  1.00  0.00     0.082 A 
HETATM    7  S   UNL     1       7.809  30.785  58.871  1.00  0.00    -0.062 SA
HETATM    8  C   UNL     1       6.202  30.857  58.316  1.00  0.00     0.173 A 
HETATM    9  N   UNL     1       5.913  30.114  57.280  1.00  0.00    -0.227 NA
BRANCH   8  10
HETATM   10  N   UNL     1       5.371  31.692  59.004  1.00  0.00    -0.306 N 
HETATM   11  C   UNL     1       5.084  32.955  58.529  1.00  0.00     0.219 C 
HETATM   12  C   UNL     1       4.103  33.685  59.409  1.00  0.00     0.117 C 
HETATM   13  O   UNL     1       5.571  33.482  57.531  1.00  0.00    -0.274 OA
HETATM   14  H   UNL     1       5.023  31.377  59.899  1.00  0.00     0.171 HD
ENDBRANCH   8  10
ENDBRANCH   4   5
ENDBRANCH   1   4
BRANCH   1  15
HETATM   15  C   UNL     1       5.202  27.138  54.387  1.00  0.00     0.312 C 
BRANCH  15  16
HETATM   16  C   UNL     1       6.109  26.040  53.937  1.00  0.00     0.130 A 
HETATM   17  N   UNL     1       6.123  24.796  54.378  1.00  0.00    -0.232 NA
HETATM   18  C   UNL     1       7.193  24.183  53.762  1.00  0.00     0.084 A 
HETATM   19  C   UNL     1       7.800  25.062  52.895  1.00  0.00     0.122 A 
HETATM   20  N   UNL     1       7.098  26.232  53.003  1.00  0.00    -0.351 N 
HETATM   21  H   UNL     1       7.300  27.089  52.500  1.00  0.00     0.166 HD
BRANCH  18  22
HETATM   22  C   UNL     1       7.593  22.813  54.035  1.00  0.00    -0.006 A 
HETATM   23  C   UNL     1       7.910  21.959  52.969  1.00  0.00     0.014 A 
HETATM   24  C   UNL     1       8.276  20.631  53.205  1.00  0.00     0.001 A 
HETATM   25  C   UNL     1       8.322  20.142  54.508  1.00  0.00     0.000 A 
HETATM   26  C   UNL     1       8.005  20.978  55.576  1.00  0.00     0.001 A 
HETATM   27  C   UNL     1       7.644  22.309  55.342  1.00  0.00     0.014 A 
ENDBRANCH  18  22
ENDBRANCH  15  16
ENDBRANCH   1  15
TORSDOF 6
ENDMDL
MODEL 10
REMARK VINA RESULT:      -7.6      3.280     10.454
REMARK  6 active torsions:
REMARK  status: ('A' for Active; 'I' for Inactive)
REMARK       I    between atoms: C_2  and  N_3 
REMARK    1  A    between atoms: N_3  and  C_4 
REMARK    2  A    between atoms: C_7  and  C_8 
REMARK    3  A    between atoms: C_8  and  N_9 
REMARK    4  A    between atoms: N_9  and  C_11 
REMARK    5  A    between atoms: C_11  and  C_12 
REMARK    6  A    between atoms: C_14  and  C_15 
ROOT
HETATM    1  N   UNL     1       5.590  30.806  58.191  1.00  0.00    -0.063 N 
HETATM    2  H   UNL     1       5.818  29.955  58.729  1.00  0.00     0.280 HD
HETATM    3  C   UNL     1       4.159  31.154  58.412  1.00  0.00     0.270 C 
ENDROOT
BRANCH   1   4
HETATM    4  C   UNL     1       5.877  30.396  56.756  1.00  0.00     0.294 C 
BRANCH   4   5
HETATM    5  C   UNL     1       6.614  29.095  56.709  1.00  0.00     0.069 A 
HETATM    6  C   UNL     1       7.327  28.466  57.712  1.00  0.00     0.082 A 
HETATM    7  S   UNL     1       7.982  26.988  57.117  1.00  0.00    -0.062 SA
HETATM    8  C   UNL     1       7.246  27.288  55.612  1.00  0.00     0.173 A 
HETATM    9  N   UNL     1       6.592  28.414  55.501  1.00  0.00    -0.227 NA
BRANCH   8  10
HETATM   10  N   UNL     1       7.405  26.317  54.667  1.00  0.00    -0.306 N 
HETATM   11  C   UNL     1       6.447  25.340  54.487  1.00  0.00     0.219 C 
HETATM   12  C   UNL     1       6.793  24.406  53.357  1.00  0.00     0.117 C 
HETATM   13  O   UNL     1       5.434  25.186  55.165  1.00  0.00    -0.274 OA
HETATM   14  H   UNL     1       8.272  26.303  54.147  1.00  0.00     0.171 HD
ENDBRANCH   8  10
ENDBRANCH   4   5
ENDBRANCH   1   4
BRANCH   1  15
HETATM   15  C   UNL     1       6.548  31.840  58.749  1.00  0.00     0.312 C 
BRANCH  15  16
HETATM   16  C   UNL     1       6.778  31.767  60.223  1.00  0.00     0.130 A 
HETATM   17  N   UNL     1       6.185  32.491  61.152  1.00  0.00    -0.232 NA
HETATM   18  C   UNL     1       6.793  32.159  62.344  1.00  0.00     0.084 A 
HETATM   19  C   UNL     1       7.734  31.177  62.131  1.00  0.00     0.122 A 
HETATM   20  N   UNL     1       7.708  30.926  60.786  1.00  0.00    -0.351 N 
HETATM   21  H   UNL     1       8.296  30.258  60.300  1.00  0.00     0.166 HD
BRANCH  18  22
HETATM   22  C   UNL     1       6.467  32.794  63.609  1.00  0.00    -0.006 A 
HETATM   23  C   UNL     1       5.124  33.018  63.946  1.00  0.00     0.014 A 
HETATM   24  C   UNL     1       4.786  33.647  65.147  1.00  0.00     0.001 A 
HETATM   25  C   UNL     1       5.787  34.064  66.021  1.00  0.00     0.000 A 
HETATM   26  C   UNL     1       7.125  33.851  65.698  1.00  0.00     0.001 A 
HETATM   27  C   UNL     1       7.465  33.217  64.499  1.00  0.00     0.014 A 
ENDBRANCH  18  22
ENDBRANCH  15  16
ENDBRANCH   1  15
TORSDOF 6
ENDMDL
