MODEL 1
REMARK VINA RESULT:     -10.4      0.000      0.000
REMARK  6 active torsions:
REMARK  status: ('A' for Active; 'I' for Inactive)
REMARK    1  A    between atoms: O_2  and  C_3 
REMARK    2  A    between atoms: C_5  and  N_6 
REMARK    3  A    between atoms: C_7  and  C_9 
REMARK    4  A    between atoms: C_7  and  O_8 
REMARK       I    between atoms: C_9  and  N_10 
REMARK    5  A    between atoms: N_10  and  C_11 
REMARK    6  A    between atoms: C_11  and  C_12 
ROOT
HETATM    1  N   UNL     1       5.318  27.085  54.050  1.00  0.00    -0.254 N 
HETATM    2  C   UNL     1       5.286  26.137  52.921  1.00  0.00     0.256 C 
HETATM    3  C   UNL     1       4.922  26.733  51.574  1.00  0.00     0.034 A 
HETATM    4  C   UNL     1       4.477  28.043  51.517  1.00  0.00     0.048 A 
HETATM    5  N   UNL     1       4.371  28.763  52.691  1.00  0.00    -0.308 N 
HETATM    6  C   UNL     1       4.740  28.341  53.929  1.00  0.00     0.330 C 
HETATM    7  O   UNL     1       4.500  29.116  54.857  1.00  0.00    -0.246 OA
HETATM    8  C   UNL     1       4.969  25.997  50.374  1.00  0.00     0.015 A 
HETATM    9  C   UNL     1       4.611  26.584  49.158  1.00  0.00     0.001 A 
HETATM   10  C   UNL     1       4.182  27.908  49.125  1.00  0.00     0.002 A 
HETATM   11  C   UNL     1       4.107  28.638  50.308  1.00  0.00     0.030 A 
HETATM   12  H   UNL     1       3.995  29.703  52.676  1.00  0.00     0.170 HD
ENDROOT
BRANCH   2  13
HETATM   13  C   UNL     1       6.702  25.424  52.752  1.00  0.00     0.279 C 
HETATM   14  N   UNL     1       6.678  24.084  53.113  1.00  0.00    -0.352 N 
HETATM   15  H   UNL     1       5.764  23.686  53.312  1.00  0.00     0.162 HD
HETATM   16  O   UNL     1       7.713  25.979  52.327  1.00  0.00    -0.268 OA
BRANCH  14  17
HETATM   17  C   UNL     1       7.798  23.202  52.899  1.00  0.00     0.163 C 
BRANCH  17  18
HETATM   18  C   UNL     1       8.101  22.403  54.139  1.00  0.00    -0.019 A 
HETATM   19  C   UNL     1       8.366  21.026  54.110  1.00  0.00     0.042 A 
HETATM   20 CL   UNL     1       8.361  20.132  52.630  1.00  0.00    -0.084 Cl
HETATM   21  C   UNL     1       8.631  20.325  55.292  1.00  0.00     0.024 A 
HETATM   22  C   UNL     1       8.631  20.990  56.517  1.00  0.00     0.002 A 
HETATM   23  C   UNL     1       8.361  22.355  56.563  1.00  0.00     0.001 A 
HETATM   24  C   UNL     1       8.093  23.056  55.386  1.00  0.00     0.010 A 
ENDBRANCH  17  18
ENDBRANCH  14  17
ENDBRANCH   2  13
BRANCH   2  25
HETATM   25  O   UNL     1       4.236  25.202  53.193  1.00  0.00    -0.359 OA
HETATM   26  H   UNL     1       3.436  25.753  53.175  1.00  0.00     0.213 HD
ENDBRANCH   2  25
BRANCH   1  27
HETATM   27  C   UNL     1       5.910  26.684  55.319  1.00  0.00     0.045 A 
HETATM   28  C   UNL     1       7.092  27.288  55.785  1.00  0.00     0.066 A 
HETATM   29  C   UNL     1       7.683  26.935  57.006  1.00  0.00     0.070 A 
HETATM   30  C   UNL     1       7.115  25.929  57.778  1.00  0.00     0.037 A 
HETATM   31  C   UNL     1       5.956  25.297  57.334  1.00  0.00     0.005 A 
HETATM   32  C   UNL     1       5.361  25.672  56.124  1.00  0.00     0.030 A 
BRANCH  29  33
HETATM   33  O   UNL     1       8.824  27.626  57.315  1.00  0.00    -0.356 OA
HETATM   34  C   UNL     1       8.883  28.976  56.873  1.00  0.00     0.210 C 
ENDBRANCH  29  33
ENDBRANCH   1  27
TORSDOF 6
ENDMDL
MODEL 2
REMARK VINA RESULT:      -9.2      2.053      5.319
REMARK  6 active torsions:
REMARK  status: ('A' for Active; 'I' for Inactive)
REMARK    1  A    between atoms: O_2  and  C_3 
REMARK    2  A    between atoms: C_5  and  N_6 
REMARK    3  A    between atoms: C_7  and  C_9 
REMARK    4  A    between atoms: C_7  and  O_8 
REMARK       I    between atoms: C_9  and  N_10 
REMARK    5  A    between atoms: N_10  and  C_11 
REMARK    6  A    between atoms: C_11  and  C_12 
ROOT
HETATM    1  N   UNL     1       5.889  28.110  54.748  1.00  0.00    -0.254 N 
HETATM    2  C   UNL     1       7.054  27.946  55.637  1.00  0.00     0.256 C 
HETATM    3  C   UNL     1       7.156  28.944  56.775  1.00  0.00     0.034 A 
HETATM    4  C   UNL     1       6.289  30.023  56.804  1.00  0.00     0.048 A 
HETATM    5  N   UNL     1       5.361  30.160  55.788  1.00  0.00    -0.308 N 
HETATM    6  C   UNL     1       5.146  29.283  54.773  1.00  0.00     0.330 C 
HETATM    7  O   UNL     1       4.313  29.625  53.932  1.00  0.00    -0.246 OA
HETATM    8  C   UNL     1       8.133  28.853  57.786  1.00  0.00     0.015 A 
HETATM    9  C   UNL     1       8.199  29.804  58.807  1.00  0.00     0.001 A 
HETATM   10  C   UNL     1       7.304  30.870  58.823  1.00  0.00     0.002 A 
HETATM   11  C   UNL     1       6.351  30.986  57.814  1.00  0.00     0.030 A 
HETATM   12  H   UNL     1       4.756  30.970  55.763  1.00  0.00     0.170 HD
ENDROOT
BRANCH   2  13
HETATM   13  C   UNL     1       7.057  26.490  56.287  1.00  0.00     0.279 C 
HETATM   14  N   UNL     1       8.008  25.650  55.724  1.00  0.00    -0.352 N 
HETATM   15  H   UNL     1       8.663  26.079  55.075  1.00  0.00     0.162 HD
HETATM   16  O   UNL     1       6.320  26.137  57.205  1.00  0.00    -0.268 OA
BRANCH  14  17
HETATM   17  C   UNL     1       8.298  24.342  56.254  1.00  0.00     0.163 C 
BRANCH  17  18
HETATM   18  C   UNL     1       8.146  23.284  55.192  1.00  0.00    -0.019 A 
HETATM   19  C   UNL     1       8.168  21.910  55.480  1.00  0.00     0.042 A 
HETATM   20 CL   UNL     1       8.378  21.323  57.092  1.00  0.00    -0.084 Cl
HETATM   21  C   UNL     1       8.035  20.965  54.456  1.00  0.00     0.024 A 
HETATM   22  C   UNL     1       7.881  21.380  53.134  1.00  0.00     0.002 A 
HETATM   23  C   UNL     1       7.866  22.738  52.832  1.00  0.00     0.001 A 
HETATM   24  C   UNL     1       8.002  23.683  53.851  1.00  0.00     0.010 A 
ENDBRANCH  17  18
ENDBRANCH  14  17
ENDBRANCH   2  13
BRANCH   2  25
HETATM   25  O   UNL     1       8.220  28.189  54.842  1.00  0.00    -0.359 OA
HETATM   26  H   UNL     1       8.767  27.401  55.002  1.00  0.00     0.213 HD
ENDBRANCH   2  25
BRANCH   1  27
HETATM   27  C   UNL     1       5.545  27.060  53.799  1.00  0.00     0.045 A 
HETATM   28  C   UNL     1       5.751  27.241  52.419  1.00  0.00     0.066 A 
HETATM   29  C   UNL     1       5.443  26.247  51.479  1.00  0.00     0.070 A 
HETATM   30  C   UNL     1       4.879  25.051  51.905  1.00  0.00     0.037 A 
HETATM   31  C   UNL     1       4.643  24.850  53.262  1.00  0.00     0.005 A 
HETATM   32  C   UNL     1       4.975  25.840  54.196  1.00  0.00     0.030 A 
BRANCH  29  33
HETATM   33  O   UNL     1       5.713  26.580  50.179  1.00  0.00    -0.356 OA
HETATM   34  C   UNL     1       4.601  26.614  49.293  1.00  0.00     0.210 C 
ENDBRANCH  29  33
ENDBRANCH   1  27
TORSDOF 6
ENDMDL
MODEL 3
REMARK VINA RESULT:      -9.2      1.526      5.025
REMARK  6 active torsions:
REMARK  status: ('A' for Active; 'I' for Inactive)
REMARK    1  A    between atoms: O_2  and  C_3 
REMARK    2  A    between atoms: C_5  and  N_6 
REMARK    3  A    between atoms: C_7  and  C_9 
REMARK    4  A    between atoms: C_7  and  O_8 
REMARK       I    between atoms: C_9  and  N_10 
REMARK    5  A    between atoms: N_10  and  C_11 
REMARK    6  A    between atoms: C_11  and  C_12 
ROOT
HETATM    1  N   UNL     1       5.345  27.424  52.967  1.00  0.00    -0.254 N 
HETATM    2  C   UNL     1       6.689  27.261  53.553  1.00  0.00     0.256 C 
HETATM    3  C   UNL     1       6.743  27.223  55.069  1.00  0.00     0.034 A 
HETATM    4  C   UNL     1       5.600  27.519  55.791  1.00  0.00     0.048 A 
HETATM    5  N   UNL     1       4.445  27.848  55.106  1.00  0.00    -0.308 N 
HETATM    6  C   UNL     1       4.280  27.838  53.757  1.00  0.00     0.330 C 
HETATM    7  O   UNL     1       3.188  28.229  53.344  1.00  0.00    -0.246 OA
HETATM    8  C   UNL     1       7.925  26.947  55.784  1.00  0.00     0.015 A 
HETATM    9  C   UNL     1       7.931  26.937  57.181  1.00  0.00     0.001 A 
HETATM   10  C   UNL     1       6.765  27.223  57.884  1.00  0.00     0.002 A 
HETATM   11  C   UNL     1       5.596  27.523  57.188  1.00  0.00     0.030 A 
HETATM   12  H   UNL     1       3.615  28.121  55.616  1.00  0.00     0.170 HD
ENDROOT
BRANCH   2  13
HETATM   13  C   UNL     1       7.367  25.917  53.025  1.00  0.00     0.279 C 
HETATM   14  N   UNL     1       6.863  24.781  53.640  1.00  0.00    -0.352 N 
HETATM   15  H   UNL     1       6.053  24.913  54.241  1.00  0.00     0.162 HD
HETATM   16  O   UNL     1       8.229  25.872  52.150  1.00  0.00    -0.268 OA
BRANCH  14  17
HETATM   17  C   UNL     1       7.212  23.448  53.215  1.00  0.00     0.163 C 
BRANCH  17  18
HETATM   18  C   UNL     1       7.690  22.619  54.378  1.00  0.00    -0.019 A 
HETATM   19  C   UNL     1       8.042  21.266  54.252  1.00  0.00     0.042 A 
HETATM   20 CL   UNL     1       7.948  20.440  52.736  1.00  0.00    -0.084 Cl
HETATM   21  C   UNL     1       8.470  20.534  55.366  1.00  0.00     0.024 A 
HETATM   22  C   UNL     1       8.549  21.143  56.617  1.00  0.00     0.002 A 
HETATM   23  C   UNL     1       8.194  22.481  56.760  1.00  0.00     0.001 A 
HETATM   24  C   UNL     1       7.764  23.213  55.651  1.00  0.00     0.010 A 
ENDBRANCH  17  18
ENDBRANCH  14  17
ENDBRANCH   2  13
BRANCH   2  25
HETATM   25  O   UNL     1       7.442  28.425  53.197  1.00  0.00    -0.359 OA
HETATM   26  H   UNL     1       7.307  29.019  53.955  1.00  0.00     0.213 HD
ENDBRANCH   2  25
BRANCH   1  27
HETATM   27  C   UNL     1       5.142  27.204  51.542  1.00  0.00     0.045 A 
HETATM   28  C   UNL     1       5.343  28.244  50.617  1.00  0.00     0.066 A 
HETATM   29  C   UNL     1       5.168  28.065  49.238  1.00  0.00     0.070 A 
HETATM   30  C   UNL     1       4.746  26.833  48.754  1.00  0.00     0.037 A 
HETATM   31  C   UNL     1       4.518  25.789  49.647  1.00  0.00     0.005 A 
HETATM   32  C   UNL     1       4.717  25.972  51.020  1.00  0.00     0.030 A 
BRANCH  29  33
HETATM   33  O   UNL     1       5.414  29.176  48.476  1.00  0.00    -0.356 OA
HETATM   34  C   UNL     1       5.260  30.431  49.125  1.00  0.00     0.210 C 
ENDBRANCH  29  33
ENDBRANCH   1  27
TORSDOF 6
ENDMDL
MODEL 4
REMARK VINA RESULT:      -8.8      2.975      6.214
REMARK  6 active torsions:
REMARK  status: ('A' for Active; 'I' for Inactive)
REMARK    1  A    between atoms: O_2  and  C_3 
REMARK    2  A    between atoms: C_5  and  N_6 
REMARK    3  A    between atoms: C_7  and  C_9 
REMARK    4  A    between atoms: C_7  and  O_8 
REMARK       I    between atoms: C_9  and  N_10 
REMARK    5  A    between atoms: N_10  and  C_11 
REMARK    6  A    between atoms: C_11  and  C_12 
ROOT
HETATM    1  N   UNL     1       7.050  27.378  56.092  1.00  0.00    -0.254 N 
HETATM    2  C   UNL     1       7.168  27.330  54.622  1.00  0.00     0.256 C 
HETATM    3  C   UNL     1       7.463  25.964  54.032  1.00  0.00     0.034 A 
HETATM    4  C   UNL     1       7.777  24.918  54.882  1.00  0.00     0.048 A 
HETATM    5  N   UNL     1       7.819  25.154  56.243  1.00  0.00    -0.308 N 
HETATM    6  C   UNL     1       7.501  26.318  56.867  1.00  0.00     0.330 C 
HETATM    7  O   UNL     1       7.669  26.340  58.087  1.00  0.00    -0.246 OA
HETATM    8  C   UNL     1       7.482  25.719  52.645  1.00  0.00     0.015 A 
HETATM    9  C   UNL     1       7.773  24.447  52.146  1.00  0.00     0.001 A 
HETATM   10  C   UNL     1       8.069  23.408  53.022  1.00  0.00     0.002 A 
HETATM   11  C   UNL     1       8.080  23.644  54.394  1.00  0.00     0.030 A 
HETATM   12  H   UNL     1       8.100  24.415  56.876  1.00  0.00     0.170 HD
ENDROOT
BRANCH   2  13
HETATM   13  C   UNL     1       5.828  27.859  53.938  1.00  0.00     0.279 C 
HETATM   14  N   UNL     1       6.058  28.846  52.991  1.00  0.00    -0.352 N 
HETATM   15  H   UNL     1       7.030  29.023  52.750  1.00  0.00     0.162 HD
HETATM   16  O   UNL     1       4.703  27.433  54.194  1.00  0.00    -0.268 OA
BRANCH  14  17
HETATM   17  C   UNL     1       5.017  29.361  52.137  1.00  0.00     0.163 C 
BRANCH  17  18
HETATM   18  C   UNL     1       5.040  28.686  50.791  1.00  0.00    -0.019 A 
HETATM   19  C   UNL     1       5.445  29.344  49.618  1.00  0.00     0.042 A 
HETATM   20 CL   UNL     1       5.948  30.998  49.633  1.00  0.00    -0.084 Cl
HETATM   21  C   UNL     1       5.438  28.678  48.388  1.00  0.00     0.024 A 
HETATM   22  C   UNL     1       5.024  27.348  48.313  1.00  0.00     0.002 A 
HETATM   23  C   UNL     1       4.612  26.685  49.465  1.00  0.00     0.001 A 
HETATM   24  C   UNL     1       4.615  27.349  50.693  1.00  0.00     0.010 A 
ENDBRANCH  17  18
ENDBRANCH  14  17
ENDBRANCH   2  13
BRANCH   2  25
HETATM   25  O   UNL     1       8.306  28.125  54.271  1.00  0.00    -0.359 OA
HETATM   26  H   UNL     1       8.504  27.844  53.362  1.00  0.00     0.213 HD
ENDBRANCH   2  25
BRANCH   1  27
HETATM   27  C   UNL     1       6.508  28.565  56.739  1.00  0.00     0.045 A 
HETATM   28  C   UNL     1       7.360  29.558  57.252  1.00  0.00     0.066 A 
HETATM   29  C   UNL     1       6.873  30.718  57.870  1.00  0.00     0.070 A 
HETATM   30  C   UNL     1       5.503  30.890  58.024  1.00  0.00     0.037 A 
HETATM   31  C   UNL     1       4.633  29.914  57.545  1.00  0.00     0.005 A 
HETATM   32  C   UNL     1       5.129  28.770  56.909  1.00  0.00     0.030 A 
BRANCH  29  33
HETATM   33  O   UNL     1       7.837  31.588  58.305  1.00  0.00    -0.356 OA
HETATM   34  C   UNL     1       9.108  31.025  58.599  1.00  0.00     0.210 C 
ENDBRANCH  29  33
ENDBRANCH   1  27
TORSDOF 6
ENDMDL
MODEL 5
REMARK VINA RESULT:      -8.8      2.265      6.230
REMARK  6 active torsions:
REMARK  status: ('A' for Active; 'I' for Inactive)
REMARK    1  A    between atoms: O_2  and  C_3 
REMARK    2  A    between atoms: C_5  and  N_6 
REMARK    3  A    between atoms: C_7  and  C_9 
REMARK    4  A    between atoms: C_7  and  O_8 
REMARK       I    between atoms: C_9  and  N_10 
REMARK    5  A    between atoms: N_10  and  C_11 
REMARK    6  A    between atoms: C_11  and  C_12 
ROOT
HETATM    1  N   UNL     1       6.853  25.392  55.323  1.00  0.00    -0.254 N 
HETATM    2  C   UNL     1       7.123  24.771  54.013  1.00  0.00     0.256 C 
HETATM    3  C   UNL     1       7.409  23.281  54.039  1.00  0.00     0.034 A 
HETATM    4  C   UNL     1       7.579  22.651  55.260  1.00  0.00     0.048 A 
HETATM    5  N   UNL     1       7.489  23.402  56.417  1.00  0.00    -0.308 N 
HETATM    6  C   UNL     1       7.166  24.719  56.497  1.00  0.00     0.330 C 
HETATM    7  O   UNL     1       7.205  25.217  57.623  1.00  0.00    -0.246 OA
HETATM    8  C   UNL     1       7.562  22.511  52.870  1.00  0.00     0.015 A 
HETATM    9  C   UNL     1       7.840  21.144  52.942  1.00  0.00     0.001 A 
HETATM   10  C   UNL     1       7.990  20.530  54.182  1.00  0.00     0.002 A 
HETATM   11  C   UNL     1       7.867  21.286  55.345  1.00  0.00     0.030 A 
HETATM   12  H   UNL     1       7.665  22.969  57.315  1.00  0.00     0.170 HD
ENDROOT
BRANCH   2  13
HETATM   13  C   UNL     1       5.890  24.995  53.026  1.00  0.00     0.279 C 
HETATM   14  N   UNL     1       6.215  25.775  51.926  1.00  0.00    -0.352 N 
HETATM   15  H   UNL     1       7.199  25.999  51.804  1.00  0.00     0.162 HD
HETATM   16  O   UNL     1       4.770  24.517  53.194  1.00  0.00    -0.268 OA
BRANCH  14  17
HETATM   17  C   UNL     1       5.307  25.981  50.825  1.00  0.00     0.163 C 
BRANCH  17  18
HETATM   18  C   UNL     1       5.259  27.434  50.430  1.00  0.00    -0.019 A 
HETATM   19  C   UNL     1       5.081  27.855  49.103  1.00  0.00     0.042 A 
HETATM   20 CL   UNL     1       4.907  26.724  47.807  1.00  0.00    -0.084 Cl
HETATM   21  C   UNL     1       5.055  29.217  48.785  1.00  0.00     0.024 A 
HETATM   22  C   UNL     1       5.209  30.175  49.786  1.00  0.00     0.002 A 
HETATM   23  C   UNL     1       5.395  29.773  51.106  1.00  0.00     0.001 A 
HETATM   24  C   UNL     1       5.424  28.414  51.426  1.00  0.00     0.010 A 
ENDBRANCH  17  18
ENDBRANCH  14  17
ENDBRANCH   2  13
BRANCH   2  25
HETATM   25  O   UNL     1       8.330  25.359  53.515  1.00  0.00    -0.359 OA
HETATM   26  H   UNL     1       8.099  26.299  53.423  1.00  0.00     0.213 HD
ENDBRANCH   2  25
BRANCH   1  27
HETATM   27  C   UNL     1       6.305  26.740  55.389  1.00  0.00     0.045 A 
HETATM   28  C   UNL     1       7.107  27.823  55.790  1.00  0.00     0.066 A 
HETATM   29  C   UNL     1       6.617  29.135  55.854  1.00  0.00     0.070 A 
HETATM   30  C   UNL     1       5.285  29.385  55.551  1.00  0.00     0.037 A 
HETATM   31  C   UNL     1       4.459  28.330  55.171  1.00  0.00     0.005 A 
HETATM   32  C   UNL     1       4.964  27.027  55.088  1.00  0.00     0.030 A 
BRANCH  29  33
HETATM   33  O   UNL     1       7.531  30.074  56.253  1.00  0.00    -0.356 OA
HETATM   34  C   UNL     1       8.582  29.612  57.091  1.00  0.00     0.210 C 
ENDBRANCH  29  33
ENDBRANCH   1  27
TORSDOF 6
ENDMDL
MODEL 6
REMARK VINA RESULT:      -8.7      2.590      6.622
REMARK  6 active torsions:
REMARK  status: ('A' for Active; 'I' for Inactive)
REMARK    1  A    between atoms: O_2  and  C_3 
REMARK    2  A    between atoms: C_5  and  N_6 
REMARK    3  A    between atoms: C_7  and  C_9 
REMARK    4  A    between atoms: C_7  and  O_8 
REMARK       I    between atoms: C_9  and  N_10 
REMARK    5  A    between atoms: N_10  and  C_11 
REMARK    6  A    between atoms: C_11  and  C_12 
ROOT
HETATM    1  N   UNL     1       7.038  25.463  55.733  1.00  0.00    -0.254 N 
HETATM    2  C   UNL     1       5.694  26.042  55.545  1.00  0.00     0.256 C 
HETATM    3  C   UNL     1       5.493  27.432  56.120  1.00  0.00     0.034 A 
HETATM    4  C   UNL     1       6.483  27.980  56.918  1.00  0.00     0.048 A 
HETATM    5  N   UNL     1       7.621  27.238  57.172  1.00  0.00    -0.308 N 
HETATM    6  C   UNL     1       7.922  26.022  56.646  1.00  0.00     0.330 C 
HETATM    7  O   UNL     1       8.961  25.500  57.054  1.00  0.00    -0.246 OA
HETATM    8  C   UNL     1       4.316  28.179  55.920  1.00  0.00     0.015 A 
HETATM    9  C   UNL     1       4.169  29.450  56.481  1.00  0.00     0.001 A 
HETATM   10  C   UNL     1       5.185  29.985  57.266  1.00  0.00     0.002 A 
HETATM   11  C   UNL     1       6.344  29.245  57.493  1.00  0.00     0.030 A 
HETATM   12  H   UNL     1       8.331  27.599  57.797  1.00  0.00     0.170 HD
ENDROOT
BRANCH   2  13
HETATM   13  C   UNL     1       5.332  26.118  53.994  1.00  0.00     0.279 C 
HETATM   14  N   UNL     1       5.966  27.167  53.343  1.00  0.00    -0.352 N 
HETATM   15  H   UNL     1       6.669  27.672  53.877  1.00  0.00     0.162 HD
HETATM   16  O   UNL     1       4.591  25.327  53.414  1.00  0.00    -0.268 OA
BRANCH  14  17
HETATM   17  C   UNL     1       5.912  27.338  51.913  1.00  0.00     0.163 C 
BRANCH  17  18
HETATM   18  C   UNL     1       4.713  28.156  51.512  1.00  0.00    -0.019 A 
HETATM   19  C   UNL     1       4.041  27.973  50.293  1.00  0.00     0.042 A 
HETATM   20 CL   UNL     1       4.549  26.783  49.147  1.00  0.00    -0.084 Cl
HETATM   21  C   UNL     1       2.937  28.766  49.961  1.00  0.00     0.024 A 
HETATM   22  C   UNL     1       2.493  29.754  50.839  1.00  0.00     0.002 A 
HETATM   23  C   UNL     1       3.155  29.954  52.047  1.00  0.00     0.001 A 
HETATM   24  C   UNL     1       4.258  29.166  52.380  1.00  0.00     0.010 A 
ENDBRANCH  17  18
ENDBRANCH  14  17
ENDBRANCH   2  13
BRANCH   2  25
HETATM   25  O   UNL     1       4.781  25.217  56.276  1.00  0.00    -0.359 OA
HETATM   26  H   UNL     1       5.157  25.208  57.173  1.00  0.00     0.213 HD
ENDBRANCH   2  25
BRANCH   1  27
HETATM   27  C   UNL     1       7.422  24.266  54.997  1.00  0.00     0.045 A 
HETATM   28  C   UNL     1       7.336  22.996  55.594  1.00  0.00     0.066 A 
HETATM   29  C   UNL     1       7.687  21.822  54.912  1.00  0.00     0.070 A 
HETATM   30  C   UNL     1       8.173  21.902  53.614  1.00  0.00     0.037 A 
HETATM   31  C   UNL     1       8.290  23.148  53.002  1.00  0.00     0.005 A 
HETATM   32  C   UNL     1       7.916  24.312  53.684  1.00  0.00     0.030 A 
BRANCH  29  33
HETATM   33  O   UNL     1       7.536  20.669  55.634  1.00  0.00    -0.356 OA
HETATM   34  C   UNL     1       8.622  20.305  56.476  1.00  0.00     0.210 C 
ENDBRANCH  29  33
ENDBRANCH   1  27
TORSDOF 6
ENDMDL
MODEL 7
REMARK VINA RESULT:      -8.4      3.307      7.162
REMARK  6 active torsions:
REMARK  status: ('A' for Active; 'I' for Inactive)
REMARK    1  A    between atoms: O_2  and  C_3 
REMARK    2  A    between atoms: C_5  and  N_6 
REMARK    3  A    between atoms: C_7  and  C_9 
REMARK    4  A    between atoms: C_7  and  O_8 
REMARK       I    between atoms: C_9  and  N_10 
REMARK    5  A    between atoms: N_10  and  C_11 
REMARK    6  A    between atoms: C_11  and  C_12 
ROOT
HETATM    1  N   UNL     1       5.605  26.255  53.478  1.00  0.00    -0.254 N 
HETATM    2  C   UNL     1       6.093  26.035  54.853  1.00  0.00     0.256 C 
HETATM    3  C   UNL     1       6.854  24.742  55.079  1.00  0.00     0.034 A 
HETATM    4  C   UNL     1       6.885  23.795  54.070  1.00  0.00     0.048 A 
HETATM    5  N   UNL     1       6.214  24.054  52.890  1.00  0.00    -0.308 N 
HETATM    6  C   UNL     1       5.570  25.207  52.569  1.00  0.00     0.330 C 
HETATM    7  O   UNL     1       4.977  25.210  51.489  1.00  0.00    -0.246 OA
HETATM    8  C   UNL     1       7.495  24.436  56.295  1.00  0.00     0.015 A 
HETATM    9  C   UNL     1       8.172  23.225  56.463  1.00  0.00     0.001 A 
HETATM   10  C   UNL     1       8.203  22.296  55.428  1.00  0.00     0.002 A 
HETATM   11  C   UNL     1       7.551  22.577  54.230  1.00  0.00     0.030 A 
HETATM   12  H   UNL     1       6.180  23.351  52.163  1.00  0.00     0.170 HD
ENDROOT
BRANCH   2  13
HETATM   13  C   UNL     1       7.050  27.229  55.302  1.00  0.00     0.279 C 
HETATM   14  N   UNL     1       6.691  27.777  56.525  1.00  0.00    -0.352 N 
HETATM   15  H   UNL     1       5.966  27.288  57.044  1.00  0.00     0.162 HD
HETATM   16  O   UNL     1       8.021  27.621  54.658  1.00  0.00    -0.268 OA
BRANCH  14  17
HETATM   17  C   UNL     1       7.498  28.760  57.202  1.00  0.00     0.163 C 
BRANCH  17  18
HETATM   18  C   UNL     1       6.748  30.055  57.366  1.00  0.00    -0.019 A 
HETATM   19  C   UNL     1       6.930  30.905  58.468  1.00  0.00     0.042 A 
HETATM   20 CL   UNL     1       8.041  30.521  59.737  1.00  0.00    -0.084 Cl
HETATM   21  C   UNL     1       6.200  32.093  58.581  1.00  0.00     0.024 A 
HETATM   22  C   UNL     1       5.277  32.446  57.597  1.00  0.00     0.002 A 
HETATM   23  C   UNL     1       5.079  31.609  56.503  1.00  0.00     0.001 A 
HETATM   24  C   UNL     1       5.803  30.421  56.390  1.00  0.00     0.010 A 
ENDBRANCH  17  18
ENDBRANCH  14  17
ENDBRANCH   2  13
BRANCH   2  25
HETATM   25  O   UNL     1       4.937  25.921  55.690  1.00  0.00    -0.359 OA
HETATM   26  H   UNL     1       4.907  26.778  56.147  1.00  0.00     0.213 HD
ENDBRANCH   2  25
BRANCH   1  27
HETATM   27  C   UNL     1       5.106  27.566  53.086  1.00  0.00     0.045 A 
HETATM   28  C   UNL     1       5.744  28.306  52.074  1.00  0.00     0.066 A 
HETATM   29  C   UNL     1       5.284  29.565  51.663  1.00  0.00     0.070 A 
HETATM   30  C   UNL     1       4.184  30.133  52.292  1.00  0.00     0.037 A 
HETATM   31  C   UNL     1       3.542  29.434  53.312  1.00  0.00     0.005 A 
HETATM   32  C   UNL     1       3.995  28.167  53.700  1.00  0.00     0.030 A 
BRANCH  29  33
HETATM   33  O   UNL     1       6.014  30.146  50.661  1.00  0.00    -0.356 OA
HETATM   34  C   UNL     1       5.608  31.448  50.259  1.00  0.00     0.210 C 
ENDBRANCH  29  33
ENDBRANCH   1  27
TORSDOF 6
ENDMDL
MODEL 8
REMARK VINA RESULT:      -8.3      1.931      5.545
REMARK  6 active torsions:
REMARK  status: ('A' for Active; 'I' for Inactive)
REMARK    1  A    between atoms: O_2  and  C_3 
REMARK    2  A    between atoms: C_5  and  N_6 
REMARK    3  A    between atoms: C_7  and  C_9 
REMARK    4  A    between atoms: C_7  and  O_8 
REMARK       I    between atoms: C_9  and  N_10 
REMARK    5  A    between atoms: N_10  and  C_11 
REMARK    6  A    between atoms: C_11  and  C_12 
ROOT
HETATM    1  N   UNL     1       4.680  28.363  51.902  1.00  0.00    -0.254 N 
HETATM    2  C   UNL     1       5.642  27.818  52.878  1.00  0.00     0.256 C 
HETATM    3  C   UNL     1       5.293  28.041  54.338  1.00  0.00     0.034 A 
HETATM    4  C   UNL     1       4.231  28.871  54.656  1.00  0.00     0.048 A 
HETATM    5  N   UNL     1       3.529  29.478  53.633  1.00  0.00    -0.308 N 
HETATM    6  C   UNL     1       3.719  29.283  52.301  1.00  0.00     0.330 C 
HETATM    7  O   UNL     1       3.027  29.972  51.551  1.00  0.00    -0.246 OA
HETATM    8  C   UNL     1       6.033  27.478  55.395  1.00  0.00     0.015 A 
HETATM    9  C   UNL     1       5.683  27.722  56.725  1.00  0.00     0.001 A 
HETATM   10  C   UNL     1       4.602  28.548  57.019  1.00  0.00     0.002 A 
HETATM   11  C   UNL     1       3.878  29.131  55.983  1.00  0.00     0.030 A 
HETATM   12  H   UNL     1       2.786  30.130  53.847  1.00  0.00     0.170 HD
ENDROOT
BRANCH   2  13
HETATM   13  C   UNL     1       5.815  26.246  52.671  1.00  0.00     0.279 C 
HETATM   14  N   UNL     1       7.134  25.872  52.461  1.00  0.00    -0.352 N 
HETATM   15  H   UNL     1       7.836  26.597  52.590  1.00  0.00     0.162 HD
HETATM   16  O   UNL     1       4.893  25.434  52.712  1.00  0.00    -0.268 OA
BRANCH  14  17
HETATM   17  C   UNL     1       7.550  24.493  52.403  1.00  0.00     0.163 C 
BRANCH  17  18
HETATM   18  C   UNL     1       7.821  23.953  53.783  1.00  0.00    -0.019 A 
HETATM   19  C   UNL     1       7.946  22.581  54.050  1.00  0.00     0.042 A 
HETATM   20 CL   UNL     1       7.792  21.395  52.801  1.00  0.00    -0.084 Cl
HETATM   21  C   UNL     1       8.186  22.126  55.352  1.00  0.00     0.024 A 
HETATM   22  C   UNL     1       8.301  23.036  56.402  1.00  0.00     0.002 A 
HETATM   23  C   UNL     1       8.171  24.400  56.154  1.00  0.00     0.001 A 
HETATM   24  C   UNL     1       7.928  24.855  54.856  1.00  0.00     0.010 A 
ENDBRANCH  17  18
ENDBRANCH  14  17
ENDBRANCH   2  13
BRANCH   2  25
HETATM   25  O   UNL     1       6.871  28.529  52.692  1.00  0.00    -0.359 OA
HETATM   26  H   UNL     1       7.119  28.309  51.778  1.00  0.00     0.213 HD
ENDBRANCH   2  25
BRANCH   1  27
HETATM   27  C   UNL     1       4.770  27.979  50.500  1.00  0.00     0.045 A 
HETATM   28  C   UNL     1       4.071  26.859  50.015  1.00  0.00     0.066 A 
HETATM   29  C   UNL     1       4.125  26.467  48.670  1.00  0.00     0.070 A 
HETATM   30  C   UNL     1       4.922  27.176  47.780  1.00  0.00     0.037 A 
HETATM   31  C   UNL     1       5.644  28.277  48.235  1.00  0.00     0.005 A 
HETATM   32  C   UNL     1       5.565  28.674  49.575  1.00  0.00     0.030 A 
BRANCH  29  33
HETATM   33  O   UNL     1       3.379  25.362  48.361  1.00  0.00    -0.356 OA
HETATM   34  C   UNL     1       2.747  25.364  47.087  1.00  0.00     0.210 C 
ENDBRANCH  29  33
ENDBRANCH   1  27
TORSDOF 6
ENDMDL
MODEL 9
REMARK VINA RESULT:      -8.0      2.489      6.794
REMARK  6 active torsions:
REMARK  status: ('A' for Active; 'I' for Inactive)
REMARK    1  A    between atoms: O_2  and  C_3 
REMARK    2  A    between atoms: C_5  and  N_6 
REMARK    3  A    between atoms: C_7  and  C_9 
REMARK    4  A    between atoms: C_7  and  O_8 
REMARK       I    between atoms: C_9  and  N_10 
REMARK    5  A    between atoms: N_10  and  C_11 
REMARK    6  A    between atoms: C_11  and  C_12 
ROOT
HETATM    1  N   UNL     1       6.104  26.192  54.583  1.00  0.00    -0.254 N 
HETATM    2  C   UNL     1       6.688  25.447  53.452  1.00  0.00     0.256 C 
HETATM    3  C   UNL     1       7.113  24.022  53.755  1.00  0.00     0.034 A 
HETATM    4  C   UNL     1       7.101  23.582  55.067  1.00  0.00     0.048 A 
HETATM    5  N   UNL     1       6.710  24.458  56.062  1.00  0.00    -0.308 N 
HETATM    6  C   UNL     1       6.246  25.722  55.882  1.00  0.00     0.330 C 
HETATM    7  O   UNL     1       6.012  26.362  56.908  1.00  0.00    -0.246 OA
HETATM    8  C   UNL     1       7.570  23.134  52.762  1.00  0.00     0.015 A 
HETATM    9  C   UNL     1       7.964  21.834  53.090  1.00  0.00     0.001 A 
HETATM   10  C   UNL     1       7.928  21.410  54.414  1.00  0.00     0.002 A 
HETATM   11  C   UNL     1       7.503  22.288  55.408  1.00  0.00     0.030 A 
HETATM   12  H   UNL     1       6.748  24.171  57.032  1.00  0.00     0.170 HD
ENDROOT
BRANCH   2  13
HETATM   13  C   UNL     1       5.658  25.383  52.237  1.00  0.00     0.279 C 
HETATM   14  N   UNL     1       5.980  26.257  51.209  1.00  0.00    -0.352 N 
HETATM   15  H   UNL     1       6.878  26.730  51.282  1.00  0.00     0.162 HD
HETATM   16  O   UNL     1       4.688  24.628  52.187  1.00  0.00    -0.268 OA
BRANCH  14  17
HETATM   17  C   UNL     1       5.284  26.263  49.947  1.00  0.00     0.163 C 
BRANCH  17  18
HETATM   18  C   UNL     1       5.128  27.666  49.423  1.00  0.00    -0.019 A 
HETATM   19  C   UNL     1       4.381  27.969  48.274  1.00  0.00     0.042 A 
HETATM   20 CL   UNL     1       3.579  26.739  47.362  1.00  0.00    -0.084 Cl
HETATM   21  C   UNL     1       4.275  29.289  47.820  1.00  0.00     0.024 A 
HETATM   22  C   UNL     1       4.916  30.320  48.505  1.00  0.00     0.002 A 
HETATM   23  C   UNL     1       5.667  30.034  49.641  1.00  0.00     0.001 A 
HETATM   24  C   UNL     1       5.778  28.718  50.094  1.00  0.00     0.010 A 
ENDBRANCH  17  18
ENDBRANCH  14  17
ENDBRANCH   2  13
BRANCH   2  25
HETATM   25  O   UNL     1       7.904  26.115  53.099  1.00  0.00    -0.359 OA
HETATM   26  H   UNL     1       8.137  25.717  52.243  1.00  0.00     0.213 HD
ENDBRANCH   2  25
BRANCH   1  27
HETATM   27  C   UNL     1       5.421  27.457  54.345  1.00  0.00     0.045 A 
HETATM   28  C   UNL     1       4.312  27.524  53.484  1.00  0.00     0.066 A 
HETATM   29  C   UNL     1       3.623  28.721  53.241  1.00  0.00     0.070 A 
HETATM   30  C   UNL     1       4.062  29.898  53.835  1.00  0.00     0.037 A 
HETATM   31  C   UNL     1       5.171  29.867  54.677  1.00  0.00     0.005 A 
HETATM   32  C   UNL     1       5.838  28.663  54.931  1.00  0.00     0.030 A 
BRANCH  29  33
HETATM   33  O   UNL     1       2.561  28.612  52.384  1.00  0.00    -0.356 OA
HETATM   34  C   UNL     1       2.497  29.568  51.334  1.00  0.00     0.210 C 
ENDBRANCH  29  33
ENDBRANCH   1  27
TORSDOF 6
ENDMDL
MODEL 10
REMARK VINA RESULT:      -8.0      3.074      7.499
REMARK  6 active torsions:
REMARK  status: ('A' for Active; 'I' for Inactive)
REMARK    1  A    between atoms: O_2  and  C_3 
REMARK    2  A    between atoms: C_5  and  N_6 
REMARK    3  A    between atoms: C_7  and  C_9 
REMARK    4  A    between atoms: C_7  and  O_8 
REMARK       I    between atoms: C_9  and  N_10 
REMARK    5  A    between atoms: N_10  and  C_11 
REMARK    6  A    between atoms: C_11  and  C_12 
ROOT
HETATM    1  N   UNL     1       4.540  28.006  52.540  1.00  0.00    -0.254 N 
HETATM    2  C   UNL     1       5.603  27.273  51.826  1.00  0.00     0.256 C 
HETATM    3  C   UNL     1       6.175  26.072  52.556  1.00  0.00     0.034 A 
HETATM    4  C   UNL     1       5.813  25.851  53.874  1.00  0.00     0.048 A 
HETATM    5  N   UNL     1       4.948  26.738  54.486  1.00  0.00    -0.308 N 
HETATM    6  C   UNL     1       4.331  27.795  53.896  1.00  0.00     0.330 C 
HETATM    7  O   UNL     1       3.646  28.502  54.637  1.00  0.00    -0.246 OA
HETATM    8  C   UNL     1       7.102  25.191  51.967  1.00  0.00     0.015 A 
HETATM    9  C   UNL     1       7.614  24.105  52.682  1.00  0.00     0.001 A 
HETATM   10  C   UNL     1       7.222  23.895  54.001  1.00  0.00     0.002 A 
HETATM   11  C   UNL     1       6.326  24.775  54.602  1.00  0.00     0.030 A 
HETATM   12  H   UNL     1       4.716  26.624  55.464  1.00  0.00     0.170 HD
ENDROOT
BRANCH   2  13
HETATM   13  C   UNL     1       5.071  26.757  50.414  1.00  0.00     0.279 C 
HETATM   14  N   UNL     1       5.394  27.611  49.370  1.00  0.00    -0.352 N 
HETATM   15  H   UNL     1       6.026  28.377  49.592  1.00  0.00     0.162 HD
HETATM   16  O   UNL     1       4.458  25.705  50.245  1.00  0.00    -0.268 OA
BRANCH  14  17
HETATM   17  C   UNL     1       5.154  27.276  47.989  1.00  0.00     0.163 C 
BRANCH  17  18
HETATM   18  C   UNL     1       3.785  27.728  47.554  1.00  0.00    -0.019 A 
HETATM   19  C   UNL     1       2.750  26.831  47.249  1.00  0.00     0.042 A 
HETATM   20 CL   UNL     1       2.974  25.119  47.346  1.00  0.00    -0.084 Cl
HETATM   21  C   UNL     1       1.498  27.300  46.837  1.00  0.00     0.024 A 
HETATM   22  C   UNL     1       1.265  28.670  46.723  1.00  0.00     0.002 A 
HETATM   23  C   UNL     1       2.284  29.572  47.013  1.00  0.00     0.001 A 
HETATM   24  C   UNL     1       3.536  29.106  47.421  1.00  0.00     0.010 A 
ENDBRANCH  17  18
ENDBRANCH  14  17
ENDBRANCH   2  13
BRANCH   2  25
HETATM   25  O   UNL     1       6.710  28.172  51.694  1.00  0.00    -0.359 OA
HETATM   26  H   UNL     1       7.354  27.829  52.336  1.00  0.00     0.213 HD
ENDBRANCH   2  25
BRANCH   1  27
HETATM   27  C   UNL     1       3.740  28.997  51.833  1.00  0.00     0.045 A 
HETATM   28  C   UNL     1       4.201  30.317  51.678  1.00  0.00     0.066 A 
HETATM   29  C   UNL     1       3.464  31.293  50.993  1.00  0.00     0.070 A 
HETATM   30  C   UNL     1       2.215  30.972  50.477  1.00  0.00     0.037 A 
HETATM   31  C   UNL     1       1.721  29.679  50.632  1.00  0.00     0.005 A 
HETATM   32  C   UNL     1       2.475  28.705  51.298  1.00  0.00     0.030 A 
BRANCH  29  33
HETATM   33  O   UNL     1       4.059  32.524  50.925  1.00  0.00    -0.356 OA
HETATM   34  C   UNL     1       5.450  32.535  50.630  1.00  0.00     0.210 C 
ENDBRANCH  29  33
ENDBRANCH   1  27
TORSDOF 6
ENDMDL
