MODEL 1
REMARK VINA RESULT:      -8.8      0.000      0.000
REMARK  7 active torsions:
REMARK  status: ('A' for Active; 'I' for Inactive)
REMARK    1  A    between atoms: C_4  and  C_5 
REMARK    2  A    between atoms: C_9  and  C_10 
REMARK    3  A    between atoms: C_10  and  C_11 
REMARK    4  A    between atoms: C_11  and  C_12 
REMARK    5  A    between atoms: C_12  and  O_13 
REMARK    6  A    between atoms: C_18  and  C_19 
REMARK       I    between atoms: C_19  and  N_20 
REMARK    7  A    between atoms: N_20  and  C_21 
ROOT
HETATM    1  C   UNL     1       6.385  28.975  55.700  1.00  0.00     0.202 A 
HETATM    2  N   UNL     1       6.727  29.648  56.960  1.00  0.00    -0.083 N 
HETATM    3  C   UNL     1       6.079  30.750  57.436  1.00  0.00     0.726 A 
HETATM    4  N   UNL     1       6.667  31.172  58.525  1.00  0.00    -0.046 NA
HETATM    5  C   UNL     1       7.726  30.310  58.655  1.00  0.00     0.166 A 
HETATM    6  N   UNL     1       7.817  29.360  57.711  1.00  0.00    -0.140 NA
HETATM    7  N   UNL     1       5.031  31.237  56.755  1.00  0.00    -0.192 N 
HETATM    8  C   UNL     1       4.592  30.725  55.539  1.00  0.00     0.037 A 
HETATM    9  C   UNL     1       3.454  31.493  54.906  1.00  0.00     0.070 C 
HETATM   10  C   UNL     1       5.200  29.636  54.987  1.00  0.00     0.062 A 
HETATM   11  H   UNL     1       4.567  32.068  57.112  1.00  0.00     0.184 HD
ENDROOT
BRANCH  10  12
HETATM   12  C   UNL     1       4.684  29.055  53.692  1.00  0.00     0.256 C 
HETATM   13  N   UNL     1       5.616  28.871  52.687  1.00  0.00    -0.323 N 
HETATM   14  H   UNL     1       6.587  28.814  52.953  1.00  0.00     0.169 HD
HETATM   15  O   UNL     1       3.515  28.683  53.614  1.00  0.00    -0.267 OA
BRANCH  13  16
HETATM   16  C   UNL     1       5.331  28.222  51.459  1.00  0.00     0.041 A 
HETATM   17  C   UNL     1       5.185  26.834  51.303  1.00  0.00    -0.035 A 
HETATM   18  C   UNL     1       5.198  25.850  52.440  1.00  0.00     0.050 C 
HETATM   19  C   UNL     1       4.974  26.318  50.008  1.00  0.00     0.009 A 
HETATM   20  C   UNL     1       4.857  27.163  48.904  1.00  0.00     0.001 A 
HETATM   21  C   UNL     1       4.935  28.538  49.077  1.00  0.00     0.002 A 
HETATM   22  C   UNL     1       5.159  29.066  50.349  1.00  0.00     0.030 A 
ENDBRANCH  13  16
ENDBRANCH  10  12
BRANCH   1  23
HETATM   23  C   UNL     1       6.253  27.468  55.933  1.00  0.00    -0.028 A 
HETATM   24  C   UNL     1       7.158  26.536  55.396  1.00  0.00     0.016 A 
HETATM   25  C   UNL     1       7.054  25.172  55.701  1.00  0.00    -0.061 A 
HETATM   26  C   UNL     1       8.084  24.200  55.202  1.00  0.00     0.048 C 
HETATM   27  C   UNL     1       6.022  24.732  56.536  1.00  0.00     0.007 A 
HETATM   28  C   UNL     1       5.093  25.636  57.043  1.00  0.00     0.001 A 
HETATM   29  C   UNL     1       5.206  26.992  56.746  1.00  0.00     0.010 A 
ENDBRANCH   1  23
BRANCH   5  30
HETATM   30  C   UNL     1       8.680  30.392  59.790  1.00  0.00     0.085 C 
BRANCH  30  31
HETATM   31  C   UNL     1       8.161  31.250  60.944  1.00  0.00     0.034 C 
BRANCH  31  32
HETATM   32  C   UNL     1       8.683  30.840  62.318  1.00  0.00     0.164 C 
BRANCH  32  33
HETATM   33  O   UNL     1       9.058  29.470  62.337  1.00  0.00    -0.401 OA
HETATM   34  H   UNL     1       9.717  29.371  63.052  1.00  0.00     0.209 HD
ENDBRANCH  32  33
ENDBRANCH  31  32
ENDBRANCH  30  31
ENDBRANCH   5  30
TORSDOF 7
ENDMDL
MODEL 2
REMARK VINA RESULT:      -8.8      3.097      5.187
REMARK  7 active torsions:
REMARK  status: ('A' for Active; 'I' for Inactive)
REMARK    1  A    between atoms: C_4  and  C_5 
REMARK    2  A    between atoms: C_9  and  C_10 
REMARK    3  A    between atoms: C_10  and  C_11 
REMARK    4  A    between atoms: C_11  and  C_12 
REMARK    5  A    between atoms: C_12  and  O_13 
REMARK    6  A    between atoms: C_18  and  C_19 
REMARK       I    between atoms: C_19  and  N_20 
REMARK    7  A    between atoms: N_20  and  C_21 
ROOT
HETATM    1  C   UNL     1       7.274  30.025  58.308  1.00  0.00     0.202 A 
HETATM    2  N   UNL     1       7.647  31.118  59.215  1.00  0.00    -0.083 N 
HETATM    3  C   UNL     1       8.907  31.633  59.312  1.00  0.00     0.726 A 
HETATM    4  N   UNL     1       8.948  32.526  60.265  1.00  0.00    -0.046 NA
HETATM    5  C   UNL     1       7.674  32.489  60.775  1.00  0.00     0.166 A 
HETATM    6  N   UNL     1       6.837  31.629  60.172  1.00  0.00    -0.140 NA
HETATM    7  N   UNL     1       9.868  31.163  58.503  1.00  0.00    -0.192 N 
HETATM    8  C   UNL     1       9.681  30.121  57.601  1.00  0.00     0.037 A 
HETATM    9  C   UNL     1      10.930  29.695  56.863  1.00  0.00     0.070 C 
HETATM   10  C   UNL     1       8.456  29.540  57.459  1.00  0.00     0.062 A 
HETATM   11  H   UNL     1      10.806  31.544  58.595  1.00  0.00     0.184 HD
ENDROOT
BRANCH  10  12
HETATM   12  C   UNL     1       8.249  28.444  56.442  1.00  0.00     0.256 C 
HETATM   13  N   UNL     1       7.740  27.250  56.919  1.00  0.00    -0.323 N 
HETATM   14  H   UNL     1       7.244  27.270  57.796  1.00  0.00     0.169 HD
HETATM   15  O   UNL     1       8.437  28.677  55.250  1.00  0.00    -0.267 OA
BRANCH  13  16
HETATM   16  C   UNL     1       7.366  26.165  56.087  1.00  0.00     0.041 A 
HETATM   17  C   UNL     1       7.959  24.892  56.116  1.00  0.00    -0.035 A 
HETATM   18  C   UNL     1       8.999  24.469  57.117  1.00  0.00     0.050 C 
HETATM   19  C   UNL     1       7.536  23.927  55.181  1.00  0.00     0.009 A 
HETATM   20  C   UNL     1       6.513  24.201  54.273  1.00  0.00     0.001 A 
HETATM   21  C   UNL     1       5.885  25.440  54.294  1.00  0.00     0.002 A 
HETATM   22  C   UNL     1       6.301  26.412  55.204  1.00  0.00     0.030 A 
ENDBRANCH  13  16
ENDBRANCH  10  12
BRANCH   1  23
HETATM   23  C   UNL     1       6.016  30.405  57.524  1.00  0.00    -0.028 A 
HETATM   24  C   UNL     1       5.865  31.652  56.892  1.00  0.00     0.016 A 
HETATM   25  C   UNL     1       4.735  31.932  56.111  1.00  0.00    -0.061 A 
HETATM   26  C   UNL     1       4.630  33.228  55.361  1.00  0.00     0.048 C 
HETATM   27  C   UNL     1       3.736  30.962  55.977  1.00  0.00     0.007 A 
HETATM   28  C   UNL     1       3.851  29.738  56.630  1.00  0.00     0.001 A 
HETATM   29  C   UNL     1       4.981  29.461  57.396  1.00  0.00     0.010 A 
ENDBRANCH   1  23
BRANCH   5  30
HETATM   30  C   UNL     1       7.238  33.374  61.884  1.00  0.00     0.085 C 
BRANCH  30  31
HETATM   31  C   UNL     1       6.905  32.606  63.164  1.00  0.00     0.034 C 
BRANCH  31  32
HETATM   32  C   UNL     1       5.414  32.368  63.386  1.00  0.00     0.164 C 
BRANCH  32  33
HETATM   33  O   UNL     1       5.028  31.079  62.932  1.00  0.00    -0.401 OA
HETATM   34  H   UNL     1       4.132  30.916  63.288  1.00  0.00     0.209 HD
ENDBRANCH  32  33
ENDBRANCH  31  32
ENDBRANCH  30  31
ENDBRANCH   5  30
TORSDOF 7
ENDMDL
MODEL 3
REMARK VINA RESULT:      -8.7      2.065      2.889
REMARK  7 active torsions:
REMARK  status: ('A' for Active; 'I' for Inactive)
REMARK    1  A    between atoms: C_4  and  C_5 
REMARK    2  A    between atoms: C_9  and  C_10 
REMARK    3  A    between atoms: C_10  and  C_11 
REMARK    4  A    between atoms: C_11  and  C_12 
REMARK    5  A    between atoms: C_12  and  O_13 
REMARK    6  A    between atoms: C_18  and  C_19 
REMARK       I    between atoms: C_19  and  N_20 
REMARK    7  A    between atoms: N_20  and  C_21 
ROOT
HETATM    1  C   UNL     1       7.047  27.983  53.935  1.00  0.00     0.202 A 
HETATM    2  N   UNL     1       7.646  28.576  55.138  1.00  0.00    -0.083 N 
HETATM    3  C   UNL     1       6.964  29.361  56.021  1.00  0.00     0.726 A 
HETATM    4  N   UNL     1       7.782  29.813  56.934  1.00  0.00    -0.046 NA
HETATM    5  C   UNL     1       8.995  29.311  56.535  1.00  0.00     0.166 A 
HETATM    6  N   UNL     1       8.968  28.552  55.427  1.00  0.00    -0.140 NA
HETATM    7  N   UNL     1       5.654  29.578  55.826  1.00  0.00    -0.192 N 
HETATM    8  C   UNL     1       4.945  29.102  54.729  1.00  0.00     0.037 A 
HETATM    9  C   UNL     1       3.502  29.551  54.668  1.00  0.00     0.070 C 
HETATM   10  C   UNL     1       5.560  28.326  53.791  1.00  0.00     0.062 A 
HETATM   11  H   UNL     1       5.161  30.178  56.482  1.00  0.00     0.184 HD
ENDROOT
BRANCH  10  12
HETATM   12  C   UNL     1       4.770  27.771  52.630  1.00  0.00     0.256 C 
HETATM   13  N   UNL     1       4.814  28.497  51.454  1.00  0.00    -0.323 N 
HETATM   14  H   UNL     1       5.585  29.133  51.325  1.00  0.00     0.169 HD
HETATM   15  O   UNL     1       4.220  26.677  52.736  1.00  0.00    -0.267 OA
BRANCH  13  16
HETATM   16  C   UNL     1       4.239  28.057  50.236  1.00  0.00     0.041 A 
HETATM   17  C   UNL     1       2.940  28.373  49.803  1.00  0.00    -0.035 A 
HETATM   18  C   UNL     1       2.019  29.320  50.521  1.00  0.00     0.050 C 
HETATM   19  C   UNL     1       2.471  27.807  48.601  1.00  0.00     0.009 A 
HETATM   20  C   UNL     1       3.289  26.989  47.820  1.00  0.00     0.001 A 
HETATM   21  C   UNL     1       4.594  26.735  48.221  1.00  0.00     0.002 A 
HETATM   22  C   UNL     1       5.070  27.275  49.415  1.00  0.00     0.030 A 
ENDBRANCH  13  16
ENDBRANCH  10  12
BRANCH   1  23
HETATM   23  C   UNL     1       7.387  26.492  53.864  1.00  0.00    -0.028 A 
HETATM   24  C   UNL     1       7.325  25.647  54.986  1.00  0.00     0.016 A 
HETATM   25  C   UNL     1       7.560  24.271  54.865  1.00  0.00    -0.061 A 
HETATM   26  C   UNL     1       7.395  23.364  56.050  1.00  0.00     0.048 C 
HETATM   27  C   UNL     1       7.880  23.736  53.613  1.00  0.00     0.007 A 
HETATM   28  C   UNL     1       7.986  24.566  52.500  1.00  0.00     0.001 A 
HETATM   29  C   UNL     1       7.741  25.931  52.623  1.00  0.00     0.010 A 
ENDBRANCH   1  23
BRANCH   5  30
HETATM   30  C   UNL     1      10.243  29.549  57.302  1.00  0.00     0.085 C 
BRANCH  30  31
HETATM   31  C   UNL     1      10.520  31.032  57.547  1.00  0.00     0.034 C 
BRANCH  31  32
HETATM   32  C   UNL     1      10.128  31.525  58.936  1.00  0.00     0.164 C 
BRANCH  32  33
HETATM   33  O   UNL     1       8.903  32.243  58.899  1.00  0.00    -0.401 OA
HETATM   34  H   UNL     1       8.994  32.913  58.194  1.00  0.00     0.209 HD
ENDBRANCH  32  33
ENDBRANCH  31  32
ENDBRANCH  30  31
ENDBRANCH   5  30
TORSDOF 7
ENDMDL
MODEL 4
REMARK VINA RESULT:      -8.6      3.453      6.242
REMARK  7 active torsions:
REMARK  status: ('A' for Active; 'I' for Inactive)
REMARK    1  A    between atoms: C_4  and  C_5 
REMARK    2  A    between atoms: C_9  and  C_10 
REMARK    3  A    between atoms: C_10  and  C_11 
REMARK    4  A    between atoms: C_11  and  C_12 
REMARK    5  A    between atoms: C_12  and  O_13 
REMARK    6  A    between atoms: C_18  and  C_19 
REMARK       I    between atoms: C_19  and  N_20 
REMARK    7  A    between atoms: N_20  and  C_21 
ROOT
HETATM    1  C   UNL     1       6.441  27.682  53.599  1.00  0.00     0.202 A 
HETATM    2  N   UNL     1       5.302  28.596  53.446  1.00  0.00    -0.083 N 
HETATM    3  C   UNL     1       4.117  28.246  52.869  1.00  0.00     0.726 A 
HETATM    4  N   UNL     1       3.336  29.292  52.794  1.00  0.00    -0.046 NA
HETATM    5  C   UNL     1       4.120  30.297  53.302  1.00  0.00     0.166 A 
HETATM    6  N   UNL     1       5.345  29.924  53.707  1.00  0.00    -0.140 NA
HETATM    7  N   UNL     1       3.940  26.983  52.453  1.00  0.00    -0.192 N 
HETATM    8  C   UNL     1       4.925  26.003  52.512  1.00  0.00     0.037 A 
HETATM    9  C   UNL     1       4.533  24.678  51.897  1.00  0.00     0.070 C 
HETATM   10  C   UNL     1       6.144  26.279  53.057  1.00  0.00     0.062 A 
HETATM   11  H   UNL     1       3.058  26.739  52.010  1.00  0.00     0.184 HD
ENDROOT
BRANCH  10  12
HETATM   12  C   UNL     1       7.190  25.195  53.164  1.00  0.00     0.256 C 
HETATM   13  N   UNL     1       6.900  24.143  54.012  1.00  0.00    -0.323 N 
HETATM   14  H   UNL     1       5.932  23.981  54.244  1.00  0.00     0.169 HD
HETATM   15  O   UNL     1       8.181  25.233  52.439  1.00  0.00    -0.267 OA
BRANCH  13  16
HETATM   16  C   UNL     1       7.708  22.984  54.133  1.00  0.00     0.041 A 
HETATM   17  C   UNL     1       8.629  22.755  55.169  1.00  0.00    -0.035 A 
HETATM   18  C   UNL     1       8.804  23.659  56.358  1.00  0.00     0.050 C 
HETATM   19  C   UNL     1       9.419  21.590  55.125  1.00  0.00     0.009 A 
HETATM   20  C   UNL     1       9.262  20.648  54.108  1.00  0.00     0.001 A 
HETATM   21  C   UNL     1       8.302  20.848  53.124  1.00  0.00     0.002 A 
HETATM   22  C   UNL     1       7.521  22.004  53.143  1.00  0.00     0.030 A 
ENDBRANCH  13  16
ENDBRANCH  10  12
BRANCH   1  23
HETATM   23  C   UNL     1       6.961  27.732  55.038  1.00  0.00    -0.028 A 
HETATM   24  C   UNL     1       8.147  28.399  55.393  1.00  0.00     0.016 A 
HETATM   25  C   UNL     1       8.546  28.497  56.733  1.00  0.00    -0.061 A 
HETATM   26  C   UNL     1       9.760  29.295  57.108  1.00  0.00     0.048 C 
HETATM   27  C   UNL     1       7.762  27.904  57.727  1.00  0.00     0.007 A 
HETATM   28  C   UNL     1       6.606  27.204  57.389  1.00  0.00     0.001 A 
HETATM   29  C   UNL     1       6.208  27.119  56.057  1.00  0.00     0.010 A 
ENDBRANCH   1  23
BRANCH   5  30
HETATM   30  C   UNL     1       3.631  31.691  53.440  1.00  0.00     0.085 C 
BRANCH  30  31
HETATM   31  C   UNL     1       3.655  32.192  54.884  1.00  0.00     0.034 C 
BRANCH  31  32
HETATM   32  C   UNL     1       2.572  31.593  55.777  1.00  0.00     0.164 C 
BRANCH  32  33
HETATM   33  O   UNL     1       1.279  32.017  55.370  1.00  0.00    -0.401 OA
HETATM   34  H   UNL     1       1.410  32.800  54.799  1.00  0.00     0.209 HD
ENDBRANCH  32  33
ENDBRANCH  31  32
ENDBRANCH  30  31
ENDBRANCH   5  30
TORSDOF 7
ENDMDL
MODEL 5
REMARK VINA RESULT:      -8.6      3.321      6.621
REMARK  7 active torsions:
REMARK  status: ('A' for Active; 'I' for Inactive)
REMARK    1  A    between atoms: C_4  and  C_5 
REMARK    2  A    between atoms: C_9  and  C_10 
REMARK    3  A    between atoms: C_10  and  C_11 
REMARK    4  A    between atoms: C_11  and  C_12 
REMARK    5  A    between atoms: C_12  and  O_13 
REMARK    6  A    between atoms: C_18  and  C_19 
REMARK       I    between atoms: C_19  and  N_20 
REMARK    7  A    between atoms: N_20  and  C_21 
ROOT
HETATM    1  C   UNL     1       5.707  26.374  53.885  1.00  0.00     0.202 A 
HETATM    2  N   UNL     1       6.663  25.368  53.404  1.00  0.00    -0.083 N 
HETATM    3  C   UNL     1       7.003  25.204  52.093  1.00  0.00     0.726 A 
HETATM    4  N   UNL     1       7.800  24.176  51.968  1.00  0.00    -0.046 NA
HETATM    5  C   UNL     1       7.883  23.695  53.251  1.00  0.00     0.166 A 
HETATM    6  N   UNL     1       7.192  24.386  54.172  1.00  0.00    -0.140 NA
HETATM    7  N   UNL     1       6.484  26.033  51.175  1.00  0.00    -0.192 N 
HETATM    8  C   UNL     1       5.554  27.025  51.465  1.00  0.00     0.037 A 
HETATM    9  C   UNL     1       5.035  27.775  50.259  1.00  0.00     0.070 C 
HETATM   10  C   UNL     1       5.148  27.240  52.750  1.00  0.00     0.062 A 
HETATM   11  H   UNL     1       6.733  25.891  50.200  1.00  0.00     0.184 HD
ENDROOT
BRANCH  10  12
HETATM   12  C   UNL     1       4.177  28.353  53.062  1.00  0.00     0.256 C 
HETATM   13  N   UNL     1       4.728  29.592  53.328  1.00  0.00    -0.323 N 
HETATM   14  H   UNL     1       5.662  29.772  52.992  1.00  0.00     0.169 HD
HETATM   15  O   UNL     1       2.968  28.149  52.971  1.00  0.00    -0.267 OA
BRANCH  13  16
HETATM   16  C   UNL     1       3.962  30.771  53.514  1.00  0.00     0.041 A 
HETATM   17  C   UNL     1       3.392  31.171  54.734  1.00  0.00    -0.035 A 
HETATM   18  C   UNL     1       3.612  30.461  56.041  1.00  0.00     0.050 C 
HETATM   19  C   UNL     1       2.592  32.331  54.758  1.00  0.00     0.009 A 
HETATM   20  C   UNL     1       2.406  33.105  53.612  1.00  0.00     0.001 A 
HETATM   21  C   UNL     1       3.028  32.739  52.425  1.00  0.00     0.002 A 
HETATM   22  C   UNL     1       3.811  31.586  52.379  1.00  0.00     0.030 A 
ENDBRANCH  13  16
ENDBRANCH  10  12
BRANCH   1  23
HETATM   23  C   UNL     1       6.310  27.146  55.062  1.00  0.00    -0.028 A 
HETATM   24  C   UNL     1       7.539  27.823  54.974  1.00  0.00     0.016 A 
HETATM   25  C   UNL     1       8.017  28.589  56.046  1.00  0.00    -0.061 A 
HETATM   26  C   UNL     1       9.280  29.388  55.906  1.00  0.00     0.048 C 
HETATM   27  C   UNL     1       7.268  28.663  57.225  1.00  0.00     0.007 A 
HETATM   28  C   UNL     1       6.070  27.964  57.343  1.00  0.00     0.001 A 
HETATM   29  C   UNL     1       5.594  27.213  56.271  1.00  0.00     0.010 A 
ENDBRANCH   1  23
BRANCH   5  30
HETATM   30  C   UNL     1       8.720  22.521  53.605  1.00  0.00     0.085 C 
BRANCH  30  31
HETATM   31  C   UNL     1       7.958  21.199  53.523  1.00  0.00     0.034 C 
BRANCH  31  32
HETATM   32  C   UNL     1       8.043  20.343  54.784  1.00  0.00     0.164 C 
BRANCH  32  33
HETATM   33  O   UNL     1       9.056  19.355  54.665  1.00  0.00    -0.401 OA
HETATM   34  H   UNL     1       9.174  19.190  53.709  1.00  0.00     0.209 HD
ENDBRANCH  32  33
ENDBRANCH  31  32
ENDBRANCH  30  31
ENDBRANCH   5  30
TORSDOF 7
ENDMDL
MODEL 6
REMARK VINA RESULT:      -8.3      2.984      6.714
REMARK  7 active torsions:
REMARK  status: ('A' for Active; 'I' for Inactive)
REMARK    1  A    between atoms: C_4  and  C_5 
REMARK    2  A    between atoms: C_9  and  C_10 
REMARK    3  A    between atoms: C_10  and  C_11 
REMARK    4  A    between atoms: C_11  and  C_12 
REMARK    5  A    between atoms: C_12  and  O_13 
REMARK    6  A    between atoms: C_18  and  C_19 
REMARK       I    between atoms: C_19  and  N_20 
REMARK    7  A    between atoms: N_20  and  C_21 
ROOT
HETATM    1  C   UNL     1       6.482  27.465  56.431  1.00  0.00     0.202 A 
HETATM    2  N   UNL     1       7.065  26.221  55.913  1.00  0.00    -0.083 N 
HETATM    3  C   UNL     1       6.707  25.646  54.729  1.00  0.00     0.726 A 
HETATM    4  N   UNL     1       7.330  24.506  54.585  1.00  0.00    -0.046 NA
HETATM    5  C   UNL     1       8.037  24.392  55.755  1.00  0.00     0.166 A 
HETATM    6  N   UNL     1       7.899  25.416  56.614  1.00  0.00    -0.140 NA
HETATM    7  N   UNL     1       5.807  26.263  53.950  1.00  0.00    -0.192 N 
HETATM    8  C   UNL     1       5.150  27.437  54.303  1.00  0.00     0.037 A 
HETATM    9  C   UNL     1       4.105  27.898  53.313  1.00  0.00     0.070 C 
HETATM   10  C   UNL     1       5.438  28.063  55.481  1.00  0.00     0.062 A 
HETATM   11  H   UNL     1       5.536  25.817  53.077  1.00  0.00     0.184 HD
ENDROOT
BRANCH  10  12
HETATM   12  C   UNL     1       4.758  29.364  55.834  1.00  0.00     0.256 C 
HETATM   13  N   UNL     1       5.397  30.521  55.426  1.00  0.00    -0.323 N 
HETATM   14  H   UNL     1       6.061  30.448  54.671  1.00  0.00     0.169 HD
HETATM   15  O   UNL     1       3.649  29.347  56.361  1.00  0.00    -0.267 OA
BRANCH  13  16
HETATM   16  C   UNL     1       4.838  31.817  55.561  1.00  0.00     0.041 A 
HETATM   17  C   UNL     1       4.919  32.607  56.719  1.00  0.00    -0.035 A 
HETATM   18  C   UNL     1       5.710  32.233  57.942  1.00  0.00     0.050 C 
HETATM   19  C   UNL     1       4.255  33.849  56.738  1.00  0.00     0.009 A 
HETATM   20  C   UNL     1       3.571  34.320  55.616  1.00  0.00     0.001 A 
HETATM   21  C   UNL     1       3.552  33.563  54.452  1.00  0.00     0.002 A 
HETATM   22  C   UNL     1       4.192  32.324  54.420  1.00  0.00     0.030 A 
ENDBRANCH  13  16
ENDBRANCH  10  12
BRANCH   1  23
HETATM   23  C   UNL     1       7.595  28.421  56.868  1.00  0.00    -0.028 A 
HETATM   24  C   UNL     1       7.615  29.032  58.134  1.00  0.00     0.016 A 
HETATM   25  C   UNL     1       8.695  29.834  58.529  1.00  0.00    -0.061 A 
HETATM   26  C   UNL     1       8.753  30.400  59.919  1.00  0.00     0.048 C 
HETATM   27  C   UNL     1       9.755  30.044  57.643  1.00  0.00     0.007 A 
HETATM   28  C   UNL     1       9.731  29.480  56.370  1.00  0.00     0.001 A 
HETATM   29  C   UNL     1       8.661  28.675  55.985  1.00  0.00     0.010 A 
ENDBRANCH   1  23
BRANCH   5  30
HETATM   30  C   UNL     1       8.931  23.240  56.033  1.00  0.00     0.085 C 
BRANCH  30  31
HETATM   31  C   UNL     1       8.671  22.048  55.112  1.00  0.00     0.034 C 
BRANCH  31  32
HETATM   32  C   UNL     1       9.022  20.694  55.721  1.00  0.00     0.164 C 
BRANCH  32  33
HETATM   33  O   UNL     1       8.958  19.662  54.747  1.00  0.00    -0.401 OA
HETATM   34  H   UNL     1       8.915  20.104  53.876  1.00  0.00     0.209 HD
ENDBRANCH  32  33
ENDBRANCH  31  32
ENDBRANCH  30  31
ENDBRANCH   5  30
TORSDOF 7
ENDMDL
MODEL 7
REMARK VINA RESULT:      -8.1      3.936      7.629
REMARK  7 active torsions:
REMARK  status: ('A' for Active; 'I' for Inactive)
REMARK    1  A    between atoms: C_4  and  C_5 
REMARK    2  A    between atoms: C_9  and  C_10 
REMARK    3  A    between atoms: C_10  and  C_11 
REMARK    4  A    between atoms: C_11  and  C_12 
REMARK    5  A    between atoms: C_12  and  O_13 
REMARK    6  A    between atoms: C_18  and  C_19 
REMARK       I    between atoms: C_19  and  N_20 
REMARK    7  A    between atoms: N_20  and  C_21 
ROOT
HETATM    1  C   UNL     1       5.884  28.107  51.589  1.00  0.00     0.202 A 
HETATM    2  N   UNL     1       5.556  29.264  50.747  1.00  0.00    -0.083 N 
HETATM    3  C   UNL     1       4.858  29.183  49.577  1.00  0.00     0.726 A 
HETATM    4  N   UNL     1       4.804  30.360  49.011  1.00  0.00    -0.046 NA
HETATM    5  C   UNL     1       5.544  31.143  49.861  1.00  0.00     0.166 A 
HETATM    6  N   UNL     1       6.040  30.514  50.939  1.00  0.00    -0.140 NA
HETATM    7  N   UNL     1       4.389  27.991  49.178  1.00  0.00    -0.192 N 
HETATM    8  C   UNL     1       4.628  26.799  49.853  1.00  0.00     0.037 A 
HETATM    9  C   UNL     1       4.084  25.566  49.167  1.00  0.00     0.070 C 
HETATM   10  C   UNL     1       5.334  26.794  51.020  1.00  0.00     0.062 A 
HETATM   11  H   UNL     1       3.885  27.941  48.296  1.00  0.00     0.184 HD
ENDROOT
BRANCH  10  12
HETATM   12  C   UNL     1       5.544  25.502  51.773  1.00  0.00     0.256 C 
HETATM   13  N   UNL     1       6.795  25.314  52.332  1.00  0.00    -0.323 N 
HETATM   14  H   UNL     1       7.363  26.130  52.495  1.00  0.00     0.169 HD
HETATM   15  O   UNL     1       4.598  24.738  51.946  1.00  0.00    -0.267 OA
BRANCH  13  16
HETATM   16  C   UNL     1       7.123  24.223  53.176  1.00  0.00     0.041 A 
HETATM   17  C   UNL     1       6.814  24.149  54.545  1.00  0.00    -0.035 A 
HETATM   18  C   UNL     1       5.992  25.170  55.281  1.00  0.00     0.050 C 
HETATM   19  C   UNL     1       7.266  23.035  55.280  1.00  0.00     0.009 A 
HETATM   20  C   UNL     1       7.958  21.994  54.662  1.00  0.00     0.001 A 
HETATM   21  C   UNL     1       8.201  22.042  53.295  1.00  0.00     0.002 A 
HETATM   22  C   UNL     1       7.775  23.145  52.554  1.00  0.00     0.030 A 
ENDBRANCH  13  16
ENDBRANCH  10  12
BRANCH   1  23
HETATM   23  C   UNL     1       5.510  28.398  53.044  1.00  0.00    -0.028 A 
HETATM   24  C   UNL     1       6.471  28.536  54.061  1.00  0.00     0.016 A 
HETATM   25  C   UNL     1       6.096  28.888  55.364  1.00  0.00    -0.061 A 
HETATM   26  C   UNL     1       7.139  29.129  56.417  1.00  0.00     0.048 C 
HETATM   27  C   UNL     1       4.744  29.084  55.661  1.00  0.00     0.007 A 
HETATM   28  C   UNL     1       3.775  28.910  54.676  1.00  0.00     0.001 A 
HETATM   29  C   UNL     1       4.154  28.572  53.379  1.00  0.00     0.010 A 
ENDBRANCH   1  23
BRANCH   5  30
HETATM   30  C   UNL     1       5.741  32.596  49.631  1.00  0.00     0.085 C 
BRANCH  30  31
HETATM   31  C   UNL     1       6.533  32.896  48.358  1.00  0.00     0.034 C 
BRANCH  31  32
HETATM   32  C   UNL     1       5.673  33.271  47.155  1.00  0.00     0.164 C 
BRANCH  32  33
HETATM   33  O   UNL     1       5.256  32.115  46.443  1.00  0.00    -0.401 OA
HETATM   34  H   UNL     1       4.357  31.901  46.760  1.00  0.00     0.209 HD
ENDBRANCH  32  33
ENDBRANCH  31  32
ENDBRANCH  30  31
ENDBRANCH   5  30
TORSDOF 7
ENDMDL
MODEL 8
REMARK VINA RESULT:      -8.1      2.729      5.782
REMARK  7 active torsions:
REMARK  status: ('A' for Active; 'I' for Inactive)
REMARK    1  A    between atoms: C_4  and  C_5 
REMARK    2  A    between atoms: C_9  and  C_10 
REMARK    3  A    between atoms: C_10  and  C_11 
REMARK    4  A    between atoms: C_11  and  C_12 
REMARK    5  A    between atoms: C_12  and  O_13 
REMARK    6  A    between atoms: C_18  and  C_19 
REMARK       I    between atoms: C_19  and  N_20 
REMARK    7  A    between atoms: N_20  and  C_21 
ROOT
HETATM    1  C   UNL     1       4.948  27.871  54.712  1.00  0.00     0.202 A 
HETATM    2  N   UNL     1       4.833  29.313  54.962  1.00  0.00    -0.083 N 
HETATM    3  C   UNL     1       5.625  30.001  55.835  1.00  0.00     0.726 A 
HETATM    4  N   UNL     1       5.226  31.243  55.909  1.00  0.00    -0.046 NA
HETATM    5  C   UNL     1       4.128  31.262  55.085  1.00  0.00     0.166 A 
HETATM    6  N   UNL     1       3.836  30.096  54.487  1.00  0.00    -0.140 NA
HETATM    7  N   UNL     1       6.607  29.351  56.477  1.00  0.00    -0.192 N 
HETATM    8  C   UNL     1       6.835  27.984  56.363  1.00  0.00     0.037 A 
HETATM    9  C   UNL     1       7.935  27.452  57.254  1.00  0.00     0.070 C 
HETATM   10  C   UNL     1       6.074  27.222  55.526  1.00  0.00     0.062 A 
HETATM   11  H   UNL     1       7.180  29.871  57.137  1.00  0.00     0.184 HD
ENDROOT
BRANCH  10  12
HETATM   12  C   UNL     1       6.362  25.749  55.369  1.00  0.00     0.256 C 
HETATM   13  N   UNL     1       7.443  25.415  54.575  1.00  0.00    -0.323 N 
HETATM   14  H   UNL     1       8.148  26.120  54.423  1.00  0.00     0.169 HD
HETATM   15  O   UNL     1       5.710  24.930  56.013  1.00  0.00    -0.267 OA
BRANCH  13  16
HETATM   16  C   UNL     1       7.930  24.092  54.424  1.00  0.00     0.041 A 
HETATM   17  C   UNL     1       8.726  23.419  55.367  1.00  0.00    -0.035 A 
HETATM   18  C   UNL     1       9.077  23.971  56.721  1.00  0.00     0.050 C 
HETATM   19  C   UNL     1       9.200  22.130  55.054  1.00  0.00     0.009 A 
HETATM   20  C   UNL     1       8.850  21.502  53.859  1.00  0.00     0.001 A 
HETATM   21  C   UNL     1       8.008  22.146  52.962  1.00  0.00     0.002 A 
HETATM   22  C   UNL     1       7.541  23.429  53.248  1.00  0.00     0.030 A 
ENDBRANCH  13  16
ENDBRANCH  10  12
BRANCH   1  23
HETATM   23  C   UNL     1       4.990  27.604  53.206  1.00  0.00    -0.028 A 
HETATM   24  C   UNL     1       5.265  28.612  52.265  1.00  0.00     0.016 A 
HETATM   25  C   UNL     1       5.380  28.313  50.900  1.00  0.00    -0.061 A 
HETATM   26  C   UNL     1       5.772  29.378  49.918  1.00  0.00     0.048 C 
HETATM   27  C   UNL     1       5.197  26.995  50.469  1.00  0.00     0.007 A 
HETATM   28  C   UNL     1       4.882  25.992  51.382  1.00  0.00     0.001 A 
HETATM   29  C   UNL     1       4.780  26.293  52.738  1.00  0.00     0.010 A 
ENDBRANCH   1  23
BRANCH   5  30
HETATM   30  C   UNL     1       3.347  32.499  54.835  1.00  0.00     0.085 C 
BRANCH  30  31
HETATM   31  C   UNL     1       4.228  33.737  54.662  1.00  0.00     0.034 C 
BRANCH  31  32
HETATM   32  C   UNL     1       4.274  34.653  55.881  1.00  0.00     0.164 C 
BRANCH  32  33
HETATM   33  O   UNL     1       5.258  34.221  56.810  1.00  0.00    -0.401 OA
HETATM   34  H   UNL     1       6.080  34.702  56.588  1.00  0.00     0.209 HD
ENDBRANCH  32  33
ENDBRANCH  31  32
ENDBRANCH  30  31
ENDBRANCH   5  30
TORSDOF 7
ENDMDL
MODEL 9
REMARK VINA RESULT:      -7.9      3.444      7.859
REMARK  7 active torsions:
REMARK  status: ('A' for Active; 'I' for Inactive)
REMARK    1  A    between atoms: C_4  and  C_5 
REMARK    2  A    between atoms: C_9  and  C_10 
REMARK    3  A    between atoms: C_10  and  C_11 
REMARK    4  A    between atoms: C_11  and  C_12 
REMARK    5  A    between atoms: C_12  and  O_13 
REMARK    6  A    between atoms: C_18  and  C_19 
REMARK       I    between atoms: C_19  and  N_20 
REMARK    7  A    between atoms: N_20  and  C_21 
ROOT
HETATM    1  C   UNL     1       6.614  28.968  57.617  1.00  0.00     0.202 A 
HETATM    2  N   UNL     1       6.553  27.700  56.879  1.00  0.00    -0.083 N 
HETATM    3  C   UNL     1       5.569  27.382  55.989  1.00  0.00     0.726 A 
HETATM    4  N   UNL     1       5.735  26.157  55.564  1.00  0.00    -0.046 NA
HETATM    5  C   UNL     1       6.828  25.732  56.276  1.00  0.00     0.166 A 
HETATM    6  N   UNL     1       7.363  26.639  57.109  1.00  0.00    -0.140 NA
HETATM    7  N   UNL     1       4.617  28.287  55.718  1.00  0.00    -0.192 N 
HETATM    8  C   UNL     1       4.524  29.525  56.344  1.00  0.00     0.037 A 
HETATM    9  C   UNL     1       3.313  30.341  55.951  1.00  0.00     0.070 C 
HETATM   10  C   UNL     1       5.458  29.909  57.260  1.00  0.00     0.062 A 
HETATM   11  H   UNL     1       3.880  28.033  55.065  1.00  0.00     0.184 HD
ENDROOT
BRANCH  10  12
HETATM   12  C   UNL     1       5.379  31.276  57.897  1.00  0.00     0.256 C 
HETATM   13  N   UNL     1       4.847  31.329  59.172  1.00  0.00    -0.323 N 
HETATM   14  H   UNL     1       4.851  30.481  59.717  1.00  0.00     0.169 HD
HETATM   15  O   UNL     1       5.868  32.245  57.321  1.00  0.00    -0.267 OA
BRANCH  13  16
HETATM   16  C   UNL     1       4.817  32.506  59.963  1.00  0.00     0.041 A 
HETATM   17  C   UNL     1       5.779  32.846  60.929  1.00  0.00    -0.035 A 
HETATM   18  C   UNL     1       7.038  32.062  61.178  1.00  0.00     0.050 C 
HETATM   19  C   UNL     1       5.584  34.012  61.695  1.00  0.00     0.009 A 
HETATM   20  C   UNL     1       4.491  34.850  61.471  1.00  0.00     0.001 A 
HETATM   21  C   UNL     1       3.581  34.543  60.469  1.00  0.00     0.002 A 
HETATM   22  C   UNL     1       3.749  33.383  59.711  1.00  0.00     0.030 A 
ENDBRANCH  13  16
ENDBRANCH  10  12
BRANCH   1  23
HETATM   23  C   UNL     1       8.014  29.574  57.498  1.00  0.00    -0.028 A 
HETATM   24  C   UNL     1       8.551  30.438  58.469  1.00  0.00     0.016 A 
HETATM   25  C   UNL     1       9.868  30.906  58.368  1.00  0.00    -0.061 A 
HETATM   26  C   UNL     1      10.462  31.748  59.460  1.00  0.00     0.048 C 
HETATM   27  C   UNL     1      10.652  30.520  57.276  1.00  0.00     0.007 A 
HETATM   28  C   UNL     1      10.123  29.698  56.285  1.00  0.00     0.001 A 
HETATM   29  C   UNL     1       8.816  29.228  56.395  1.00  0.00     0.010 A 
ENDBRANCH   1  23
BRANCH   5  30
HETATM   30  C   UNL     1       7.410  24.377  56.101  1.00  0.00     0.085 C 
BRANCH  30  31
HETATM   31  C   UNL     1       7.076  23.755  54.745  1.00  0.00     0.034 C 
BRANCH  31  32
HETATM   32  C   UNL     1       7.702  22.384  54.509  1.00  0.00     0.164 C 
BRANCH  32  33
HETATM   33  O   UNL     1       7.524  21.539  55.637  1.00  0.00    -0.401 OA
HETATM   34  H   UNL     1       7.715  22.083  56.426  1.00  0.00     0.209 HD
ENDBRANCH  32  33
ENDBRANCH  31  32
ENDBRANCH  30  31
ENDBRANCH   5  30
TORSDOF 7
ENDMDL
MODEL 10
REMARK VINA RESULT:      -7.8      4.590      7.324
REMARK  7 active torsions:
REMARK  status: ('A' for Active; 'I' for Inactive)
REMARK    1  A    between atoms: C_4  and  C_5 
REMARK    2  A    between atoms: C_9  and  C_10 
REMARK    3  A    between atoms: C_10  and  C_11 
REMARK    4  A    between atoms: C_11  and  C_12 
REMARK    5  A    between atoms: C_12  and  O_13 
REMARK    6  A    between atoms: C_18  and  C_19 
REMARK       I    between atoms: C_19  and  N_20 
REMARK    7  A    between atoms: N_20  and  C_21 
ROOT
HETATM    1  C   UNL     1       5.719  27.586  51.545  1.00  0.00     0.202 A 
HETATM    2  N   UNL     1       6.116  26.329  52.191  1.00  0.00    -0.083 N 
HETATM    3  C   UNL     1       5.706  25.948  53.436  1.00  0.00     0.726 A 
HETATM    4  N   UNL     1       6.296  24.832  53.774  1.00  0.00    -0.046 NA
HETATM    5  C   UNL     1       7.118  24.583  52.704  1.00  0.00     0.166 A 
HETATM    6  N   UNL     1       7.055  25.481  51.707  1.00  0.00    -0.140 NA
HETATM    7  N   UNL     1       4.848  26.730  54.108  1.00  0.00    -0.192 N 
HETATM    8  C   UNL     1       4.391  27.958  53.642  1.00  0.00     0.037 A 
HETATM    9  C   UNL     1       3.506  28.710  54.611  1.00  0.00     0.070 C 
HETATM   10  C   UNL     1       4.770  28.418  52.415  1.00  0.00     0.062 A 
HETATM   11  H   UNL     1       4.562  26.444  55.041  1.00  0.00     0.184 HD
ENDROOT
BRANCH  10  12
HETATM   12  C   UNL     1       4.229  29.728  51.896  1.00  0.00     0.256 C 
HETATM   13  N   UNL     1       5.045  30.834  52.047  1.00  0.00    -0.323 N 
HETATM   14  H   UNL     1       6.032  30.673  52.177  1.00  0.00     0.169 HD
HETATM   15  O   UNL     1       3.163  29.746  51.284  1.00  0.00    -0.267 OA
BRANCH  13  16
HETATM   16  C   UNL     1       4.750  32.110  51.505  1.00  0.00     0.041 A 
HETATM   17  C   UNL     1       5.268  32.606  50.297  1.00  0.00    -0.035 A 
HETATM   18  C   UNL     1       6.122  31.804  49.353  1.00  0.00     0.050 C 
HETATM   19  C   UNL     1       4.946  33.922  49.913  1.00  0.00     0.009 A 
HETATM   20  C   UNL     1       4.088  34.709  50.681  1.00  0.00     0.001 A 
HETATM   21  C   UNL     1       3.525  34.188  51.839  1.00  0.00     0.002 A 
HETATM   22  C   UNL     1       3.844  32.892  52.242  1.00  0.00     0.030 A 
ENDBRANCH  13  16
ENDBRANCH  10  12
BRANCH   1  23
HETATM   23  C   UNL     1       5.230  27.308  50.122  1.00  0.00    -0.028 A 
HETATM   24  C   UNL     1       4.433  26.196  49.797  1.00  0.00     0.016 A 
HETATM   25  C   UNL     1       3.933  26.021  48.500  1.00  0.00    -0.061 A 
HETATM   26  C   UNL     1       3.003  24.884  48.190  1.00  0.00     0.048 C 
HETATM   27  C   UNL     1       4.249  26.958  47.510  1.00  0.00     0.007 A 
HETATM   28  C   UNL     1       5.071  28.043  47.805  1.00  0.00     0.001 A 
HETATM   29  C   UNL     1       5.556  28.218  49.098  1.00  0.00     0.010 A 
ENDBRANCH   1  23
BRANCH   5  30
HETATM   30  C   UNL     1       7.982  23.378  52.631  1.00  0.00     0.085 C 
BRANCH  30  31
HETATM   31  C   UNL     1       7.581  22.295  53.633  1.00  0.00     0.034 C 
BRANCH  31  32
HETATM   32  C   UNL     1       8.468  21.054  53.608  1.00  0.00     0.164 C 
BRANCH  32  33
HETATM   33  O   UNL     1       7.992  20.103  52.667  1.00  0.00    -0.401 OA
HETATM   34  H   UNL     1       8.708  19.973  52.015  1.00  0.00     0.209 HD
ENDBRANCH  32  33
ENDBRANCH  31  32
ENDBRANCH  30  31
ENDBRANCH   5  30
TORSDOF 7
ENDMDL
