MODEL 1
REMARK VINA RESULT:      -9.2      0.000      0.000
REMARK  4 active torsions:
REMARK  status: ('A' for Active; 'I' for Inactive)
REMARK    1  A    between atoms: C_2  and  C_3 
REMARK    2  A    between atoms: C_3  and  C_4 
REMARK       I    between atoms: C_4  and  N_5 
REMARK    3  A    between atoms: N_5  and  C_6 
REMARK    4  A    between atoms: C_13  and  C_14 
REMARK       I    between atoms: C_14  and  N_15 
ROOT
HETATM    1  C   UNL     1       4.706  26.752  53.311  1.00  0.00     0.035 A 
HETATM    2  C   UNL     1       4.839  27.928  52.574  1.00  0.00     0.046 A 
HETATM    3  C   UNL     1       5.061  27.868  51.179  1.00  0.00     0.030 A 
HETATM    4  C   UNL     1       5.096  26.629  50.557  1.00  0.00     0.063 A 
HETATM    5  N   UNL     1       5.336  26.893  49.237  1.00  0.00    -0.277 N 
HETATM    6  H   UNL     1       5.427  26.222  48.482  1.00  0.00     0.189 HD
HETATM    7  N   UNL     1       5.499  28.198  48.951  1.00  0.00    -0.168 NA
HETATM    8  C   UNL     1       5.330  28.812  50.144  1.00  0.00     0.156 A 
HETATM    9  C   UNL     1       4.930  25.430  51.248  1.00  0.00     0.034 A 
HETATM   10  C   UNL     1       4.757  25.521  52.638  1.00  0.00     0.032 A 
ENDROOT
BRANCH   1  11
HETATM   11  N   UNL     1       4.646  26.695  54.711  1.00  0.00    -0.326 N 
HETATM   12  C   UNL     1       5.459  26.185  55.696  1.00  0.00     0.235 C 
HETATM   13  O   UNL     1       4.979  26.053  56.824  1.00  0.00    -0.272 OA
HETATM   14  H   UNL     1       3.797  27.059  55.128  1.00  0.00     0.169 HD
BRANCH  12  15
HETATM   15  C   UNL     1       6.943  25.976  55.506  1.00  0.00     0.068 A 
HETATM   16  C   UNL     1       7.964  26.757  56.325  1.00  0.00     0.026 A 
HETATM   17  C   UNL     1       7.708  27.196  54.932  1.00  0.00     0.026 A 
BRANCH  15  18
HETATM   18  C   UNL     1       7.323  24.652  54.827  1.00  0.00    -0.040 A 
HETATM   19  C   UNL     1       7.232  23.438  55.541  1.00  0.00     0.010 A 
HETATM   20  C   UNL     1       7.575  22.214  54.961  1.00  0.00     0.024 A 
HETATM   21  C   UNL     1       8.030  22.183  53.649  1.00  0.00     0.034 A 
HETATM   22  C   UNL     1       8.140  23.364  52.918  1.00  0.00     0.024 A 
HETATM   23 CL   UNL     1       8.459  20.682  52.927  1.00  0.00    -0.084 Cl
HETATM   24  C   UNL     1       7.788  24.586  53.504  1.00  0.00     0.010 A 
ENDBRANCH  15  18
ENDBRANCH  12  15
ENDBRANCH   1  11
BRANCH   8  25
HETATM   25  C   UNL     1       5.463  30.269  50.284  1.00  0.00     0.270 C 
HETATM   26  N   UNL     1       4.302  30.909  50.624  1.00  0.00    -0.365 N 
HETATM   27  H   UNL     1       3.457  30.358  50.731  1.00  0.00     0.159 HD
HETATM   28  H   UNL     1       4.286  31.913  50.699  1.00  0.00     0.159 HD
HETATM   29  O   UNL     1       6.505  30.889  50.102  1.00  0.00    -0.266 OA
ENDBRANCH   8  25
TORSDOF 4
ENDMDL
MODEL 2
REMARK VINA RESULT:      -9.1      3.038      4.872
REMARK  4 active torsions:
REMARK  status: ('A' for Active; 'I' for Inactive)
REMARK    1  A    between atoms: C_2  and  C_3 
REMARK    2  A    between atoms: C_3  and  C_4 
REMARK       I    between atoms: C_4  and  N_5 
REMARK    3  A    between atoms: N_5  and  C_6 
REMARK    4  A    between atoms: C_13  and  C_14 
REMARK       I    between atoms: C_14  and  N_15 
ROOT
HETATM    1  C   UNL     1       4.771  27.082  54.292  1.00  0.00     0.035 A 
HETATM    2  C   UNL     1       5.741  27.196  55.288  1.00  0.00     0.046 A 
HETATM    3  C   UNL     1       6.066  28.465  55.817  1.00  0.00     0.030 A 
HETATM    4  C   UNL     1       5.376  29.579  55.364  1.00  0.00     0.063 A 
HETATM    5  N   UNL     1       5.916  30.639  56.040  1.00  0.00    -0.277 N 
HETATM    6  H   UNL     1       5.654  31.616  55.961  1.00  0.00     0.189 HD
HETATM    7  N   UNL     1       6.926  30.315  56.866  1.00  0.00    -0.168 NA
HETATM    8  C   UNL     1       7.030  28.973  56.739  1.00  0.00     0.156 A 
HETATM    9  C   UNL     1       4.373  29.507  54.399  1.00  0.00     0.034 A 
HETATM   10  C   UNL     1       4.104  28.239  53.860  1.00  0.00     0.032 A 
ENDROOT
BRANCH   1  11
HETATM   11  N   UNL     1       4.489  25.902  53.588  1.00  0.00    -0.326 N 
HETATM   12  C   UNL     1       5.229  25.023  52.833  1.00  0.00     0.235 C 
HETATM   13  O   UNL     1       4.618  24.227  52.117  1.00  0.00    -0.272 OA
HETATM   14  H   UNL     1       3.513  25.628  53.567  1.00  0.00     0.169 HD
BRANCH  12  15
HETATM   15  C   UNL     1       6.722  24.861  52.995  1.00  0.00     0.068 A 
HETATM   16  C   UNL     1       7.667  26.050  52.859  1.00  0.00     0.026 A 
HETATM   17  C   UNL     1       7.551  25.118  51.710  1.00  0.00     0.026 A 
BRANCH  15  18
HETATM   18  C   UNL     1       7.153  23.594  53.748  1.00  0.00    -0.040 A 
HETATM   19  C   UNL     1       7.206  23.591  55.157  1.00  0.00     0.010 A 
HETATM   20  C   UNL     1       7.599  22.460  55.878  1.00  0.00     0.024 A 
HETATM   21  C   UNL     1       7.962  21.306  55.194  1.00  0.00     0.034 A 
HETATM   22  C   UNL     1       7.930  21.278  53.803  1.00  0.00     0.024 A 
HETATM   23 CL   UNL     1       8.452  19.911  56.072  1.00  0.00    -0.084 Cl
HETATM   24  C   UNL     1       7.528  22.413  53.087  1.00  0.00     0.010 A 
ENDBRANCH  15  18
ENDBRANCH  12  15
ENDBRANCH   1  11
BRANCH   8  25
HETATM   25  C   UNL     1       8.056  28.209  57.461  1.00  0.00     0.270 C 
HETATM   26  N   UNL     1       9.340  28.596  57.190  1.00  0.00    -0.365 N 
HETATM   27  H   UNL     1       9.491  29.342  56.518  1.00  0.00     0.159 HD
HETATM   28  H   UNL     1      10.112  28.100  57.605  1.00  0.00     0.159 HD
HETATM   29  O   UNL     1       7.816  27.286  58.233  1.00  0.00    -0.266 OA
ENDBRANCH   8  25
TORSDOF 4
ENDMDL
MODEL 3
REMARK VINA RESULT:      -9.1      3.274      4.763
REMARK  4 active torsions:
REMARK  status: ('A' for Active; 'I' for Inactive)
REMARK    1  A    between atoms: C_2  and  C_3 
REMARK    2  A    between atoms: C_3  and  C_4 
REMARK       I    between atoms: C_4  and  N_5 
REMARK    3  A    between atoms: N_5  and  C_6 
REMARK    4  A    between atoms: C_13  and  C_14 
REMARK       I    between atoms: C_14  and  N_15 
ROOT
HETATM    1  C   UNL     1       5.463  26.978  55.486  1.00  0.00     0.035 A 
HETATM    2  C   UNL     1       5.129  28.331  55.445  1.00  0.00     0.046 A 
HETATM    3  C   UNL     1       5.648  29.218  56.416  1.00  0.00     0.030 A 
HETATM    4  C   UNL     1       6.525  28.729  57.372  1.00  0.00     0.063 A 
HETATM    5  N   UNL     1       6.835  29.802  58.161  1.00  0.00    -0.277 N 
HETATM    6  H   UNL     1       7.454  29.815  58.965  1.00  0.00     0.189 HD
HETATM    7  N   UNL     1       6.205  30.941  57.825  1.00  0.00    -0.168 NA
HETATM    8  C   UNL     1       5.467  30.594  56.746  1.00  0.00     0.156 A 
HETATM    9  C   UNL     1       6.917  27.392  57.427  1.00  0.00     0.034 A 
HETATM   10  C   UNL     1       6.349  26.528  56.477  1.00  0.00     0.032 A 
ENDROOT
BRANCH   1  11
HETATM   11  N   UNL     1       4.881  25.991  54.676  1.00  0.00    -0.326 N 
HETATM   12  C   UNL     1       5.305  25.243  53.604  1.00  0.00     0.235 C 
HETATM   13  O   UNL     1       4.448  24.656  52.940  1.00  0.00    -0.272 OA
HETATM   14  H   UNL     1       3.904  25.793  54.862  1.00  0.00     0.169 HD
BRANCH  12  15
HETATM   15  C   UNL     1       6.762  24.951  53.334  1.00  0.00     0.068 A 
HETATM   16  C   UNL     1       7.749  26.071  53.022  1.00  0.00     0.026 A 
HETATM   17  C   UNL     1       7.235  25.261  51.890  1.00  0.00     0.026 A 
BRANCH  15  18
HETATM   18  C   UNL     1       7.252  23.591  53.851  1.00  0.00    -0.040 A 
HETATM   19  C   UNL     1       7.316  23.341  55.237  1.00  0.00     0.010 A 
HETATM   20  C   UNL     1       7.762  22.118  55.746  1.00  0.00     0.024 A 
HETATM   21  C   UNL     1       8.168  21.120  54.870  1.00  0.00     0.034 A 
HETATM   22  C   UNL     1       8.126  21.336  53.495  1.00  0.00     0.024 A 
HETATM   23 CL   UNL     1       8.723  19.614  55.486  1.00  0.00    -0.084 Cl
HETATM   24  C   UNL     1       7.671  22.561  52.992  1.00  0.00     0.010 A 
ENDBRANCH  15  18
ENDBRANCH  12  15
ENDBRANCH   1  11
BRANCH   8  25
HETATM   25  C   UNL     1       4.584  31.558  56.076  1.00  0.00     0.270 C 
HETATM   26  N   UNL     1       5.011  31.944  54.835  1.00  0.00    -0.365 N 
HETATM   27  H   UNL     1       5.886  31.570  54.484  1.00  0.00     0.159 HD
HETATM   28  H   UNL     1       4.493  32.637  54.319  1.00  0.00     0.159 HD
HETATM   29  O   UNL     1       3.554  32.011  56.567  1.00  0.00    -0.266 OA
ENDBRANCH   8  25
TORSDOF 4
ENDMDL
MODEL 4
REMARK VINA RESULT:      -8.8      1.706      2.717
REMARK  4 active torsions:
REMARK  status: ('A' for Active; 'I' for Inactive)
REMARK    1  A    between atoms: C_2  and  C_3 
REMARK    2  A    between atoms: C_3  and  C_4 
REMARK       I    between atoms: C_4  and  N_5 
REMARK    3  A    between atoms: N_5  and  C_6 
REMARK    4  A    between atoms: C_13  and  C_14 
REMARK       I    between atoms: C_14  and  N_15 
ROOT
HETATM    1  C   UNL     1       4.766  27.562  55.269  1.00  0.00     0.035 A 
HETATM    2  C   UNL     1       4.981  27.117  53.965  1.00  0.00     0.046 A 
HETATM    3  C   UNL     1       5.015  28.043  52.897  1.00  0.00     0.030 A 
HETATM    4  C   UNL     1       4.880  29.395  53.176  1.00  0.00     0.063 A 
HETATM    5  N   UNL     1       4.940  30.022  51.962  1.00  0.00    -0.277 N 
HETATM    6  H   UNL     1       4.876  31.018  51.781  1.00  0.00     0.189 HD
HETATM    7  N   UNL     1       5.064  29.192  50.912  1.00  0.00    -0.168 NA
HETATM    8  C   UNL     1       5.112  27.964  51.476  1.00  0.00     0.156 A 
HETATM    9  C   UNL     1       4.702  29.887  54.468  1.00  0.00     0.034 A 
HETATM   10  C   UNL     1       4.627  28.939  55.501  1.00  0.00     0.032 A 
ENDROOT
BRANCH   1  11
HETATM   11  N   UNL     1       4.553  26.720  56.371  1.00  0.00    -0.326 N 
HETATM   12  C   UNL     1       5.222  25.651  56.917  1.00  0.00     0.235 C 
HETATM   13  O   UNL     1       4.617  24.951  57.732  1.00  0.00    -0.272 OA
HETATM   14  H   UNL     1       3.688  26.872  56.877  1.00  0.00     0.169 HD
BRANCH  12  15
HETATM   15  C   UNL     1       6.702  25.423  56.717  1.00  0.00     0.068 A 
HETATM   16  C   UNL     1       7.723  25.908  57.740  1.00  0.00     0.026 A 
HETATM   17  C   UNL     1       7.540  26.710  56.505  1.00  0.00     0.026 A 
BRANCH  15  18
HETATM   18  C   UNL     1       7.051  24.305  55.724  1.00  0.00    -0.040 A 
HETATM   19  C   UNL     1       7.662  23.118  56.179  1.00  0.00     0.010 A 
HETATM   20  C   UNL     1       8.001  22.081  55.306  1.00  0.00     0.024 A 
HETATM   21  C   UNL     1       7.744  22.220  53.948  1.00  0.00     0.034 A 
HETATM   22  C   UNL     1       7.150  23.382  53.463  1.00  0.00     0.024 A 
HETATM   23 CL   UNL     1       8.162  20.952  52.864  1.00  0.00    -0.084 Cl
HETATM   24  C   UNL     1       6.807  24.414  54.345  1.00  0.00     0.010 A 
ENDBRANCH  15  18
ENDBRANCH  12  15
ENDBRANCH   1  11
BRANCH   8  25
HETATM   25  C   UNL     1       5.213  26.746  50.660  1.00  0.00     0.270 C 
HETATM   26  N   UNL     1       6.261  25.932  50.992  1.00  0.00    -0.365 N 
HETATM   27  H   UNL     1       6.887  26.223  51.736  1.00  0.00     0.159 HD
HETATM   28  H   UNL     1       6.436  25.096  50.458  1.00  0.00     0.159 HD
HETATM   29  O   UNL     1       4.450  26.463  49.743  1.00  0.00    -0.266 OA
ENDBRANCH   8  25
TORSDOF 4
ENDMDL
MODEL 5
REMARK VINA RESULT:      -8.6      2.726      4.423
REMARK  4 active torsions:
REMARK  status: ('A' for Active; 'I' for Inactive)
REMARK    1  A    between atoms: C_2  and  C_3 
REMARK    2  A    between atoms: C_3  and  C_4 
REMARK       I    between atoms: C_4  and  N_5 
REMARK    3  A    between atoms: N_5  and  C_6 
REMARK    4  A    between atoms: C_13  and  C_14 
REMARK       I    between atoms: C_14  and  N_15 
ROOT
HETATM    1  C   UNL     1       4.161  27.446  53.397  1.00  0.00     0.035 A 
HETATM    2  C   UNL     1       4.422  27.902  54.689  1.00  0.00     0.046 A 
HETATM    3  C   UNL     1       4.639  29.279  54.922  1.00  0.00     0.030 A 
HETATM    4  C   UNL     1       4.541  30.164  53.860  1.00  0.00     0.063 A 
HETATM    5  N   UNL     1       4.810  31.397  54.390  1.00  0.00    -0.277 N 
HETATM    6  H   UNL     1       4.829  32.285  53.901  1.00  0.00     0.189 HD
HETATM    7  N   UNL     1       5.114  31.385  55.699  1.00  0.00    -0.168 NA
HETATM    8  C   UNL     1       5.012  30.080  56.042  1.00  0.00     0.156 A 
HETATM    9  C   UNL     1       4.243  29.758  52.560  1.00  0.00     0.034 A 
HETATM   10  C   UNL     1       4.078  28.379  52.352  1.00  0.00     0.032 A 
ENDROOT
BRANCH   1  11
HETATM   11  N   UNL     1       4.092  26.093  53.031  1.00  0.00    -0.326 N 
HETATM   12  C   UNL     1       5.014  25.137  52.678  1.00  0.00     0.235 C 
HETATM   13  O   UNL     1       4.597  24.109  52.141  1.00  0.00    -0.272 OA
HETATM   14  H   UNL     1       3.158  25.709  52.947  1.00  0.00     0.169 HD
BRANCH  12  15
HETATM   15  C   UNL     1       6.464  25.205  53.096  1.00  0.00     0.068 A 
HETATM   16  C   UNL     1       7.182  26.541  53.250  1.00  0.00     0.026 A 
HETATM   17  C   UNL     1       7.431  25.756  52.016  1.00  0.00     0.026 A 
BRANCH  15  18
HETATM   18  C   UNL     1       6.992  23.941  53.790  1.00  0.00    -0.040 A 
HETATM   19  C   UNL     1       7.455  22.852  53.023  1.00  0.00     0.010 A 
HETATM   20  C   UNL     1       7.937  21.683  53.619  1.00  0.00     0.024 A 
HETATM   21  C   UNL     1       7.952  21.577  55.004  1.00  0.00     0.034 A 
HETATM   22  C   UNL     1       7.494  22.630  55.791  1.00  0.00     0.024 A 
HETATM   23 CL   UNL     1       8.539  20.141  55.745  1.00  0.00    -0.084 Cl
HETATM   24  C   UNL     1       7.020  23.802  55.188  1.00  0.00     0.010 A 
ENDBRANCH  15  18
ENDBRANCH  12  15
ENDBRANCH   1  11
BRANCH   8  25
HETATM   25  C   UNL     1       5.302  29.619  57.407  1.00  0.00     0.270 C 
HETATM   26  N   UNL     1       4.319  29.901  58.316  1.00  0.00    -0.365 N 
HETATM   27  H   UNL     1       3.499  30.409  58.004  1.00  0.00     0.159 HD
HETATM   28  H   UNL     1       4.450  29.662  59.286  1.00  0.00     0.159 HD
HETATM   29  O   UNL     1       6.333  29.043  57.738  1.00  0.00    -0.266 OA
ENDBRANCH   8  25
TORSDOF 4
ENDMDL
MODEL 6
REMARK VINA RESULT:      -8.5      2.543      3.559
REMARK  4 active torsions:
REMARK  status: ('A' for Active; 'I' for Inactive)
REMARK    1  A    between atoms: C_2  and  C_3 
REMARK    2  A    between atoms: C_3  and  C_4 
REMARK       I    between atoms: C_4  and  N_5 
REMARK    3  A    between atoms: N_5  and  C_6 
REMARK    4  A    between atoms: C_13  and  C_14 
REMARK       I    between atoms: C_14  and  N_15 
ROOT
HETATM    1  C   UNL     1       5.036  26.652  51.566  1.00  0.00     0.035 A 
HETATM    2  C   UNL     1       4.481  25.953  50.494  1.00  0.00     0.046 A 
HETATM    3  C   UNL     1       4.416  26.554  49.216  1.00  0.00     0.030 A 
HETATM    4  C   UNL     1       4.953  27.820  49.040  1.00  0.00     0.063 A 
HETATM    5  N   UNL     1       4.729  28.129  47.726  1.00  0.00    -0.277 N 
HETATM    6  H   UNL     1       4.989  28.982  47.243  1.00  0.00     0.189 HD
HETATM    7  N   UNL     1       4.058  27.187  47.040  1.00  0.00    -0.168 NA
HETATM    8  C   UNL     1       3.858  26.207  47.949  1.00  0.00     0.156 A 
HETATM    9  C   UNL     1       5.551  28.539  50.074  1.00  0.00     0.034 A 
HETATM   10  C   UNL     1       5.560  27.934  51.341  1.00  0.00     0.032 A 
ENDROOT
BRANCH   1  11
HETATM   11  N   UNL     1       5.004  26.217  52.899  1.00  0.00    -0.326 N 
HETATM   12  C   UNL     1       5.731  25.320  53.644  1.00  0.00     0.235 C 
HETATM   13  O   UNL     1       5.265  24.964  54.729  1.00  0.00    -0.272 OA
HETATM   14  H   UNL     1       4.249  26.592  53.463  1.00  0.00     0.169 HD
BRANCH  12  15
HETATM   15  C   UNL     1       7.144  24.918  53.291  1.00  0.00     0.068 A 
HETATM   16  C   UNL     1       8.079  25.874  52.558  1.00  0.00     0.026 A 
HETATM   17  C   UNL     1       7.428  24.797  51.771  1.00  0.00     0.026 A 
BRANCH  15  18
HETATM   18  C   UNL     1       7.699  23.740  54.104  1.00  0.00    -0.040 A 
HETATM   19  C   UNL     1       7.551  22.420  53.631  1.00  0.00     0.010 A 
HETATM   20  C   UNL     1       8.036  21.322  54.346  1.00  0.00     0.024 A 
HETATM   21  C   UNL     1       8.673  21.526  55.563  1.00  0.00     0.034 A 
HETATM   22  C   UNL     1       8.829  22.816  56.064  1.00  0.00     0.024 A 
HETATM   23 CL   UNL     1       9.270  20.180  56.453  1.00  0.00    -0.084 Cl
HETATM   24  C   UNL     1       8.346  23.912  55.339  1.00  0.00     0.010 A 
ENDBRANCH  15  18
ENDBRANCH  12  15
ENDBRANCH   1  11
BRANCH   8  25
HETATM   25  C   UNL     1       3.116  24.984  47.612  1.00  0.00     0.270 C 
HETATM   26  N   UNL     1       2.602  24.971  46.344  1.00  0.00    -0.365 N 
HETATM   27  H   UNL     1       2.744  25.783  45.753  1.00  0.00     0.159 HD
HETATM   28  H   UNL     1       2.040  24.193  46.039  1.00  0.00     0.159 HD
HETATM   29  O   UNL     1       2.940  24.046  48.383  1.00  0.00    -0.266 OA
ENDBRANCH   8  25
TORSDOF 4
ENDMDL
MODEL 7
REMARK VINA RESULT:      -8.4     10.275     12.696
REMARK  4 active torsions:
REMARK  status: ('A' for Active; 'I' for Inactive)
REMARK    1  A    between atoms: C_2  and  C_3 
REMARK    2  A    between atoms: C_3  and  C_4 
REMARK       I    between atoms: C_4  and  N_5 
REMARK    3  A    between atoms: N_5  and  C_6 
REMARK    4  A    between atoms: C_13  and  C_14 
REMARK       I    between atoms: C_14  and  N_15 
ROOT
HETATM    1  C   UNL     1       6.087  32.468  63.100  1.00  0.00     0.035 A 
HETATM    2  C   UNL     1       5.844  32.258  61.743  1.00  0.00     0.046 A 
HETATM    3  C   UNL     1       6.925  32.159  60.837  1.00  0.00     0.030 A 
HETATM    4  C   UNL     1       8.220  32.227  61.327  1.00  0.00     0.063 A 
HETATM    5  N   UNL     1       9.029  32.116  60.230  1.00  0.00    -0.277 N 
HETATM    6  H   UNL     1      10.043  32.126  60.209  1.00  0.00     0.189 HD
HETATM    7  N   UNL     1       8.370  32.020  59.061  1.00  0.00    -0.168 NA
HETATM    8  C   UNL     1       7.067  32.045  59.423  1.00  0.00     0.156 A 
HETATM    9  C   UNL     1       8.510  32.398  62.680  1.00  0.00     0.034 A 
HETATM   10  C   UNL     1       7.415  32.538  63.548  1.00  0.00     0.032 A 
ENDROOT
BRANCH   1  11
HETATM   11  N   UNL     1       5.093  32.741  64.052  1.00  0.00    -0.326 N 
HETATM   12  C   UNL     1       4.531  33.886  64.565  1.00  0.00     0.235 C 
HETATM   13  O   UNL     1       3.868  33.786  65.600  1.00  0.00    -0.272 OA
HETATM   14  H   UNL     1       4.713  31.934  64.531  1.00  0.00     0.169 HD
BRANCH  12  15
HETATM   15  C   UNL     1       4.523  35.199  63.819  1.00  0.00     0.068 A 
HETATM   16  C   UNL     1       5.685  36.181  63.931  1.00  0.00     0.026 A 
HETATM   17  C   UNL     1       4.458  36.462  64.718  1.00  0.00     0.026 A 
BRANCH  15  18
HETATM   18  C   UNL     1       3.556  35.256  62.628  1.00  0.00    -0.040 A 
HETATM   19  C   UNL     1       3.896  35.991  61.473  1.00  0.00     0.010 A 
HETATM   20  C   UNL     1       3.039  36.072  60.372  1.00  0.00     0.024 A 
HETATM   21  C   UNL     1       1.812  35.423  60.411  1.00  0.00     0.034 A 
HETATM   22  C   UNL     1       1.441  34.695  61.539  1.00  0.00     0.024 A 
HETATM   23 CL   UNL     1       0.749  35.520  59.063  1.00  0.00    -0.084 Cl
HETATM   24  C   UNL     1       2.307  34.613  62.636  1.00  0.00     0.010 A 
ENDBRANCH  15  18
ENDBRANCH  12  15
ENDBRANCH   1  11
BRANCH   8  25
HETATM   25  C   UNL     1       5.991  31.996  58.423  1.00  0.00     0.270 C 
HETATM   26  N   UNL     1       5.317  30.806  58.381  1.00  0.00    -0.365 N 
HETATM   27  H   UNL     1       5.609  30.059  59.002  1.00  0.00     0.159 HD
HETATM   28  H   UNL     1       4.592  30.664  57.696  1.00  0.00     0.159 HD
HETATM   29  O   UNL     1       5.707  32.919  57.666  1.00  0.00    -0.266 OA
ENDBRANCH   8  25
TORSDOF 4
ENDMDL
MODEL 8
REMARK VINA RESULT:      -8.1      2.423      3.394
REMARK  4 active torsions:
REMARK  status: ('A' for Active; 'I' for Inactive)
REMARK    1  A    between atoms: C_2  and  C_3 
REMARK    2  A    between atoms: C_3  and  C_4 
REMARK       I    between atoms: C_4  and  N_5 
REMARK    3  A    between atoms: N_5  and  C_6 
REMARK    4  A    between atoms: C_13  and  C_14 
REMARK       I    between atoms: C_14  and  N_15 
ROOT
HETATM    1  C   UNL     1       5.411  28.825  51.829  1.00  0.00     0.035 A 
HETATM    2  C   UNL     1       5.071  28.072  50.706  1.00  0.00     0.046 A 
HETATM    3  C   UNL     1       3.789  28.205  50.125  1.00  0.00     0.030 A 
HETATM    4  C   UNL     1       2.902  29.125  50.661  1.00  0.00     0.063 A 
HETATM    5  N   UNL     1       1.765  29.014  49.908  1.00  0.00    -0.277 N 
HETATM    6  H   UNL     1       0.903  29.537  50.014  1.00  0.00     0.189 HD
HETATM    7  N   UNL     1       1.824  28.071  48.950  1.00  0.00    -0.168 NA
HETATM    8  C   UNL     1       3.071  27.563  49.073  1.00  0.00     0.156 A 
HETATM    9  C   UNL     1       3.212  29.927  51.759  1.00  0.00     0.034 A 
HETATM   10  C   UNL     1       4.476  29.739  52.340  1.00  0.00     0.032 A 
ENDROOT
BRANCH   1  11
HETATM   11  N   UNL     1       6.587  28.654  52.575  1.00  0.00    -0.326 N 
HETATM   12  C   UNL     1       6.919  27.960  53.714  1.00  0.00     0.235 C 
HETATM   13  O   UNL     1       7.984  28.243  54.268  1.00  0.00    -0.272 OA
HETATM   14  H   UNL     1       7.386  29.191  52.261  1.00  0.00     0.169 HD
BRANCH  12  15
HETATM   15  C   UNL     1       6.149  26.751  54.190  1.00  0.00     0.068 A 
HETATM   16  C   UNL     1       4.631  26.785  54.332  1.00  0.00     0.026 A 
HETATM   17  C   UNL     1       5.449  26.921  55.563  1.00  0.00     0.026 A 
BRANCH  15  18
HETATM   18  C   UNL     1       6.898  25.417  54.055  1.00  0.00    -0.040 A 
HETATM   19  C   UNL     1       6.849  24.696  52.844  1.00  0.00     0.010 A 
HETATM   20  C   UNL     1       7.512  23.476  52.685  1.00  0.00     0.024 A 
HETATM   21  C   UNL     1       8.232  22.946  53.748  1.00  0.00     0.034 A 
HETATM   22  C   UNL     1       8.294  23.627  54.961  1.00  0.00     0.024 A 
HETATM   23 CL   UNL     1       9.047  21.443  53.563  1.00  0.00    -0.084 Cl
HETATM   24  C   UNL     1       7.632  24.852  55.111  1.00  0.00     0.010 A 
ENDBRANCH  15  18
ENDBRANCH  12  15
ENDBRANCH   1  11
BRANCH   8  25
HETATM   25  C   UNL     1       3.541  26.463  48.220  1.00  0.00     0.270 C 
HETATM   26  N   UNL     1       3.120  25.224  48.619  1.00  0.00    -0.365 N 
HETATM   27  H   UNL     1       2.553  25.149  49.457  1.00  0.00     0.159 HD
HETATM   28  H   UNL     1       3.430  24.405  48.121  1.00  0.00     0.159 HD
HETATM   29  O   UNL     1       4.262  26.608  47.239  1.00  0.00    -0.266 OA
ENDBRANCH   8  25
TORSDOF 4
ENDMDL
MODEL 9
REMARK VINA RESULT:      -8.1      3.644      5.229
REMARK  4 active torsions:
REMARK  status: ('A' for Active; 'I' for Inactive)
REMARK    1  A    between atoms: C_2  and  C_3 
REMARK    2  A    between atoms: C_3  and  C_4 
REMARK       I    between atoms: C_4  and  N_5 
REMARK    3  A    between atoms: N_5  and  C_6 
REMARK    4  A    between atoms: C_13  and  C_14 
REMARK       I    between atoms: C_14  and  N_15 
ROOT
HETATM    1  C   UNL     1       6.091  28.551  55.919  1.00  0.00     0.035 A 
HETATM    2  C   UNL     1       5.460  29.234  56.959  1.00  0.00     0.046 A 
HETATM    3  C   UNL     1       4.429  30.159  56.675  1.00  0.00     0.030 A 
HETATM    4  C   UNL     1       4.030  30.336  55.359  1.00  0.00     0.063 A 
HETATM    5  N   UNL     1       3.045  31.284  55.405  1.00  0.00    -0.277 N 
HETATM    6  H   UNL     1       2.521  31.664  54.624  1.00  0.00     0.189 HD
HETATM    7  N   UNL     1       2.796  31.768  56.635  1.00  0.00    -0.168 NA
HETATM    8  C   UNL     1       3.645  31.080  57.431  1.00  0.00     0.156 A 
HETATM    9  C   UNL     1       4.606  29.647  54.293  1.00  0.00     0.034 A 
HETATM   10  C   UNL     1       5.657  28.770  54.603  1.00  0.00     0.032 A 
ENDROOT
BRANCH   1  11
HETATM   11  N   UNL     1       7.226  27.741  56.075  1.00  0.00    -0.326 N 
HETATM   12  C   UNL     1       7.436  26.409  56.339  1.00  0.00     0.235 C 
HETATM   13  O   UNL     1       8.567  26.065  56.690  1.00  0.00    -0.272 OA
HETATM   14  H   UNL     1       8.117  28.224  56.042  1.00  0.00     0.169 HD
BRANCH  12  15
HETATM   15  C   UNL     1       6.414  25.341  56.028  1.00  0.00     0.068 A 
HETATM   16  C   UNL     1       4.919  25.641  56.066  1.00  0.00     0.026 A 
HETATM   17  C   UNL     1       5.515  24.928  57.222  1.00  0.00     0.026 A 
BRANCH  15  18
HETATM   18  C   UNL     1       6.957  24.141  55.239  1.00  0.00    -0.040 A 
HETATM   19  C   UNL     1       6.945  24.157  53.828  1.00  0.00     0.010 A 
HETATM   20  C   UNL     1       7.425  23.082  53.075  1.00  0.00     0.024 A 
HETATM   21  C   UNL     1       7.918  21.958  53.724  1.00  0.00     0.034 A 
HETATM   22  C   UNL     1       7.936  21.905  55.116  1.00  0.00     0.024 A 
HETATM   23 CL   UNL     1       8.505  20.628  52.806  1.00  0.00    -0.084 Cl
HETATM   24  C   UNL     1       7.460  22.989  55.864  1.00  0.00     0.010 A 
ENDBRANCH  15  18
ENDBRANCH  12  15
ENDBRANCH   1  11
BRANCH   8  25
HETATM   25  C   UNL     1       3.720  31.333  58.876  1.00  0.00     0.270 C 
HETATM   26  N   UNL     1       3.035  30.430  59.641  1.00  0.00    -0.365 N 
HETATM   27  H   UNL     1       2.524  29.688  59.176  1.00  0.00     0.159 HD
HETATM   28  H   UNL     1       2.993  30.549  60.641  1.00  0.00     0.159 HD
HETATM   29  O   UNL     1       4.322  32.274  59.383  1.00  0.00    -0.266 OA
ENDBRANCH   8  25
TORSDOF 4
ENDMDL
MODEL 10
REMARK VINA RESULT:      -8.1      4.002      6.030
REMARK  4 active torsions:
REMARK  status: ('A' for Active; 'I' for Inactive)
REMARK    1  A    between atoms: C_2  and  C_3 
REMARK    2  A    between atoms: C_3  and  C_4 
REMARK       I    between atoms: C_4  and  N_5 
REMARK    3  A    between atoms: N_5  and  C_6 
REMARK    4  A    between atoms: C_13  and  C_14 
REMARK       I    between atoms: C_14  and  N_15 
ROOT
HETATM    1  C   UNL     1       6.329  29.161  55.777  1.00  0.00     0.035 A 
HETATM    2  C   UNL     1       7.073  29.687  56.833  1.00  0.00     0.046 A 
HETATM    3  C   UNL     1       6.443  30.489  57.812  1.00  0.00     0.030 A 
HETATM    4  C   UNL     1       5.076  30.700  57.729  1.00  0.00     0.063 A 
HETATM    5  N   UNL     1       4.769  31.509  58.789  1.00  0.00    -0.277 N 
HETATM    6  H   UNL     1       3.856  31.870  59.044  1.00  0.00     0.189 HD
HETATM    7  N   UNL     1       5.828  31.875  59.533  1.00  0.00    -0.168 NA
HETATM    8  C   UNL     1       6.870  31.250  58.940  1.00  0.00     0.156 A 
HETATM    9  C   UNL     1       4.286  30.162  56.714  1.00  0.00     0.034 A 
HETATM   10  C   UNL     1       4.948  29.408  55.732  1.00  0.00     0.032 A 
ENDROOT
BRANCH   1  11
HETATM   11  N   UNL     1       6.879  28.494  54.672  1.00  0.00    -0.326 N 
HETATM   12  C   UNL     1       7.482  27.274  54.479  1.00  0.00     0.235 C 
HETATM   13  O   UNL     1       8.109  27.104  53.430  1.00  0.00    -0.272 OA
HETATM   14  H   UNL     1       6.901  29.023  53.808  1.00  0.00     0.169 HD
BRANCH  12  15
HETATM   15  C   UNL     1       7.244  26.090  55.386  1.00  0.00     0.068 A 
HETATM   16  C   UNL     1       6.392  26.215  56.644  1.00  0.00     0.026 A 
HETATM   17  C   UNL     1       7.867  26.214  56.800  1.00  0.00     0.026 A 
BRANCH  15  18
HETATM   18  C   UNL     1       7.492  24.722  54.734  1.00  0.00    -0.040 A 
HETATM   19  C   UNL     1       8.483  23.861  55.249  1.00  0.00     0.010 A 
HETATM   20  C   UNL     1       8.742  22.611  54.680  1.00  0.00     0.024 A 
HETATM   21  C   UNL     1       8.017  22.203  53.568  1.00  0.00     0.034 A 
HETATM   22  C   UNL     1       7.037  23.032  53.028  1.00  0.00     0.024 A 
HETATM   23 CL   UNL     1       8.332  20.669  52.858  1.00  0.00    -0.084 Cl
HETATM   24  C   UNL     1       6.778  24.280  53.608  1.00  0.00     0.010 A 
ENDBRANCH  15  18
ENDBRANCH  12  15
ENDBRANCH   1  11
BRANCH   8  25
HETATM   25  C   UNL     1       8.246  31.415  59.430  1.00  0.00     0.270 C 
HETATM   26  N   UNL     1       8.666  30.422  60.272  1.00  0.00    -0.365 N 
HETATM   27  H   UNL     1       8.017  29.678  60.508  1.00  0.00     0.159 HD
HETATM   28  H   UNL     1       9.579  30.474  60.693  1.00  0.00     0.159 HD
HETATM   29  O   UNL     1       8.974  32.360  59.143  1.00  0.00    -0.266 OA
ENDBRANCH   8  25
TORSDOF 4
ENDMDL
