MODEL 1
REMARK VINA RESULT:      -8.1      0.000      0.000
REMARK  2 active torsions:
REMARK  status: ('A' for Active; 'I' for Inactive)
REMARK    1  A    between atoms: C_8  and  S_9 
REMARK    2  A    between atoms: S_9  and  C_10 
ROOT
HETATM    1  C   UNL     1       8.593  20.191  55.509  1.00  0.00     0.002 A 
HETATM    2  C   UNL     1       8.020  21.363  56.003  1.00  0.00     0.034 A 
HETATM    3  C   UNL     1       7.599  22.375  55.150  1.00  0.00     0.087 A 
HETATM    4  C   UNL     1       7.756  22.206  53.748  1.00  0.00     0.087 A 
HETATM    5  N   UNL     1       7.369  23.159  52.877  1.00  0.00    -0.232 NA
HETATM    6  C   UNL     1       6.804  24.262  53.405  1.00  0.00     0.164 A 
HETATM    7 CL   UNL     1       6.348  25.440  52.245  1.00  0.00    -0.059 Cl
HETATM    8  C   UNL     1       6.652  24.430  54.771  1.00  0.00     0.165 A 
HETATM    9  N   UNL     1       7.056  23.498  55.665  1.00  0.00    -0.234 NA
HETATM   10  C   UNL     1       8.328  21.035  53.269  1.00  0.00     0.034 A 
HETATM   11  C   UNL     1       8.748  20.026  54.138  1.00  0.00     0.002 A 
ENDROOT
BRANCH   8  12
HETATM   12  S   UNL     1       5.932  25.878  55.524  1.00  0.00     0.078 S 
HETATM   13  O   UNL     1       5.326  25.500  56.848  1.00  0.00    -0.251 OA
BRANCH  12  14
HETATM   14  C   UNL     1       7.448  26.842  55.937  1.00  0.00     0.112 C 
HETATM   15  C   UNL     1       7.624  27.890  54.824  1.00  0.00     0.250 C 
HETATM   16  N   UNL     1       6.567  28.952  54.945  1.00  0.00    -0.074 N 
HETATM   17  H   UNL     1       5.635  28.484  54.879  1.00  0.00     0.277 HD
HETATM   18  H   UNL     1       6.603  29.600  54.147  1.00  0.00     0.277 HD
HETATM   19  C   UNL     1       6.605  29.703  56.229  1.00  0.00     0.232 C 
HETATM   20  C   UNL     1       6.454  28.729  57.388  1.00  0.00     0.029 C 
HETATM   21  C   UNL     1       7.431  27.551  57.300  1.00  0.00     0.021 C 
ENDBRANCH  12  14
ENDBRANCH   8  12
TORSDOF 2
ENDMDL
MODEL 2
REMARK VINA RESULT:      -7.8      2.407      2.962
REMARK  2 active torsions:
REMARK  status: ('A' for Active; 'I' for Inactive)
REMARK    1  A    between atoms: C_8  and  S_9 
REMARK    2  A    between atoms: S_9  and  C_10 
ROOT
HETATM    1  C   UNL     1       8.215  20.811  52.925  1.00  0.00     0.002 A 
HETATM    2  C   UNL     1       7.871  22.163  52.936  1.00  0.00     0.034 A 
HETATM    3  C   UNL     1       7.976  22.925  54.093  1.00  0.00     0.087 A 
HETATM    4  C   UNL     1       8.445  22.308  55.285  1.00  0.00     0.087 A 
HETATM    5  N   UNL     1       8.561  22.999  56.436  1.00  0.00    -0.232 NA
HETATM    6  C   UNL     1       8.234  24.306  56.387  1.00  0.00     0.164 A 
HETATM    7 CL   UNL     1       8.390  25.124  57.887  1.00  0.00    -0.059 Cl
HETATM    8  C   UNL     1       7.775  24.908  55.228  1.00  0.00     0.165 A 
HETATM    9  N   UNL     1       7.627  24.228  54.067  1.00  0.00    -0.234 NA
HETATM   10  C   UNL     1       8.784  20.962  55.260  1.00  0.00     0.034 A 
HETATM   11  C   UNL     1       8.673  20.208  54.090  1.00  0.00     0.002 A 
ENDROOT
BRANCH   8  12
HETATM   12  S   UNL     1       7.308  26.626  55.114  1.00  0.00     0.078 S 
HETATM   13  O   UNL     1       7.648  27.143  53.742  1.00  0.00    -0.251 OA
BRANCH  12  14
HETATM   14  C   UNL     1       5.470  26.487  55.143  1.00  0.00     0.112 C 
HETATM   15  C   UNL     1       5.043  26.569  56.619  1.00  0.00     0.250 C 
HETATM   16  N   UNL     1       5.233  27.969  57.133  1.00  0.00    -0.074 N 
HETATM   17  H   UNL     1       6.241  28.218  57.017  1.00  0.00     0.277 HD
HETATM   18  H   UNL     1       5.055  28.018  58.144  1.00  0.00     0.277 HD
HETATM   19  C   UNL     1       4.430  28.994  56.412  1.00  0.00     0.232 C 
HETATM   20  C   UNL     1       4.784  28.964  54.933  1.00  0.00     0.029 C 
HETATM   21  C   UNL     1       4.712  27.554  54.337  1.00  0.00     0.021 C 
ENDBRANCH  12  14
ENDBRANCH   8  12
TORSDOF 2
ENDMDL
MODEL 3
REMARK VINA RESULT:      -7.8      2.617      3.550
REMARK  2 active torsions:
REMARK  status: ('A' for Active; 'I' for Inactive)
REMARK    1  A    between atoms: C_8  and  S_9 
REMARK    2  A    between atoms: S_9  and  C_10 
ROOT
HETATM    1  C   UNL     1       8.607  20.383  53.557  1.00  0.00     0.002 A 
HETATM    2  C   UNL     1       8.296  21.710  53.260  1.00  0.00     0.034 A 
HETATM    3  C   UNL     1       8.085  22.644  54.267  1.00  0.00     0.087 A 
HETATM    4  C   UNL     1       8.190  22.232  55.623  1.00  0.00     0.087 A 
HETATM    5  N   UNL     1       7.990  23.095  56.638  1.00  0.00    -0.232 NA
HETATM    6  C   UNL     1       7.712  24.369  56.296  1.00  0.00     0.164 A 
HETATM    7 CL   UNL     1       7.454  25.413  57.633  1.00  0.00    -0.059 Cl
HETATM    8  C   UNL     1       7.607  24.772  54.976  1.00  0.00     0.165 A 
HETATM    9  N   UNL     1       7.779  23.917  53.941  1.00  0.00    -0.234 NA
HETATM   10  C   UNL     1       8.500  20.908  55.904  1.00  0.00     0.034 A 
HETATM   11  C   UNL     1       8.710  19.980  54.882  1.00  0.00     0.002 A 
ENDROOT
BRANCH   8  12
HETATM   12  S   UNL     1       7.219  26.438  54.469  1.00  0.00     0.078 S 
HETATM   13  O   UNL     1       7.817  26.696  53.113  1.00  0.00    -0.251 OA
BRANCH  12  14
HETATM   14  C   UNL     1       5.403  26.299  54.185  1.00  0.00     0.112 C 
HETATM   15  C   UNL     1       4.923  27.680  53.704  1.00  0.00     0.250 C 
HETATM   16  N   UNL     1       5.413  27.936  52.307  1.00  0.00    -0.074 N 
HETATM   17  H   UNL     1       6.457  27.882  52.318  1.00  0.00     0.277 HD
HETATM   18  H   UNL     1       5.194  28.896  52.009  1.00  0.00     0.277 HD
HETATM   19  C   UNL     1       4.922  26.954  51.301  1.00  0.00     0.232 C 
HETATM   20  C   UNL     1       5.343  25.553  51.718  1.00  0.00     0.029 C 
HETATM   21  C   UNL     1       4.970  25.231  53.170  1.00  0.00     0.021 C 
ENDBRANCH  12  14
ENDBRANCH   8  12
TORSDOF 2
ENDMDL
MODEL 4
REMARK VINA RESULT:      -7.2      2.002      2.355
REMARK  2 active torsions:
REMARK  status: ('A' for Active; 'I' for Inactive)
REMARK    1  A    between atoms: C_8  and  S_9 
REMARK    2  A    between atoms: S_9  and  C_10 
ROOT
HETATM    1  C   UNL     1       8.568  20.562  56.439  1.00  0.00     0.002 A 
HETATM    2  C   UNL     1       8.300  21.925  56.571  1.00  0.00     0.034 A 
HETATM    3  C   UNL     1       8.107  22.734  55.459  1.00  0.00     0.087 A 
HETATM    4  C   UNL     1       8.186  22.155  54.163  1.00  0.00     0.087 A 
HETATM    5  N   UNL     1       8.012  22.895  53.050  1.00  0.00    -0.232 NA
HETATM    6  C   UNL     1       7.737  24.201  53.235  1.00  0.00     0.164 A 
HETATM    7 CL   UNL     1       7.542  25.089  51.780  1.00  0.00    -0.059 Cl
HETATM    8  C   UNL     1       7.662  24.768  54.495  1.00  0.00     0.165 A 
HETATM    9  N   UNL     1       7.857  24.049  55.626  1.00  0.00    -0.234 NA
HETATM   10  C   UNL     1       8.454  20.797  54.045  1.00  0.00     0.034 A 
HETATM   11  C   UNL     1       8.645  19.996  55.172  1.00  0.00     0.002 A 
ENDROOT
BRANCH   8  12
HETATM   12  S   UNL     1       7.323  26.493  54.796  1.00  0.00     0.078 S 
HETATM   13  O   UNL     1       7.760  27.300  53.603  1.00  0.00    -0.251 OA
BRANCH  12  14
HETATM   14  C   UNL     1       5.481  26.498  54.742  1.00  0.00     0.112 C 
HETATM   15  C   UNL     1       5.016  27.680  55.610  1.00  0.00     0.250 C 
HETATM   16  N   UNL     1       5.326  28.979  54.920  1.00  0.00    -0.074 N 
HETATM   17  H   UNL     1       6.357  29.015  54.755  1.00  0.00     0.277 HD
HETATM   18  H   UNL     1       5.121  29.780  55.531  1.00  0.00     0.277 HD
HETATM   19  C   UNL     1       4.652  29.143  53.603  1.00  0.00     0.232 C 
HETATM   20  C   UNL     1       5.050  27.995  52.687  1.00  0.00     0.029 C 
HETATM   21  C   UNL     1       4.859  26.622  53.343  1.00  0.00     0.021 C 
ENDBRANCH  12  14
ENDBRANCH   8  12
TORSDOF 2
ENDMDL
MODEL 5
REMARK VINA RESULT:      -7.1      4.979      6.273
REMARK  2 active torsions:
REMARK  status: ('A' for Active; 'I' for Inactive)
REMARK    1  A    between atoms: C_8  and  S_9 
REMARK    2  A    between atoms: S_9  and  C_10 
ROOT
HETATM    1  C   UNL     1       7.999  23.562  52.971  1.00  0.00     0.002 A 
HETATM    2  C   UNL     1       7.605  24.537  52.055  1.00  0.00     0.034 A 
HETATM    3  C   UNL     1       6.637  25.480  52.377  1.00  0.00     0.087 A 
HETATM    4  C   UNL     1       6.041  25.444  53.667  1.00  0.00     0.087 A 
HETATM    5  N   UNL     1       5.093  26.331  54.029  1.00  0.00    -0.232 NA
HETATM    6  C   UNL     1       4.763  27.264  53.114  1.00  0.00     0.164 A 
HETATM    7 CL   UNL     1       3.542  28.352  53.631  1.00  0.00    -0.059 Cl
HETATM    8  C   UNL     1       5.340  27.299  51.856  1.00  0.00     0.165 A 
HETATM    9  N   UNL     1       6.276  26.404  51.462  1.00  0.00    -0.234 NA
HETATM   10  C   UNL     1       6.442  24.467  54.569  1.00  0.00     0.034 A 
HETATM   11  C   UNL     1       7.416  23.526  54.232  1.00  0.00     0.002 A 
ENDROOT
BRANCH   8  12
HETATM   12  S   UNL     1       4.925  28.497  50.601  1.00  0.00     0.078 S 
HETATM   13  O   UNL     1       6.026  29.518  50.506  1.00  0.00    -0.251 OA
BRANCH  12  14
HETATM   14  C   UNL     1       5.077  27.469  49.079  1.00  0.00     0.112 C 
HETATM   15  C   UNL     1       3.890  26.490  49.085  1.00  0.00     0.250 C 
HETATM   16  N   UNL     1       2.612  27.229  48.804  1.00  0.00    -0.074 N 
HETATM   17  H   UNL     1       2.499  27.963  49.540  1.00  0.00     0.277 HD
HETATM   18  H   UNL     1       1.798  26.611  48.911  1.00  0.00     0.277 HD
HETATM   19  C   UNL     1       2.581  27.909  47.480  1.00  0.00     0.232 C 
HETATM   20  C   UNL     1       3.742  28.888  47.388  1.00  0.00     0.029 C 
HETATM   21  C   UNL     1       5.086  28.246  47.753  1.00  0.00     0.021 C 
ENDBRANCH  12  14
ENDBRANCH   8  12
TORSDOF 2
ENDMDL
MODEL 6
REMARK VINA RESULT:      -7.0      4.095      8.454
REMARK  2 active torsions:
REMARK  status: ('A' for Active; 'I' for Inactive)
REMARK    1  A    between atoms: C_8  and  S_9 
REMARK    2  A    between atoms: S_9  and  C_10 
ROOT
HETATM    1  C   UNL     1       8.768  31.766  62.255  1.00  0.00     0.002 A 
HETATM    2  C   UNL     1       8.965  30.814  61.255  1.00  0.00     0.034 A 
HETATM    3  C   UNL     1       8.164  30.782  60.121  1.00  0.00     0.087 A 
HETATM    4  C   UNL     1       7.125  31.742  59.983  1.00  0.00     0.087 A 
HETATM    5  N   UNL     1       6.315  31.752  58.906  1.00  0.00    -0.232 NA
HETATM    6  C   UNL     1       6.561  30.823  57.961  1.00  0.00     0.164 A 
HETATM    7 CL   UNL     1       5.487  30.881  56.624  1.00  0.00    -0.059 Cl
HETATM    8  C   UNL     1       7.571  29.886  58.094  1.00  0.00     0.165 A 
HETATM    9  N   UNL     1       8.380  29.841  59.178  1.00  0.00    -0.234 NA
HETATM   10  C   UNL     1       6.939  32.684  60.986  1.00  0.00     0.034 A 
HETATM   11  C   UNL     1       7.752  32.705  62.120  1.00  0.00     0.002 A 
ENDROOT
BRANCH   8  12
HETATM   12  S   UNL     1       7.925  28.622  56.885  1.00  0.00     0.078 S 
HETATM   13  O   UNL     1       9.321  28.105  57.103  1.00  0.00    -0.251 OA
BRANCH  12  14
HETATM   14  C   UNL     1       6.809  27.272  57.459  1.00  0.00     0.112 C 
HETATM   15  C   UNL     1       5.683  27.155  56.416  1.00  0.00     0.250 C 
HETATM   16  N   UNL     1       6.220  26.561  55.145  1.00  0.00    -0.074 N 
HETATM   17  H   UNL     1       6.989  27.181  54.802  1.00  0.00     0.277 HD
HETATM   18  H   UNL     1       5.509  26.575  54.402  1.00  0.00     0.277 HD
HETATM   19  C   UNL     1       6.782  25.192  55.303  1.00  0.00     0.232 C 
HETATM   20  C   UNL     1       7.896  25.220  56.338  1.00  0.00     0.029 C 
HETATM   21  C   UNL     1       7.471  25.899  57.645  1.00  0.00     0.021 C 
ENDBRANCH  12  14
ENDBRANCH   8  12
TORSDOF 2
ENDMDL
MODEL 7
REMARK VINA RESULT:      -6.8     11.273     13.696
REMARK  2 active torsions:
REMARK  status: ('A' for Active; 'I' for Inactive)
REMARK    1  A    between atoms: C_8  and  S_9 
REMARK    2  A    between atoms: S_9  and  C_10 
ROOT
HETATM    1  C   UNL     1       4.786  34.660  68.068  1.00  0.00     0.002 A 
HETATM    2  C   UNL     1       4.295  34.180  66.853  1.00  0.00     0.034 A 
HETATM    3  C   UNL     1       5.153  33.770  65.840  1.00  0.00     0.087 A 
HETATM    4  C   UNL     1       6.556  33.845  66.053  1.00  0.00     0.087 A 
HETATM    5  N   UNL     1       7.432  33.465  65.101  1.00  0.00    -0.232 NA
HETATM    6  C   UNL     1       6.906  32.991  63.955  1.00  0.00     0.164 A 
HETATM    7 CL   UNL     1       8.073  32.540  62.782  1.00  0.00    -0.059 Cl
HETATM    8  C   UNL     1       5.540  32.920  63.745  1.00  0.00     0.165 A 
HETATM    9  N   UNL     1       4.642  33.318  64.676  1.00  0.00    -0.234 NA
HETATM   10  C   UNL     1       7.031  34.325  67.266  1.00  0.00     0.034 A 
HETATM   11  C   UNL     1       6.158  34.733  68.275  1.00  0.00     0.002 A 
ENDROOT
BRANCH   8  12
HETATM   12  S   UNL     1       4.791  32.323  62.240  1.00  0.00     0.078 S 
HETATM   13  O   UNL     1       3.295  32.304  62.403  1.00  0.00    -0.251 OA
BRANCH  12  14
HETATM   14  C   UNL     1       5.142  33.726  61.098  1.00  0.00     0.112 C 
HETATM   15  C   UNL     1       4.255  33.520  59.858  1.00  0.00     0.250 C 
HETATM   16  N   UNL     1       2.817  33.785  60.204  1.00  0.00    -0.074 N 
HETATM   17  H   UNL     1       2.547  33.131  60.973  1.00  0.00     0.277 HD
HETATM   18  H   UNL     1       2.199  33.548  59.417  1.00  0.00     0.277 HD
HETATM   19  C   UNL     1       2.551  35.171  60.676  1.00  0.00     0.232 C 
HETATM   20  C   UNL     1       3.409  35.461  61.898  1.00  0.00     0.029 C 
HETATM   21  C   UNL     1       4.889  35.128  61.673  1.00  0.00     0.021 C 
ENDBRANCH  12  14
ENDBRANCH   8  12
TORSDOF 2
ENDMDL
MODEL 8
REMARK VINA RESULT:      -6.6      3.180      4.239
REMARK  2 active torsions:
REMARK  status: ('A' for Active; 'I' for Inactive)
REMARK    1  A    between atoms: C_8  and  S_9 
REMARK    2  A    between atoms: S_9  and  C_10 
ROOT
HETATM    1  C   UNL     1       7.841  24.558  52.106  1.00  0.00     0.002 A 
HETATM    2  C   UNL     1       8.124  25.809  52.656  1.00  0.00     0.034 A 
HETATM    3  C   UNL     1       7.477  26.255  53.802  1.00  0.00     0.087 A 
HETATM    4  C   UNL     1       6.510  25.416  54.419  1.00  0.00     0.087 A 
HETATM    5  N   UNL     1       5.850  25.803  55.529  1.00  0.00    -0.232 NA
HETATM    6  C   UNL     1       6.174  27.011  56.030  1.00  0.00     0.164 A 
HETATM    7 CL   UNL     1       5.288  27.448  57.433  1.00  0.00    -0.059 Cl
HETATM    8  C   UNL     1       7.113  27.831  55.429  1.00  0.00     0.165 A 
HETATM    9  N   UNL     1       7.771  27.474  54.301  1.00  0.00    -0.234 NA
HETATM   10  C   UNL     1       6.238  24.174  53.861  1.00  0.00     0.034 A 
HETATM   11  C   UNL     1       6.896  23.738  52.710  1.00  0.00     0.002 A 
ENDROOT
BRANCH   8  12
HETATM   12  S   UNL     1       7.564  29.446  56.038  1.00  0.00     0.078 S 
HETATM   13  O   UNL     1       6.332  30.147  56.543  1.00  0.00    -0.251 OA
BRANCH  12  14
HETATM   14  C   UNL     1       8.523  28.993  57.545  1.00  0.00     0.112 C 
HETATM   15  C   UNL     1      10.011  29.106  57.174  1.00  0.00     0.250 C 
HETATM   16  N   UNL     1      10.393  30.551  57.016  1.00  0.00    -0.074 N 
HETATM   17  H   UNL     1       9.787  30.962  56.271  1.00  0.00     0.277 HD
HETATM   18  H   UNL     1      11.355  30.641  56.663  1.00  0.00     0.277 HD
HETATM   19  C   UNL     1      10.211  31.366  58.247  1.00  0.00     0.232 C 
HETATM   20  C   UNL     1       8.758  31.291  58.692  1.00  0.00     0.029 C 
HETATM   21  C   UNL     1       8.245  29.850  58.790  1.00  0.00     0.021 C 
ENDBRANCH  12  14
ENDBRANCH   8  12
TORSDOF 2
ENDMDL
MODEL 9
REMARK VINA RESULT:      -6.6      4.354      7.012
REMARK  2 active torsions:
REMARK  status: ('A' for Active; 'I' for Inactive)
REMARK    1  A    between atoms: C_8  and  S_9 
REMARK    2  A    between atoms: S_9  and  C_10 
ROOT
HETATM    1  C   UNL     1       4.739  27.709  47.433  1.00  0.00     0.002 A 
HETATM    2  C   UNL     1       4.867  26.846  48.522  1.00  0.00     0.034 A 
HETATM    3  C   UNL     1       4.946  27.331  49.821  1.00  0.00     0.087 A 
HETATM    4  C   UNL     1       4.894  28.735  50.038  1.00  0.00     0.087 A 
HETATM    5  N   UNL     1       4.972  29.258  51.277  1.00  0.00    -0.232 NA
HETATM    6  C   UNL     1       5.075  28.380  52.294  1.00  0.00     0.164 A 
HETATM    7 CL   UNL     1       5.185  29.111  53.842  1.00  0.00    -0.059 Cl
HETATM    8  C   UNL     1       5.128  27.013  52.086  1.00  0.00     0.165 A 
HETATM    9  N   UNL     1       5.076  26.466  50.848  1.00  0.00    -0.234 NA
HETATM   10  C   UNL     1       4.767  29.582  48.945  1.00  0.00     0.034 A 
HETATM   11  C   UNL     1       4.689  29.081  47.645  1.00  0.00     0.002 A 
ENDROOT
BRANCH   8  12
HETATM   12  S   UNL     1       5.287  25.809  53.393  1.00  0.00     0.078 S 
HETATM   13  O   UNL     1       4.968  24.442  52.850  1.00  0.00    -0.251 OA
BRANCH  12  14
HETATM   14  C   UNL     1       7.111  25.819  53.653  1.00  0.00     0.112 C 
HETATM   15  C   UNL     1       7.365  25.184  55.031  1.00  0.00     0.250 C 
HETATM   16  N   UNL     1       7.093  23.707  54.975  1.00  0.00    -0.074 N 
HETATM   17  H   UNL     1       6.099  23.577  54.677  1.00  0.00     0.277 HD
HETATM   18  H   UNL     1       7.153  23.285  55.911  1.00  0.00     0.277 HD
HETATM   19  C   UNL     1       7.954  22.967  54.013  1.00  0.00     0.232 C 
HETATM   20  C   UNL     1       7.772  23.551  52.620  1.00  0.00     0.029 C 
HETATM   21  C   UNL     1       7.936  25.075  52.593  1.00  0.00     0.021 C 
ENDBRANCH  12  14
ENDBRANCH   8  12
TORSDOF 2
ENDMDL
MODEL 10
REMARK VINA RESULT:      -6.6      5.585      9.987
REMARK  2 active torsions:
REMARK  status: ('A' for Active; 'I' for Inactive)
REMARK    1  A    between atoms: C_8  and  S_9 
REMARK    2  A    between atoms: S_9  and  C_10 
ROOT
HETATM    1  C   UNL     1       7.707  32.847  64.097  1.00  0.00     0.002 A 
HETATM    2  C   UNL     1       8.191  32.160  62.984  1.00  0.00     0.034 A 
HETATM    3  C   UNL     1       7.565  32.258  61.748  1.00  0.00     0.087 A 
HETATM    4  C   UNL     1       6.410  33.076  61.622  1.00  0.00     0.087 A 
HETATM    5  N   UNL     1       5.761  33.202  60.448  1.00  0.00    -0.232 NA
HETATM    6  C   UNL     1       6.281  32.533  59.400  1.00  0.00     0.164 A 
HETATM    7 CL   UNL     1       5.401  32.723  57.940  1.00  0.00    -0.059 Cl
HETATM    8  C   UNL     1       7.404  31.733  59.520  1.00  0.00     0.165 A 
HETATM    9  N   UNL     1       8.058  31.572  60.695  1.00  0.00    -0.234 NA
HETATM   10  C   UNL     1       5.939  33.755  62.738  1.00  0.00     0.034 A 
HETATM   11  C   UNL     1       6.578  33.648  63.975  1.00  0.00     0.002 A 
ENDROOT
BRANCH   8  12
HETATM   12  S   UNL     1       8.120  30.808  58.173  1.00  0.00     0.078 S 
HETATM   13  O   UNL     1       9.370  30.121  58.652  1.00  0.00    -0.251 OA
BRANCH  12  14
HETATM   14  C   UNL     1       6.871  29.468  57.971  1.00  0.00     0.112 C 
HETATM   15  C   UNL     1       6.098  29.775  56.677  1.00  0.00     0.250 C 
HETATM   16  N   UNL     1       6.976  29.530  55.482  1.00  0.00    -0.074 N 
HETATM   17  H   UNL     1       7.817  30.143  55.573  1.00  0.00     0.277 HD
HETATM   18  H   UNL     1       6.512  29.832  54.616  1.00  0.00     0.277 HD
HETATM   19  C   UNL     1       7.453  28.126  55.356  1.00  0.00     0.232 C 
HETATM   20  C   UNL     1       8.218  27.738  56.612  1.00  0.00     0.029 C 
HETATM   21  C   UNL     1       7.437  28.041  57.896  1.00  0.00     0.021 C 
ENDBRANCH  12  14
ENDBRANCH   8  12
TORSDOF 2
ENDMDL
