MODEL 1
REMARK VINA RESULT:      -9.6      0.000      0.000
REMARK  6 active torsions:
REMARK  status: ('A' for Active; 'I' for Inactive)
REMARK    1  A    between atoms: C_2  and  O_3 
REMARK    2  A    between atoms: O_3  and  C_4 
REMARK    3  A    between atoms: C_7  and  C_8 
REMARK    4  A    between atoms: C_8  and  N_9 
REMARK       I    between atoms: N_9  and  C_10 
REMARK    5  A    between atoms: C_10  and  C_11 
REMARK    6  A    between atoms: C_15  and  C_16 
ROOT
HETATM    1  N   UNL     1       8.843  28.448  57.392  1.00  0.00    -0.347 N 
HETATM    2  C   UNL     1       7.811  27.867  56.684  1.00  0.00     0.272 C 
HETATM    3  O   UNL     1       6.972  28.508  56.058  1.00  0.00    -0.266 OA
HETATM    4  H   UNL     1       9.518  27.796  57.778  1.00  0.00     0.163 HD
ENDROOT
BRANCH   2   5
HETATM    5  C   UNL     1       7.839  26.397  56.689  1.00  0.00     0.146 A 
HETATM    6  N   UNL     1       8.112  25.675  57.793  1.00  0.00    -0.169 NA
HETATM    7  N   UNL     1       8.107  24.401  57.352  1.00  0.00    -0.277 N 
HETATM    8  H   UNL     1       8.321  23.666  58.016  1.00  0.00     0.189 HD
HETATM    9  C   UNL     1       7.853  24.261  56.012  1.00  0.00     0.063 A 
HETATM   10  C   UNL     1       7.656  25.553  55.565  1.00  0.00     0.071 A 
BRANCH   9  11
HETATM   11  C   UNL     1       7.869  22.986  55.294  1.00  0.00    -0.008 A 
HETATM   12  C   UNL     1       7.827  21.759  55.971  1.00  0.00     0.014 A 
HETATM   13  C   UNL     1       7.856  20.553  55.263  1.00  0.00     0.001 A 
HETATM   14  C   UNL     1       7.927  20.557  53.872  1.00  0.00     0.000 A 
HETATM   15  C   UNL     1       7.963  21.766  53.185  1.00  0.00     0.001 A 
HETATM   16  C   UNL     1       7.933  22.972  53.892  1.00  0.00     0.014 A 
ENDBRANCH   9  11
ENDBRANCH   2   5
BRANCH   1  17
HETATM   17  C   UNL     1       9.190  29.838  57.190  1.00  0.00     0.114 C 
HETATM   18  C   UNL     1      10.693  29.990  56.933  1.00  0.00     0.037 C 
BRANCH  17  19
HETATM   19  C   UNL     1       8.756  30.713  58.352  1.00  0.00    -0.036 A 
HETATM   20  C   UNL     1       7.405  30.955  58.643  1.00  0.00     0.012 A 
HETATM   21  C   UNL     1       7.034  31.689  59.778  1.00  0.00     0.037 A 
HETATM   22  C   UNL     1       8.008  32.185  60.642  1.00  0.00     0.068 A 
HETATM   23  C   UNL     1       9.354  31.981  60.340  1.00  0.00     0.037 A 
HETATM   24  C   UNL     1       9.727  31.251  59.210  1.00  0.00     0.012 A 
BRANCH  22  25
HETATM   25  O   UNL     1       7.781  32.879  61.798  1.00  0.00    -0.352 OA
BRANCH  25  26
HETATM   26  C   UNL     1       8.053  32.197  63.022  1.00  0.00     0.171 C 
HETATM   27  C   UNL     1       7.692  33.128  64.165  1.00  0.00     0.034 C 
ENDBRANCH  25  26
ENDBRANCH  22  25
ENDBRANCH  17  19
ENDBRANCH   1  17
TORSDOF 6
ENDMDL
MODEL 2
REMARK VINA RESULT:      -8.9      2.350      4.460
REMARK  6 active torsions:
REMARK  status: ('A' for Active; 'I' for Inactive)
REMARK    1  A    between atoms: C_2  and  O_3 
REMARK    2  A    between atoms: O_3  and  C_4 
REMARK    3  A    between atoms: C_7  and  C_8 
REMARK    4  A    between atoms: C_8  and  N_9 
REMARK       I    between atoms: N_9  and  C_10 
REMARK    5  A    between atoms: C_10  and  C_11 
REMARK    6  A    between atoms: C_15  and  C_16 
ROOT
HETATM    1  N   UNL     1       7.709  30.712  60.421  1.00  0.00    -0.347 N 
HETATM    2  C   UNL     1       7.998  30.847  59.078  1.00  0.00     0.272 C 
HETATM    3  O   UNL     1       8.623  31.795  58.610  1.00  0.00    -0.266 OA
HETATM    4  H   UNL     1       7.274  29.832  60.678  1.00  0.00     0.163 HD
ENDROOT
BRANCH   2   5
HETATM    5  C   UNL     1       7.546  29.716  58.255  1.00  0.00     0.146 A 
HETATM    6  N   UNL     1       6.279  29.594  57.811  1.00  0.00    -0.169 NA
HETATM    7  N   UNL     1       6.277  28.407  57.173  1.00  0.00    -0.277 N 
HETATM    8  H   UNL     1       5.403  28.084  56.773  1.00  0.00     0.189 HD
HETATM    9  C   UNL     1       7.478  27.747  57.189  1.00  0.00     0.063 A 
HETATM   10  C   UNL     1       8.325  28.595  57.874  1.00  0.00     0.071 A 
BRANCH   9  11
HETATM   11  C   UNL     1       7.697  26.413  56.627  1.00  0.00    -0.008 A 
HETATM   12  C   UNL     1       7.199  26.053  55.367  1.00  0.00     0.014 A 
HETATM   13  C   UNL     1       7.411  24.768  54.857  1.00  0.00     0.001 A 
HETATM   14  C   UNL     1       8.123  23.828  55.598  1.00  0.00     0.000 A 
HETATM   15  C   UNL     1       8.630  24.171  56.847  1.00  0.00     0.001 A 
HETATM   16  C   UNL     1       8.419  25.456  57.357  1.00  0.00     0.014 A 
ENDBRANCH   9  11
ENDBRANCH   2   5
BRANCH   1  17
HETATM   17  C   UNL     1       8.390  31.519  61.410  1.00  0.00     0.114 C 
HETATM   18  C   UNL     1       9.574  30.753  62.011  1.00  0.00     0.037 C 
BRANCH  17  19
HETATM   19  C   UNL     1       7.453  31.998  62.504  1.00  0.00    -0.036 A 
HETATM   20  C   UNL     1       7.917  32.671  63.644  1.00  0.00     0.012 A 
HETATM   21  C   UNL     1       7.019  33.184  64.591  1.00  0.00     0.037 A 
HETATM   22  C   UNL     1       5.645  33.039  64.406  1.00  0.00     0.068 A 
HETATM   23  C   UNL     1       5.178  32.339  63.294  1.00  0.00     0.037 A 
HETATM   24  C   UNL     1       6.069  31.825  62.351  1.00  0.00     0.012 A 
BRANCH  22  25
HETATM   25  O   UNL     1       4.668  33.525  65.229  1.00  0.00    -0.352 OA
BRANCH  25  26
HETATM   26  C   UNL     1       3.672  34.352  64.626  1.00  0.00     0.171 C 
HETATM   27  C   UNL     1       3.905  35.778  65.093  1.00  0.00     0.034 C 
ENDBRANCH  25  26
ENDBRANCH  22  25
ENDBRANCH  17  19
ENDBRANCH   1  17
TORSDOF 6
ENDMDL
MODEL 3
REMARK VINA RESULT:      -8.9      2.053      9.752
REMARK  6 active torsions:
REMARK  status: ('A' for Active; 'I' for Inactive)
REMARK    1  A    between atoms: C_2  and  O_3 
REMARK    2  A    between atoms: O_3  and  C_4 
REMARK    3  A    between atoms: C_7  and  C_8 
REMARK    4  A    between atoms: C_8  and  N_9 
REMARK       I    between atoms: N_9  and  C_10 
REMARK    5  A    between atoms: C_10  and  C_11 
REMARK    6  A    between atoms: C_15  and  C_16 
ROOT
HETATM    1  N   UNL     1       7.448  27.611  57.059  1.00  0.00    -0.347 N 
HETATM    2  C   UNL     1       8.184  28.703  56.649  1.00  0.00     0.272 C 
HETATM    3  O   UNL     1       8.492  28.915  55.479  1.00  0.00    -0.266 OA
HETATM    4  H   UNL     1       7.184  27.615  58.038  1.00  0.00     0.163 HD
ENDROOT
BRANCH   2   5
HETATM    5  C   UNL     1       8.516  29.638  57.734  1.00  0.00     0.146 A 
HETATM    6  N   UNL     1       9.780  30.014  58.014  1.00  0.00    -0.169 NA
HETATM    7  N   UNL     1       9.647  30.800  59.100  1.00  0.00    -0.277 N 
HETATM    8  H   UNL     1      10.488  31.184  59.516  1.00  0.00     0.189 HD
HETATM    9  C   UNL     1       8.359  30.947  59.546  1.00  0.00     0.063 A 
HETATM   10  C   UNL     1       7.603  30.211  58.655  1.00  0.00     0.071 A 
BRANCH   9  11
HETATM   11  C   UNL     1       7.977  31.691  60.747  1.00  0.00    -0.008 A 
HETATM   12  C   UNL     1       8.682  31.558  61.951  1.00  0.00     0.014 A 
HETATM   13  C   UNL     1       8.290  32.270  63.090  1.00  0.00     0.001 A 
HETATM   14  C   UNL     1       7.191  33.125  63.039  1.00  0.00     0.000 A 
HETATM   15  C   UNL     1       6.485  33.273  61.849  1.00  0.00     0.001 A 
HETATM   16  C   UNL     1       6.877  32.561  60.712  1.00  0.00     0.014 A 
ENDBRANCH   9  11
ENDBRANCH   2   5
BRANCH   1  17
HETATM   17  C   UNL     1       6.725  26.803  56.101  1.00  0.00     0.114 C 
HETATM   18  C   UNL     1       5.321  26.472  56.621  1.00  0.00     0.037 C 
BRANCH  17  19
HETATM   19  C   UNL     1       7.473  25.534  55.738  1.00  0.00    -0.036 A 
HETATM   20  C   UNL     1       8.200  24.797  56.684  1.00  0.00     0.012 A 
HETATM   21  C   UNL     1       8.803  23.579  56.340  1.00  0.00     0.037 A 
HETATM   22  C   UNL     1       8.679  23.076  55.046  1.00  0.00     0.068 A 
HETATM   23  C   UNL     1       7.989  23.820  54.089  1.00  0.00     0.037 A 
HETATM   24  C   UNL     1       7.389  25.035  54.429  1.00  0.00     0.012 A 
BRANCH  22  25
HETATM   25  O   UNL     1       9.181  21.888  54.593  1.00  0.00    -0.352 OA
BRANCH  25  26
HETATM   26  C   UNL     1       8.237  20.851  54.326  1.00  0.00     0.171 C 
HETATM   27  C   UNL     1       8.405  20.428  52.878  1.00  0.00     0.034 C 
ENDBRANCH  25  26
ENDBRANCH  22  25
ENDBRANCH  17  19
ENDBRANCH   1  17
TORSDOF 6
ENDMDL
MODEL 4
REMARK VINA RESULT:      -8.7      2.283      9.987
REMARK  6 active torsions:
REMARK  status: ('A' for Active; 'I' for Inactive)
REMARK    1  A    between atoms: C_2  and  O_3 
REMARK    2  A    between atoms: O_3  and  C_4 
REMARK    3  A    between atoms: C_7  and  C_8 
REMARK    4  A    between atoms: C_8  and  N_9 
REMARK       I    between atoms: N_9  and  C_10 
REMARK    5  A    between atoms: C_10  and  C_11 
REMARK    6  A    between atoms: C_15  and  C_16 
ROOT
HETATM    1  N   UNL     1       7.564  29.373  58.434  1.00  0.00    -0.347 N 
HETATM    2  C   UNL     1       8.551  30.260  58.813  1.00  0.00     0.272 C 
HETATM    3  O   UNL     1       9.398  30.703  58.043  1.00  0.00    -0.266 OA
HETATM    4  H   UNL     1       6.875  29.168  59.150  1.00  0.00     0.163 HD
ENDROOT
BRANCH   2   5
HETATM    5  C   UNL     1       8.462  30.685  60.218  1.00  0.00     0.146 A 
HETATM    6  N   UNL     1       9.225  30.153  61.192  1.00  0.00    -0.169 NA
HETATM    7  N   UNL     1       8.783  30.759  62.312  1.00  0.00    -0.277 N 
HETATM    8  H   UNL     1       9.200  30.490  63.196  1.00  0.00     0.189 HD
HETATM    9  C   UNL     1       7.762  31.653  62.114  1.00  0.00     0.063 A 
HETATM   10  C   UNL     1       7.551  31.633  60.749  1.00  0.00     0.071 A 
BRANCH   9  11
HETATM   11  C   UNL     1       7.073  32.374  63.185  1.00  0.00    -0.008 A 
HETATM   12  C   UNL     1       5.674  32.405  63.271  1.00  0.00     0.014 A 
HETATM   13  C   UNL     1       5.038  33.112  64.296  1.00  0.00     0.001 A 
HETATM   14  C   UNL     1       5.790  33.795  65.248  1.00  0.00     0.000 A 
HETATM   15  C   UNL     1       7.180  33.769  65.181  1.00  0.00     0.001 A 
HETATM   16  C   UNL     1       7.815  33.062  64.156  1.00  0.00     0.014 A 
ENDBRANCH   9  11
ENDBRANCH   2   5
BRANCH   1  17
HETATM   17  C   UNL     1       7.270  29.144  57.036  1.00  0.00     0.114 C 
HETATM   18  C   UNL     1       5.850  29.612  56.698  1.00  0.00     0.037 C 
BRANCH  17  19
HETATM   19  C   UNL     1       7.464  27.693  56.638  1.00  0.00    -0.036 A 
HETATM   20  C   UNL     1       7.917  26.723  57.544  1.00  0.00     0.012 A 
HETATM   21  C   UNL     1       7.996  25.373  57.173  1.00  0.00     0.037 A 
HETATM   22  C   UNL     1       7.614  24.973  55.894  1.00  0.00     0.068 A 
HETATM   23  C   UNL     1       7.198  25.937  54.975  1.00  0.00     0.037 A 
HETATM   24  C   UNL     1       7.120  27.282  55.341  1.00  0.00     0.012 A 
BRANCH  22  25
HETATM   25  O   UNL     1       7.605  23.691  55.420  1.00  0.00    -0.352 OA
BRANCH  25  26
HETATM   26  C   UNL     1       7.451  23.527  54.011  1.00  0.00     0.171 C 
HETATM   27  C   UNL     1       7.834  22.100  53.662  1.00  0.00     0.034 C 
ENDBRANCH  25  26
ENDBRANCH  22  25
ENDBRANCH  17  19
ENDBRANCH   1  17
TORSDOF 6
ENDMDL
MODEL 5
REMARK VINA RESULT:      -8.7      2.458      9.554
REMARK  6 active torsions:
REMARK  status: ('A' for Active; 'I' for Inactive)
REMARK    1  A    between atoms: C_2  and  O_3 
REMARK    2  A    between atoms: O_3  and  C_4 
REMARK    3  A    between atoms: C_7  and  C_8 
REMARK    4  A    between atoms: C_8  and  N_9 
REMARK       I    between atoms: N_9  and  C_10 
REMARK    5  A    between atoms: C_10  and  C_11 
REMARK    6  A    between atoms: C_15  and  C_16 
ROOT
HETATM    1  N   UNL     1       6.718  27.342  55.304  1.00  0.00    -0.347 N 
HETATM    2  C   UNL     1       7.576  28.420  55.381  1.00  0.00     0.272 C 
HETATM    3  O   UNL     1       8.450  28.654  54.551  1.00  0.00    -0.266 OA
HETATM    4  H   UNL     1       5.983  27.329  56.002  1.00  0.00     0.163 HD
ENDROOT
BRANCH   2   5
HETATM    5  C   UNL     1       7.309  29.313  56.518  1.00  0.00     0.146 A 
HETATM    6  N   UNL     1       6.326  30.235  56.509  1.00  0.00    -0.169 NA
HETATM    7  N   UNL     1       6.472  30.870  57.688  1.00  0.00    -0.277 N 
HETATM    8  H   UNL     1       5.846  31.641  57.895  1.00  0.00     0.189 HD
HETATM    9  C   UNL     1       7.509  30.413  58.460  1.00  0.00     0.063 A 
HETATM   10  C   UNL     1       8.056  29.382  57.721  1.00  0.00     0.071 A 
BRANCH   9  11
HETATM   11  C   UNL     1       7.907  30.995  59.743  1.00  0.00    -0.008 A 
HETATM   12  C   UNL     1       9.059  30.570  60.419  1.00  0.00     0.014 A 
HETATM   13  C   UNL     1       9.411  31.133  61.650  1.00  0.00     0.001 A 
HETATM   14  C   UNL     1       8.619  32.127  62.220  1.00  0.00     0.000 A 
HETATM   15  C   UNL     1       7.476  32.564  61.558  1.00  0.00     0.001 A 
HETATM   16  C   UNL     1       7.124  32.002  60.328  1.00  0.00     0.014 A 
ENDBRANCH   9  11
ENDBRANCH   2   5
BRANCH   1  17
HETATM   17  C   UNL     1       6.587  26.587  54.076  1.00  0.00     0.114 C 
HETATM   18  C   UNL     1       5.110  26.344  53.745  1.00  0.00     0.037 C 
BRANCH  17  19
HETATM   19  C   UNL     1       7.346  25.274  54.126  1.00  0.00    -0.036 A 
HETATM   20  C   UNL     1       7.898  24.773  55.314  1.00  0.00     0.012 A 
HETATM   21  C   UNL     1       8.512  23.513  55.348  1.00  0.00     0.037 A 
HETATM   22  C   UNL     1       8.574  22.733  54.195  1.00  0.00     0.068 A 
HETATM   23  C   UNL     1       8.062  23.239  53.001  1.00  0.00     0.037 A 
HETATM   24  C   UNL     1       7.451  24.494  52.964  1.00  0.00     0.012 A 
BRANCH  22  25
HETATM   25  O   UNL     1       9.107  21.477  54.101  1.00  0.00    -0.352 OA
BRANCH  25  26
HETATM   26  C   UNL     1       8.219  20.383  54.329  1.00  0.00     0.171 C 
HETATM   27  C   UNL     1       8.279  20.032  55.804  1.00  0.00     0.034 C 
ENDBRANCH  25  26
ENDBRANCH  22  25
ENDBRANCH  17  19
ENDBRANCH   1  17
TORSDOF 6
ENDMDL
MODEL 6
REMARK VINA RESULT:      -8.4      2.367      9.832
REMARK  6 active torsions:
REMARK  status: ('A' for Active; 'I' for Inactive)
REMARK    1  A    between atoms: C_2  and  O_3 
REMARK    2  A    between atoms: O_3  and  C_4 
REMARK    3  A    between atoms: C_7  and  C_8 
REMARK    4  A    between atoms: C_8  and  N_9 
REMARK       I    between atoms: N_9  and  C_10 
REMARK    5  A    between atoms: C_10  and  C_11 
REMARK    6  A    between atoms: C_15  and  C_16 
ROOT
HETATM    1  N   UNL     1       6.854  28.548  56.192  1.00  0.00    -0.347 N 
HETATM    2  C   UNL     1       6.631  29.854  56.578  1.00  0.00     0.272 C 
HETATM    3  O   UNL     1       6.010  30.666  55.898  1.00  0.00    -0.266 OA
HETATM    4  H   UNL     1       7.294  27.963  56.895  1.00  0.00     0.163 HD
ENDROOT
BRANCH   2   5
HETATM    5  C   UNL     1       7.147  30.176  57.916  1.00  0.00     0.146 A 
HETATM    6  N   UNL     1       8.032  29.395  58.566  1.00  0.00    -0.169 NA
HETATM    7  N   UNL     1       8.179  30.002  59.760  1.00  0.00    -0.277 N 
HETATM    8  H   UNL     1       8.790  29.569  60.443  1.00  0.00     0.189 HD
HETATM    9  C   UNL     1       7.424  31.135  59.922  1.00  0.00     0.063 A 
HETATM   10  C   UNL     1       6.758  31.276  58.721  1.00  0.00     0.071 A 
BRANCH   9  11
HETATM   11  C   UNL     1       7.361  31.920  61.156  1.00  0.00    -0.008 A 
HETATM   12  C   UNL     1       6.513  33.029  61.282  1.00  0.00     0.014 A 
HETATM   13  C   UNL     1       6.480  33.771  62.468  1.00  0.00     0.001 A 
HETATM   14  C   UNL     1       7.292  33.413  63.541  1.00  0.00     0.000 A 
HETATM   15  C   UNL     1       8.134  32.311  63.435  1.00  0.00     0.001 A 
HETATM   16  C   UNL     1       8.167  31.569  62.250  1.00  0.00     0.014 A 
ENDBRANCH   9  11
ENDBRANCH   2   5
BRANCH   1  17
HETATM   17  C   UNL     1       6.107  27.959  55.102  1.00  0.00     0.114 C 
HETATM   18  C   UNL     1       4.634  27.782  55.487  1.00  0.00     0.037 C 
BRANCH  17  19
HETATM   19  C   UNL     1       6.702  26.640  54.645  1.00  0.00    -0.036 A 
HETATM   20  C   UNL     1       7.276  26.478  53.375  1.00  0.00     0.012 A 
HETATM   21  C   UNL     1       7.901  25.275  53.016  1.00  0.00     0.037 A 
HETATM   22  C   UNL     1       7.968  24.221  53.925  1.00  0.00     0.068 A 
HETATM   23  C   UNL     1       7.368  24.361  55.176  1.00  0.00     0.037 A 
HETATM   24  C   UNL     1       6.743  25.557  55.536  1.00  0.00     0.012 A 
BRANCH  22  25
HETATM   25  O   UNL     1       8.580  23.017  53.717  1.00  0.00    -0.352 OA
BRANCH  25  26
HETATM   26  C   UNL     1       7.879  21.854  54.160  1.00  0.00     0.171 C 
HETATM   27  C   UNL     1       8.026  20.786  53.092  1.00  0.00     0.034 C 
ENDBRANCH  25  26
ENDBRANCH  22  25
ENDBRANCH  17  19
ENDBRANCH   1  17
TORSDOF 6
ENDMDL
MODEL 7
REMARK VINA RESULT:      -8.3      1.647      2.965
REMARK  6 active torsions:
REMARK  status: ('A' for Active; 'I' for Inactive)
REMARK    1  A    between atoms: C_2  and  O_3 
REMARK    2  A    between atoms: O_3  and  C_4 
REMARK    3  A    between atoms: C_7  and  C_8 
REMARK    4  A    between atoms: C_8  and  N_9 
REMARK       I    between atoms: N_9  and  C_10 
REMARK    5  A    between atoms: C_10  and  C_11 
REMARK    6  A    between atoms: C_15  and  C_16 
ROOT
HETATM    1  N   UNL     1       7.803  29.996  58.971  1.00  0.00    -0.347 N 
HETATM    2  C   UNL     1       7.159  29.680  57.793  1.00  0.00     0.272 C 
HETATM    3  O   UNL     1       6.561  30.502  57.104  1.00  0.00    -0.266 OA
HETATM    4  H   UNL     1       8.338  29.239  59.383  1.00  0.00     0.163 HD
ENDROOT
BRANCH   2   5
HETATM    5  C   UNL     1       7.305  28.273  57.393  1.00  0.00     0.146 A 
HETATM    6  N   UNL     1       7.767  27.320  58.227  1.00  0.00    -0.169 NA
HETATM    7  N   UNL     1       7.811  26.215  57.456  1.00  0.00    -0.277 N 
HETATM    8  H   UNL     1       8.163  25.359  57.871  1.00  0.00     0.189 HD
HETATM    9  C   UNL     1       7.409  26.405  56.160  1.00  0.00     0.063 A 
HETATM   10  C   UNL     1       7.056  27.739  56.104  1.00  0.00     0.071 A 
BRANCH   9  11
HETATM   11  C   UNL     1       7.441  25.373  55.122  1.00  0.00    -0.008 A 
HETATM   12  C   UNL     1       6.936  25.605  53.836  1.00  0.00     0.014 A 
HETATM   13  C   UNL     1       6.966  24.599  52.865  1.00  0.00     0.001 A 
HETATM   14  C   UNL     1       7.502  23.349  53.167  1.00  0.00     0.000 A 
HETATM   15  C   UNL     1       8.013  23.104  54.437  1.00  0.00     0.001 A 
HETATM   16  C   UNL     1       7.983  24.110  55.407  1.00  0.00     0.014 A 
ENDBRANCH   9  11
ENDBRANCH   2   5
BRANCH   1  17
HETATM   17  C   UNL     1       8.083  31.373  59.317  1.00  0.00     0.114 C 
HETATM   18  C   UNL     1       9.578  31.675  59.171  1.00  0.00     0.037 C 
BRANCH  17  19
HETATM   19  C   UNL     1       7.600  31.724  60.713  1.00  0.00    -0.036 A 
HETATM   20  C   UNL     1       8.483  31.888  61.790  1.00  0.00     0.012 A 
HETATM   21  C   UNL     1       8.017  32.305  63.045  1.00  0.00     0.037 A 
HETATM   22  C   UNL     1       6.663  32.572  63.237  1.00  0.00     0.068 A 
HETATM   23  C   UNL     1       5.773  32.376  62.181  1.00  0.00     0.037 A 
HETATM   24  C   UNL     1       6.234  31.959  60.931  1.00  0.00     0.012 A 
BRANCH  22  25
HETATM   25  O   UNL     1       6.087  33.020  64.393  1.00  0.00    -0.352 OA
BRANCH  25  26
HETATM   26  C   UNL     1       6.517  34.294  64.873  1.00  0.00     0.171 C 
HETATM   27  C   UNL     1       5.767  35.362  64.098  1.00  0.00     0.034 C 
ENDBRANCH  25  26
ENDBRANCH  22  25
ENDBRANCH  17  19
ENDBRANCH   1  17
TORSDOF 6
ENDMDL
MODEL 8
REMARK VINA RESULT:      -8.1      5.830      9.083
REMARK  6 active torsions:
REMARK  status: ('A' for Active; 'I' for Inactive)
REMARK    1  A    between atoms: C_2  and  O_3 
REMARK    2  A    between atoms: O_3  and  C_4 
REMARK    3  A    between atoms: C_7  and  C_8 
REMARK    4  A    between atoms: C_8  and  N_9 
REMARK       I    between atoms: N_9  and  C_10 
REMARK    5  A    between atoms: C_10  and  C_11 
REMARK    6  A    between atoms: C_15  and  C_16 
ROOT
HETATM    1  N   UNL     1       5.284  27.248  52.687  1.00  0.00    -0.347 N 
HETATM    2  C   UNL     1       6.128  27.251  53.778  1.00  0.00     0.272 C 
HETATM    3  O   UNL     1       6.576  28.275  54.287  1.00  0.00    -0.266 OA
HETATM    4  H   UNL     1       4.914  26.338  52.435  1.00  0.00     0.163 HD
ENDROOT
BRANCH   2   5
HETATM    5  C   UNL     1       6.399  25.914  54.326  1.00  0.00     0.146 A 
HETATM    6  N   UNL     1       6.241  25.614  55.630  1.00  0.00    -0.169 NA
HETATM    7  N   UNL     1       6.658  24.335  55.716  1.00  0.00    -0.277 N 
HETATM    8  H   UNL     1       6.657  23.894  56.629  1.00  0.00     0.189 HD
HETATM    9  C   UNL     1       7.088  23.793  54.533  1.00  0.00     0.063 A 
HETATM   10  C   UNL     1       6.908  24.803  53.609  1.00  0.00     0.071 A 
BRANCH   9  11
HETATM   11  C   UNL     1       7.654  22.450  54.394  1.00  0.00    -0.008 A 
HETATM   12  C   UNL     1       7.974  21.911  53.140  1.00  0.00     0.014 A 
HETATM   13  C   UNL     1       8.501  20.620  53.032  1.00  0.00     0.001 A 
HETATM   14  C   UNL     1       8.716  19.853  54.174  1.00  0.00     0.000 A 
HETATM   15  C   UNL     1       8.410  20.375  55.426  1.00  0.00     0.001 A 
HETATM   16  C   UNL     1       7.883  21.665  55.534  1.00  0.00     0.014 A 
ENDBRANCH   9  11
ENDBRANCH   2   5
BRANCH   1  17
HETATM   17  C   UNL     1       4.619  28.461  52.260  1.00  0.00     0.114 C 
HETATM   18  C   UNL     1       3.463  28.807  53.205  1.00  0.00     0.037 C 
BRANCH  17  19
HETATM   19  C   UNL     1       4.129  28.373  50.826  1.00  0.00    -0.036 A 
HETATM   20  C   UNL     1       4.855  27.708  49.827  1.00  0.00     0.012 A 
HETATM   21  C   UNL     1       4.332  27.563  48.534  1.00  0.00     0.037 A 
HETATM   22  C   UNL     1       3.073  28.074  48.225  1.00  0.00     0.068 A 
HETATM   23  C   UNL     1       2.361  28.770  49.203  1.00  0.00     0.037 A 
HETATM   24  C   UNL     1       2.880  28.917  50.491  1.00  0.00     0.012 A 
BRANCH  22  25
HETATM   25  O   UNL     1       2.434  27.967  47.022  1.00  0.00    -0.352 OA
BRANCH  25  26
HETATM   26  C   UNL     1       1.495  26.901  46.885  1.00  0.00     0.171 C 
HETATM   27  C   UNL     1       0.168  27.501  46.455  1.00  0.00     0.034 C 
ENDBRANCH  25  26
ENDBRANCH  22  25
ENDBRANCH  17  19
ENDBRANCH   1  17
TORSDOF 6
ENDMDL
MODEL 9
REMARK VINA RESULT:      -8.1      2.617      3.753
REMARK  6 active torsions:
REMARK  status: ('A' for Active; 'I' for Inactive)
REMARK    1  A    between atoms: C_2  and  O_3 
REMARK    2  A    between atoms: O_3  and  C_4 
REMARK    3  A    between atoms: C_7  and  C_8 
REMARK    4  A    between atoms: C_8  and  N_9 
REMARK       I    between atoms: N_9  and  C_10 
REMARK    5  A    between atoms: C_10  and  C_11 
REMARK    6  A    between atoms: C_15  and  C_16 
ROOT
HETATM    1  N   UNL     1       4.874  27.190  55.009  1.00  0.00    -0.347 N 
HETATM    2  C   UNL     1       5.838  27.335  54.032  1.00  0.00     0.272 C 
HETATM    3  O   UNL     1       6.202  28.423  53.594  1.00  0.00    -0.266 OA
HETATM    4  H   UNL     1       4.745  26.242  55.345  1.00  0.00     0.163 HD
ENDROOT
BRANCH   2   5
HETATM    5  C   UNL     1       6.447  26.067  53.604  1.00  0.00     0.146 A 
HETATM    6  N   UNL     1       6.665  25.762  52.309  1.00  0.00    -0.169 NA
HETATM    7  N   UNL     1       7.158  24.509  52.355  1.00  0.00    -0.277 N 
HETATM    8  H   UNL     1       7.374  24.050  51.477  1.00  0.00     0.189 HD
HETATM    9  C   UNL     1       7.262  23.980  53.615  1.00  0.00     0.063 A 
HETATM   10  C   UNL     1       6.820  24.991  54.447  1.00  0.00     0.071 A 
BRANCH   9  11
HETATM   11  C   UNL     1       7.699  22.614  53.908  1.00  0.00    -0.008 A 
HETATM   12  C   UNL     1       8.141  21.750  52.897  1.00  0.00     0.014 A 
HETATM   13  C   UNL     1       8.542  20.444  53.199  1.00  0.00     0.001 A 
HETATM   14  C   UNL     1       8.507  19.987  54.515  1.00  0.00     0.000 A 
HETATM   15  C   UNL     1       8.077  20.835  55.531  1.00  0.00     0.001 A 
HETATM   16  C   UNL     1       7.677  22.140  55.228  1.00  0.00     0.014 A 
ENDBRANCH   9  11
ENDBRANCH   2   5
BRANCH   1  17
HETATM   17  C   UNL     1       4.448  28.322  55.803  1.00  0.00     0.114 C 
HETATM   18  C   UNL     1       3.968  29.466  54.903  1.00  0.00     0.037 C 
BRANCH  17  19
HETATM   19  C   UNL     1       5.535  28.804  56.746  1.00  0.00    -0.036 A 
HETATM   20  C   UNL     1       6.564  27.963  57.193  1.00  0.00     0.012 A 
HETATM   21  C   UNL     1       7.607  28.461  57.988  1.00  0.00     0.037 A 
HETATM   22  C   UNL     1       7.638  29.810  58.339  1.00  0.00     0.068 A 
HETATM   23  C   UNL     1       6.598  30.645  57.929  1.00  0.00     0.037 A 
HETATM   24  C   UNL     1       5.558  30.151  57.139  1.00  0.00     0.012 A 
BRANCH  22  25
HETATM   25  O   UNL     1       8.612  30.428  59.071  1.00  0.00    -0.352 OA
BRANCH  25  26
HETATM   26  C   UNL     1       8.194  31.106  60.256  1.00  0.00     0.171 C 
HETATM   27  C   UNL     1       9.271  32.111  60.624  1.00  0.00     0.034 C 
ENDBRANCH  25  26
ENDBRANCH  22  25
ENDBRANCH  17  19
ENDBRANCH   1  17
TORSDOF 6
ENDMDL
MODEL 10
REMARK VINA RESULT:      -8.1      7.349      8.798
REMARK  6 active torsions:
REMARK  status: ('A' for Active; 'I' for Inactive)
REMARK    1  A    between atoms: C_2  and  O_3 
REMARK    2  A    between atoms: O_3  and  C_4 
REMARK    3  A    between atoms: C_7  and  C_8 
REMARK    4  A    between atoms: C_8  and  N_9 
REMARK       I    between atoms: N_9  and  C_10 
REMARK    5  A    between atoms: C_10  and  C_11 
REMARK    6  A    between atoms: C_15  and  C_16 
ROOT
HETATM    1  N   UNL     1       5.531  26.524  50.271  1.00  0.00    -0.347 N 
HETATM    2  C   UNL     1       5.425  26.352  51.636  1.00  0.00     0.272 C 
HETATM    3  O   UNL     1       4.546  26.869  52.320  1.00  0.00    -0.266 OA
HETATM    4  H   UNL     1       6.244  25.959  49.823  1.00  0.00     0.163 HD
ENDROOT
BRANCH   2   5
HETATM    5  C   UNL     1       6.425  25.434  52.200  1.00  0.00     0.146 A 
HETATM    6  N   UNL     1       7.744  25.541  51.943  1.00  0.00    -0.169 NA
HETATM    7  N   UNL     1       8.281  24.484  52.582  1.00  0.00    -0.277 N 
HETATM    8  H   UNL     1       9.282  24.339  52.504  1.00  0.00     0.189 HD
HETATM    9  C   UNL     1       7.375  23.688  53.234  1.00  0.00     0.063 A 
HETATM   10  C   UNL     1       6.159  24.303  53.013  1.00  0.00     0.071 A 
BRANCH   9  11
HETATM   11  C   UNL     1       7.714  22.447  53.932  1.00  0.00    -0.008 A 
HETATM   12  C   UNL     1       7.543  22.310  55.316  1.00  0.00     0.014 A 
HETATM   13  C   UNL     1       7.886  21.118  55.964  1.00  0.00     0.001 A 
HETATM   14  C   UNL     1       8.403  20.049  55.236  1.00  0.00     0.000 A 
HETATM   15  C   UNL     1       8.573  20.166  53.860  1.00  0.00     0.001 A 
HETATM   16  C   UNL     1       8.230  21.357  53.214  1.00  0.00     0.014 A 
ENDBRANCH   9  11
ENDBRANCH   2   5
BRANCH   1  17
HETATM   17  C   UNL     1       4.433  27.074  49.506  1.00  0.00     0.114 C 
HETATM   18  C   UNL     1       4.296  26.353  48.160  1.00  0.00     0.037 C 
BRANCH  17  19
HETATM   19  C   UNL     1       4.570  28.571  49.299  1.00  0.00    -0.036 A 
HETATM   20  C   UNL     1       5.724  29.276  49.675  1.00  0.00     0.012 A 
HETATM   21  C   UNL     1       5.860  30.641  49.385  1.00  0.00     0.037 A 
HETATM   22  C   UNL     1       4.847  31.318  48.707  1.00  0.00     0.068 A 
HETATM   23  C   UNL     1       3.681  30.634  48.363  1.00  0.00     0.037 A 
HETATM   24  C   UNL     1       3.543  29.275  48.652  1.00  0.00     0.012 A 
BRANCH  22  25
HETATM   25  O   UNL     1       4.871  32.632  48.331  1.00  0.00    -0.352 OA
BRANCH  25  26
HETATM   26  C   UNL     1       5.885  33.017  47.403  1.00  0.00     0.171 C 
HETATM   27  C   UNL     1       6.904  33.860  48.150  1.00  0.00     0.034 C 
ENDBRANCH  25  26
ENDBRANCH  22  25
ENDBRANCH  17  19
ENDBRANCH   1  17
TORSDOF 6
ENDMDL
