MODEL 1
REMARK VINA RESULT:      -8.9      0.000      0.000
REMARK  4 active torsions:
REMARK  status: ('A' for Active; 'I' for Inactive)
REMARK    1  A    between atoms: C_4  and  C_5 
REMARK    2  A    between atoms: C_7  and  N_8 
REMARK       I    between atoms: N_8  and  C_9 
REMARK    3  A    between atoms: C_9  and  C_10 
REMARK    4  A    between atoms: C_10  and  C_11 
ROOT
HETATM    1  C   UNL     1       6.856  24.862  54.681  1.00  0.00     0.019 A 
HETATM    2  C   UNL     1       7.723  25.821  55.238  1.00  0.00     0.045 A 
HETATM    3  C   UNL     1       7.325  27.154  55.384  1.00  0.00     0.035 A 
HETATM    4  C   UNL     1       6.041  27.528  54.965  1.00  0.00     0.029 A 
HETATM    5  C   UNL     1       5.169  26.589  54.416  1.00  0.00     0.003 A 
HETATM    6  C   UNL     1       5.576  25.265  54.274  1.00  0.00     0.016 A 
ENDROOT
BRANCH   3   7
HETATM    7  N   UNL     1       8.137  28.172  55.928  1.00  0.00    -0.327 N 
HETATM    8  C   UNL     1       8.444  28.397  57.264  1.00  0.00     0.227 C 
HETATM    9  O   UNL     1       8.020  27.746  58.217  1.00  0.00    -0.273 OA
HETATM   10  H   UNL     1       8.529  28.821  55.257  1.00  0.00     0.169 HD
BRANCH   8  11
HETATM   11  C   UNL     1       9.341  29.626  57.447  1.00  0.00     0.159 C 
BRANCH  11  12
HETATM   12  C   UNL     1       9.016  30.450  58.656  1.00  0.00     0.017 A 
HETATM   13  N   UNL     1       7.941  30.187  59.478  1.00  0.00    -0.369 N 
HETATM   14  H   UNL     1       7.310  29.398  59.360  1.00  0.00     0.165 HD
HETATM   15  C   UNL     1       7.882  31.122  60.476  1.00  0.00     0.088 A 
HETATM   16  C   UNL     1       8.924  32.000  60.300  1.00  0.00     0.019 A 
HETATM   17  C   UNL     1       9.640  31.579  59.153  1.00  0.00     0.027 A 
ENDBRANCH  11  12
ENDBRANCH   8  11
ENDBRANCH   3   7
BRANCH   1  18
HETATM   18  C   UNL     1       7.250  23.465  54.509  1.00  0.00     0.180 A 
HETATM   19  N   UNL     1       7.536  22.814  53.396  1.00  0.00    -0.226 NA
HETATM   20  C   UNL     1       7.842  21.539  53.817  1.00  0.00     0.063 A 
HETATM   21  C   UNL     1       8.232  20.488  52.856  1.00  0.00     0.073 C 
HETATM   22  C   UNL     1       7.716  21.466  55.188  1.00  0.00     0.076 A 
HETATM   23  O   UNL     1       7.341  22.698  55.641  1.00  0.00    -0.294 OA
HETATM   24  C   UNL     1       7.900  20.405  56.192  1.00  0.00     0.079 C 
ENDBRANCH   1  18
TORSDOF 4
ENDMDL
MODEL 2
REMARK VINA RESULT:      -8.6      1.293      1.706
REMARK  4 active torsions:
REMARK  status: ('A' for Active; 'I' for Inactive)
REMARK    1  A    between atoms: C_4  and  C_5 
REMARK    2  A    between atoms: C_7  and  N_8 
REMARK       I    between atoms: N_8  and  C_9 
REMARK    3  A    between atoms: C_9  and  C_10 
REMARK    4  A    between atoms: C_10  and  C_11 
ROOT
HETATM    1  C   UNL     1       6.559  24.494  54.311  1.00  0.00     0.019 A 
HETATM    2  C   UNL     1       6.979  25.461  55.243  1.00  0.00     0.045 A 
HETATM    3  C   UNL     1       6.397  26.732  55.276  1.00  0.00     0.035 A 
HETATM    4  C   UNL     1       5.380  27.036  54.360  1.00  0.00     0.029 A 
HETATM    5  C   UNL     1       4.950  26.088  53.432  1.00  0.00     0.003 A 
HETATM    6  C   UNL     1       5.538  24.826  53.408  1.00  0.00     0.016 A 
ENDROOT
BRANCH   3   7
HETATM    7  N   UNL     1       6.766  27.755  56.176  1.00  0.00    -0.327 N 
HETATM    8  C   UNL     1       7.385  27.620  57.413  1.00  0.00     0.227 C 
HETATM    9  O   UNL     1       7.691  26.558  57.950  1.00  0.00    -0.273 OA
HETATM   10  H   UNL     1       6.537  28.696  55.883  1.00  0.00     0.169 HD
BRANCH   8  11
HETATM   11  C   UNL     1       7.595  28.975  58.098  1.00  0.00     0.159 C 
BRANCH  11  12
HETATM   12  C   UNL     1       8.935  29.594  57.837  1.00  0.00     0.017 A 
HETATM   13  N   UNL     1       9.896  29.002  57.047  1.00  0.00    -0.369 N 
HETATM   14  H   UNL     1       9.765  28.126  56.548  1.00  0.00     0.165 HD
HETATM   15  C   UNL     1      11.019  29.784  57.019  1.00  0.00     0.088 A 
HETATM   16  C   UNL     1      10.787  30.891  57.800  1.00  0.00     0.019 A 
HETATM   17  C   UNL     1       9.474  30.774  58.316  1.00  0.00     0.027 A 
ENDBRANCH  11  12
ENDBRANCH   8  11
ENDBRANCH   3   7
BRANCH   1  18
HETATM   18  C   UNL     1       7.157  23.162  54.250  1.00  0.00     0.180 A 
HETATM   19  N   UNL     1       7.600  22.498  53.198  1.00  0.00    -0.226 NA
HETATM   20  C   UNL     1       8.057  21.307  53.715  1.00  0.00     0.063 A 
HETATM   21  C   UNL     1       8.651  20.271  52.845  1.00  0.00     0.073 C 
HETATM   22  C   UNL     1       7.859  21.293  55.080  1.00  0.00     0.076 A 
HETATM   23  O   UNL     1       7.285  22.481  55.432  1.00  0.00    -0.294 OA
HETATM   24  C   UNL     1       8.128  20.328  56.158  1.00  0.00     0.079 C 
ENDBRANCH   1  18
TORSDOF 4
ENDMDL
MODEL 3
REMARK VINA RESULT:      -8.4      4.105      7.136
REMARK  4 active torsions:
REMARK  status: ('A' for Active; 'I' for Inactive)
REMARK    1  A    between atoms: C_4  and  C_5 
REMARK    2  A    between atoms: C_7  and  N_8 
REMARK       I    between atoms: N_8  and  C_9 
REMARK    3  A    between atoms: C_9  and  C_10 
REMARK    4  A    between atoms: C_10  and  C_11 
ROOT
HETATM    1  C   UNL     1       6.471  24.598  54.305  1.00  0.00     0.019 A 
HETATM    2  C   UNL     1       5.730  25.117  53.228  1.00  0.00     0.045 A 
HETATM    3  C   UNL     1       5.150  26.388  53.296  1.00  0.00     0.035 A 
HETATM    4  C   UNL     1       5.316  27.147  54.463  1.00  0.00     0.029 A 
HETATM    5  C   UNL     1       6.052  26.649  55.538  1.00  0.00     0.003 A 
HETATM    6  C   UNL     1       6.623  25.382  55.459  1.00  0.00     0.016 A 
ENDROOT
BRANCH   3   7
HETATM    7  N   UNL     1       4.391  26.974  52.261  1.00  0.00    -0.327 N 
HETATM    8  C   UNL     1       4.755  28.023  51.425  1.00  0.00     0.227 C 
HETATM    9  O   UNL     1       5.812  28.647  51.475  1.00  0.00    -0.273 OA
HETATM   10  H   UNL     1       3.466  26.586  52.126  1.00  0.00     0.169 HD
BRANCH   8  11
HETATM   11  C   UNL     1       3.636  28.386  50.442  1.00  0.00     0.159 C 
BRANCH  11  12
HETATM   12  C   UNL     1       3.472  27.414  49.312  1.00  0.00     0.017 A 
HETATM   13  N   UNL     1       2.244  27.053  48.802  1.00  0.00    -0.369 N 
HETATM   14  H   UNL     1       1.358  27.441  49.117  1.00  0.00     0.165 HD
HETATM   15  C   UNL     1       2.409  26.131  47.804  1.00  0.00     0.088 A 
HETATM   16  C   UNL     1       3.755  25.889  47.667  1.00  0.00     0.019 A 
HETATM   17  C   UNL     1       4.427  26.695  48.616  1.00  0.00     0.027 A 
ENDBRANCH  11  12
ENDBRANCH   8  11
ENDBRANCH   3   7
BRANCH   1  18
HETATM   18  C   UNL     1       7.079  23.270  54.263  1.00  0.00     0.180 A 
HETATM   19  N   UNL     1       7.516  22.589  53.219  1.00  0.00    -0.226 NA
HETATM   20  C   UNL     1       7.989  21.412  53.754  1.00  0.00     0.063 A 
HETATM   21  C   UNL     1       8.582  20.365  52.897  1.00  0.00     0.073 C 
HETATM   22  C   UNL     1       7.808  21.423  55.120  1.00  0.00     0.076 A 
HETATM   23  O   UNL     1       7.228  22.613  55.456  1.00  0.00    -0.294 OA
HETATM   24  C   UNL     1       8.098  20.482  56.214  1.00  0.00     0.079 C 
ENDBRANCH   1  18
TORSDOF 4
ENDMDL
MODEL 4
REMARK VINA RESULT:      -8.4      2.004      9.034
REMARK  4 active torsions:
REMARK  status: ('A' for Active; 'I' for Inactive)
REMARK    1  A    between atoms: C_4  and  C_5 
REMARK    2  A    between atoms: C_7  and  N_8 
REMARK       I    between atoms: N_8  and  C_9 
REMARK    3  A    between atoms: C_9  and  C_10 
REMARK    4  A    between atoms: C_10  and  C_11 
ROOT
HETATM    1  C   UNL     1       8.625  30.345  59.025  1.00  0.00     0.019 A 
HETATM    2  C   UNL     1       7.874  29.293  58.469  1.00  0.00     0.045 A 
HETATM    3  C   UNL     1       8.359  28.557  57.383  1.00  0.00     0.035 A 
HETATM    4  C   UNL     1       9.613  28.882  56.848  1.00  0.00     0.029 A 
HETATM    5  C   UNL     1      10.371  29.919  57.390  1.00  0.00     0.003 A 
HETATM    6  C   UNL     1       9.878  30.646  58.471  1.00  0.00     0.016 A 
ENDROOT
BRANCH   3   7
HETATM    7  N   UNL     1       7.664  27.492  56.769  1.00  0.00    -0.327 N 
HETATM    8  C   UNL     1       7.607  26.164  57.174  1.00  0.00     0.227 C 
HETATM    9  O   UNL     1       8.194  25.683  58.140  1.00  0.00    -0.273 OA
HETATM   10  H   UNL     1       7.160  27.732  55.925  1.00  0.00     0.169 HD
BRANCH   8  11
HETATM   11  C   UNL     1       6.764  25.311  56.220  1.00  0.00     0.159 C 
BRANCH  11  12
HETATM   12  C   UNL     1       7.536  24.241  55.508  1.00  0.00     0.017 A 
HETATM   13  N   UNL     1       8.595  23.570  56.080  1.00  0.00    -0.369 N 
HETATM   14  H   UNL     1       8.913  23.713  57.035  1.00  0.00     0.165 HD
HETATM   15  C   UNL     1       9.118  22.679  55.183  1.00  0.00     0.088 A 
HETATM   16  C   UNL     1       8.394  22.772  54.018  1.00  0.00     0.019 A 
HETATM   17  C   UNL     1       7.397  23.757  54.220  1.00  0.00     0.027 A 
ENDBRANCH  11  12
ENDBRANCH   8  11
ENDBRANCH   3   7
BRANCH   1  18
HETATM   18  C   UNL     1       8.138  31.136  60.154  1.00  0.00     0.180 A 
HETATM   19  N   UNL     1       8.639  31.241  61.371  1.00  0.00    -0.226 NA
HETATM   20  C   UNL     1       7.789  32.113  62.014  1.00  0.00     0.063 A 
HETATM   21  C   UNL     1       8.016  32.506  63.420  1.00  0.00     0.073 C 
HETATM   22  C   UNL     1       6.787  32.499  61.149  1.00  0.00     0.076 A 
HETATM   23  O   UNL     1       7.005  31.879  59.952  1.00  0.00    -0.294 OA
HETATM   24  C   UNL     1       5.617  33.386  61.247  1.00  0.00     0.079 C 
ENDBRANCH   1  18
TORSDOF 4
ENDMDL
MODEL 5
REMARK VINA RESULT:      -8.3      8.579     13.840
REMARK  4 active torsions:
REMARK  status: ('A' for Active; 'I' for Inactive)
REMARK    1  A    between atoms: C_4  and  C_5 
REMARK    2  A    between atoms: C_7  and  N_8 
REMARK       I    between atoms: N_8  and  C_9 
REMARK    3  A    between atoms: C_9  and  C_10 
REMARK    4  A    between atoms: C_10  and  C_11 
ROOT
HETATM    1  C   UNL     1       5.240  34.445  67.178  1.00  0.00     0.019 A 
HETATM    2  C   UNL     1       5.723  33.999  65.934  1.00  0.00     0.045 A 
HETATM    3  C   UNL     1       4.961  34.147  64.770  1.00  0.00     0.035 A 
HETATM    4  C   UNL     1       3.700  34.751  64.856  1.00  0.00     0.029 A 
HETATM    5  C   UNL     1       3.209  35.202  66.081  1.00  0.00     0.003 A 
HETATM    6  C   UNL     1       3.975  35.048  67.234  1.00  0.00     0.016 A 
ENDROOT
BRANCH   3   7
HETATM    7  N   UNL     1       5.374  33.722  63.488  1.00  0.00    -0.327 N 
HETATM    8  C   UNL     1       5.256  32.455  62.931  1.00  0.00     0.227 C 
HETATM    9  O   UNL     1       4.788  31.466  63.490  1.00  0.00    -0.273 OA
HETATM   10  H   UNL     1       5.821  34.429  62.919  1.00  0.00     0.169 HD
BRANCH   8  11
HETATM   11  C   UNL     1       5.852  32.393  61.519  1.00  0.00     0.159 C 
BRANCH  11  12
HETATM   12  C   UNL     1       7.264  31.895  61.471  1.00  0.00     0.017 A 
HETATM   13  N   UNL     1       7.688  30.768  62.141  1.00  0.00    -0.369 N 
HETATM   14  H   UNL     1       7.078  30.163  62.686  1.00  0.00     0.165 HD
HETATM   15  C   UNL     1       9.028  30.582  61.934  1.00  0.00     0.088 A 
HETATM   16  C   UNL     1       9.479  31.597  61.125  1.00  0.00     0.019 A 
HETATM   17  C   UNL     1       8.370  32.426  60.832  1.00  0.00     0.027 A 
ENDBRANCH  11  12
ENDBRANCH   8  11
ENDBRANCH   3   7
BRANCH   1  18
HETATM   18  C   UNL     1       6.011  34.294  68.410  1.00  0.00     0.180 A 
HETATM   19  N   UNL     1       7.226  34.729  68.689  1.00  0.00    -0.226 NA
HETATM   20  C   UNL     1       7.449  34.311  69.981  1.00  0.00     0.063 A 
HETATM   21  C   UNL     1       8.717  34.615  70.676  1.00  0.00     0.073 C 
HETATM   22  C   UNL     1       6.347  33.620  70.437  1.00  0.00     0.076 A 
HETATM   23  O   UNL     1       5.417  33.607  69.437  1.00  0.00    -0.294 OA
HETATM   24  C   UNL     1       5.992  32.947  71.697  1.00  0.00     0.079 C 
ENDBRANCH   1  18
TORSDOF 4
ENDMDL
MODEL 6
REMARK VINA RESULT:      -8.1      1.705      2.158
REMARK  4 active torsions:
REMARK  status: ('A' for Active; 'I' for Inactive)
REMARK    1  A    between atoms: C_4  and  C_5 
REMARK    2  A    between atoms: C_7  and  N_8 
REMARK       I    between atoms: N_8  and  C_9 
REMARK    3  A    between atoms: C_9  and  C_10 
REMARK    4  A    between atoms: C_10  and  C_11 
ROOT
HETATM    1  C   UNL     1       6.811  24.750  53.837  1.00  0.00     0.019 A 
HETATM    2  C   UNL     1       6.538  25.709  54.830  1.00  0.00     0.045 A 
HETATM    3  C   UNL     1       6.139  27.005  54.489  1.00  0.00     0.035 A 
HETATM    4  C   UNL     1       6.013  27.343  53.135  1.00  0.00     0.029 A 
HETATM    5  C   UNL     1       6.276  26.402  52.139  1.00  0.00     0.003 A 
HETATM    6  C   UNL     1       6.674  25.115  52.490  1.00  0.00     0.016 A 
ENDROOT
BRANCH   3   7
HETATM    7  N   UNL     1       5.853  28.022  55.425  1.00  0.00    -0.327 N 
HETATM    8  C   UNL     1       6.718  28.984  55.932  1.00  0.00     0.227 C 
HETATM    9  O   UNL     1       7.912  29.088  55.663  1.00  0.00    -0.273 OA
HETATM   10  H   UNL     1       4.903  28.037  55.774  1.00  0.00     0.169 HD
BRANCH   8  11
HETATM   11  C   UNL     1       6.026  29.897  56.952  1.00  0.00     0.159 C 
BRANCH  11  12
HETATM   12  C   UNL     1       6.929  30.399  58.037  1.00  0.00     0.017 A 
HETATM   13  N   UNL     1       7.929  29.634  58.598  1.00  0.00    -0.369 N 
HETATM   14  H   UNL     1       8.163  28.691  58.300  1.00  0.00     0.165 HD
HETATM   15  C   UNL     1       8.562  30.347  59.581  1.00  0.00     0.088 A 
HETATM   16  C   UNL     1       7.966  31.584  59.660  1.00  0.00     0.019 A 
HETATM   17  C   UNL     1       6.937  31.619  58.689  1.00  0.00     0.027 A 
ENDBRANCH  11  12
ENDBRANCH   8  11
ENDBRANCH   3   7
BRANCH   1  18
HETATM   18  C   UNL     1       7.239  23.391  54.165  1.00  0.00     0.180 A 
HETATM   19  N   UNL     1       7.291  22.798  55.345  1.00  0.00    -0.226 NA
HETATM   20  C   UNL     1       7.760  21.534  55.069  1.00  0.00     0.063 A 
HETATM   21  C   UNL     1       7.952  20.538  56.143  1.00  0.00     0.073 C 
HETATM   22  C   UNL     1       7.986  21.413  53.715  1.00  0.00     0.076 A 
HETATM   23  O   UNL     1       7.651  22.599  53.126  1.00  0.00    -0.294 OA
HETATM   24  C   UNL     1       8.475  20.338  52.836  1.00  0.00     0.079 C 
ENDBRANCH   1  18
TORSDOF 4
ENDMDL
MODEL 7
REMARK VINA RESULT:      -8.0      2.771      5.419
REMARK  4 active torsions:
REMARK  status: ('A' for Active; 'I' for Inactive)
REMARK    1  A    between atoms: C_4  and  C_5 
REMARK    2  A    between atoms: C_7  and  N_8 
REMARK       I    between atoms: N_8  and  C_9 
REMARK    3  A    between atoms: C_9  and  C_10 
REMARK    4  A    between atoms: C_10  and  C_11 
ROOT
HETATM    1  C   UNL     1       8.884  28.974  57.492  1.00  0.00     0.019 A 
HETATM    2  C   UNL     1       8.476  29.619  58.674  1.00  0.00     0.045 A 
HETATM    3  C   UNL     1       9.130  30.768  59.131  1.00  0.00     0.035 A 
HETATM    4  C   UNL     1      10.207  31.275  58.391  1.00  0.00     0.029 A 
HETATM    5  C   UNL     1      10.621  30.650  57.215  1.00  0.00     0.003 A 
HETATM    6  C   UNL     1       9.963  29.505  56.771  1.00  0.00     0.016 A 
ENDROOT
BRANCH   3   7
HETATM    7  N   UNL     1       8.783  31.467  60.307  1.00  0.00    -0.327 N 
HETATM    8  C   UNL     1       8.966  31.065  61.624  1.00  0.00     0.227 C 
HETATM    9  O   UNL     1       9.444  29.993  61.987  1.00  0.00    -0.273 OA
HETATM   10  H   UNL     1       8.335  32.364  60.164  1.00  0.00     0.169 HD
BRANCH   8  11
HETATM   11  C   UNL     1       8.429  32.101  62.619  1.00  0.00     0.159 C 
BRANCH  11  12
HETATM   12  C   UNL     1       6.975  32.421  62.447  1.00  0.00     0.017 A 
HETATM   13  N   UNL     1       5.983  31.466  62.506  1.00  0.00    -0.369 N 
HETATM   14  H   UNL     1       6.146  30.484  62.709  1.00  0.00     0.165 HD
HETATM   15  C   UNL     1       4.765  32.050  62.283  1.00  0.00     0.088 A 
HETATM   16  C   UNL     1       4.968  33.393  62.074  1.00  0.00     0.019 A 
HETATM   17  C   UNL     1       6.360  33.630  62.177  1.00  0.00     0.027 A 
ENDBRANCH  11  12
ENDBRANCH   8  11
ENDBRANCH   3   7
BRANCH   1  18
HETATM   18  C   UNL     1       8.224  27.767  56.997  1.00  0.00     0.180 A 
HETATM   19  N   UNL     1       8.347  26.521  57.418  1.00  0.00    -0.226 NA
HETATM   20  C   UNL     1       7.501  25.802  56.604  1.00  0.00     0.063 A 
HETATM   21  C   UNL     1       7.341  24.342  56.764  1.00  0.00     0.073 C 
HETATM   22  C   UNL     1       6.899  26.653  55.702  1.00  0.00     0.076 A 
HETATM   23  O   UNL     1       7.354  27.916  55.949  1.00  0.00    -0.294 OA
HETATM   24  C   UNL     1       5.928  26.488  54.608  1.00  0.00     0.079 C 
ENDBRANCH   1  18
TORSDOF 4
ENDMDL
MODEL 8
REMARK VINA RESULT:      -8.0      4.838      8.607
REMARK  4 active torsions:
REMARK  status: ('A' for Active; 'I' for Inactive)
REMARK    1  A    between atoms: C_4  and  C_5 
REMARK    2  A    between atoms: C_7  and  N_8 
REMARK       I    between atoms: N_8  and  C_9 
REMARK    3  A    between atoms: C_9  and  C_10 
REMARK    4  A    between atoms: C_10  and  C_11 
ROOT
HETATM    1  C   UNL     1       8.127  31.145  59.883  1.00  0.00     0.019 A 
HETATM    2  C   UNL     1       7.007  31.862  60.342  1.00  0.00     0.045 A 
HETATM    3  C   UNL     1       7.011  32.479  61.597  1.00  0.00     0.035 A 
HETATM    4  C   UNL     1       8.154  32.375  62.400  1.00  0.00     0.029 A 
HETATM    5  C   UNL     1       9.275  31.672  61.958  1.00  0.00     0.003 A 
HETATM    6  C   UNL     1       9.259  31.060  60.707  1.00  0.00     0.016 A 
ENDROOT
BRANCH   3   7
HETATM    7  N   UNL     1       5.927  33.211  62.128  1.00  0.00    -0.327 N 
HETATM    8  C   UNL     1       4.957  32.771  63.021  1.00  0.00     0.227 C 
HETATM    9  O   UNL     1       4.867  31.635  63.480  1.00  0.00    -0.273 OA
HETATM   10  H   UNL     1       5.847  34.166  61.804  1.00  0.00     0.169 HD
BRANCH   8  11
HETATM   11  C   UNL     1       3.931  33.866  63.336  1.00  0.00     0.159 C 
BRANCH  11  12
HETATM   12  C   UNL     1       4.017  34.404  64.733  1.00  0.00     0.017 A 
HETATM   13  N   UNL     1       4.372  33.630  65.816  1.00  0.00    -0.369 N 
HETATM   14  H   UNL     1       4.642  32.652  65.756  1.00  0.00     0.165 HD
HETATM   15  C   UNL     1       4.332  34.385  66.957  1.00  0.00     0.088 A 
HETATM   16  C   UNL     1       3.946  35.658  66.612  1.00  0.00     0.019 A 
HETATM   17  C   UNL     1       3.746  35.673  65.211  1.00  0.00     0.027 A 
ENDBRANCH  11  12
ENDBRANCH   8  11
ENDBRANCH   3   7
BRANCH   1  18
HETATM   18  C   UNL     1       8.146  30.483  58.580  1.00  0.00     0.180 A 
HETATM   19  N   UNL     1       7.151  29.916  57.921  1.00  0.00    -0.226 NA
HETATM   20  C   UNL     1       7.730  29.459  56.758  1.00  0.00     0.063 A 
HETATM   21  C   UNL     1       6.932  28.762  55.729  1.00  0.00     0.073 C 
HETATM   22  C   UNL     1       9.074  29.762  56.764  1.00  0.00     0.076 A 
HETATM   23  O   UNL     1       9.350  30.423  57.927  1.00  0.00    -0.294 OA
HETATM   24  C   UNL     1      10.192  29.541  55.833  1.00  0.00     0.079 C 
ENDBRANCH   1  18
TORSDOF 4
ENDMDL
MODEL 9
REMARK VINA RESULT:      -7.8      2.441      2.958
REMARK  4 active torsions:
REMARK  status: ('A' for Active; 'I' for Inactive)
REMARK    1  A    between atoms: C_4  and  C_5 
REMARK    2  A    between atoms: C_7  and  N_8 
REMARK       I    between atoms: N_8  and  C_9 
REMARK    3  A    between atoms: C_9  and  C_10 
REMARK    4  A    between atoms: C_10  and  C_11 
ROOT
HETATM    1  C   UNL     1       6.479  24.491  54.353  1.00  0.00     0.019 A 
HETATM    2  C   UNL     1       6.636  25.523  55.295  1.00  0.00     0.045 A 
HETATM    3  C   UNL     1       6.009  26.761  55.121  1.00  0.00     0.035 A 
HETATM    4  C   UNL     1       5.213  26.964  53.985  1.00  0.00     0.029 A 
HETATM    5  C   UNL     1       5.043  25.949  53.044  1.00  0.00     0.003 A 
HETATM    6  C   UNL     1       5.674  24.721  53.227  1.00  0.00     0.016 A 
ENDROOT
BRANCH   3   7
HETATM    7  N   UNL     1       6.122  27.845  56.018  1.00  0.00    -0.327 N 
HETATM    8  C   UNL     1       7.151  28.774  56.108  1.00  0.00     0.227 C 
HETATM    9  O   UNL     1       8.172  28.783  55.423  1.00  0.00    -0.273 OA
HETATM   10  H   UNL     1       5.363  27.942  56.680  1.00  0.00     0.169 HD
BRANCH   8  11
HETATM   11  C   UNL     1       6.913  29.785  57.235  1.00  0.00     0.159 C 
BRANCH  11  12
HETATM   12  C   UNL     1       5.539  30.385  57.241  1.00  0.00     0.017 A 
HETATM   13  N   UNL     1       4.571  30.037  58.159  1.00  0.00    -0.369 N 
HETATM   14  H   UNL     1       4.717  29.384  58.924  1.00  0.00     0.165 HD
HETATM   15  C   UNL     1       3.416  30.723  57.896  1.00  0.00     0.088 A 
HETATM   16  C   UNL     1       3.635  31.521  56.798  1.00  0.00     0.019 A 
HETATM   17  C   UNL     1       4.971  31.309  56.383  1.00  0.00     0.027 A 
ENDBRANCH  11  12
ENDBRANCH   8  11
ENDBRANCH   3   7
BRANCH   1  18
HETATM   18  C   UNL     1       7.131  23.192  54.506  1.00  0.00     0.180 A 
HETATM   19  N   UNL     1       7.488  22.567  55.614  1.00  0.00    -0.226 NA
HETATM   20  C   UNL     1       8.050  21.390  55.174  1.00  0.00     0.063 A 
HETATM   21  C   UNL     1       8.574  20.389  56.125  1.00  0.00     0.073 C 
HETATM   22  C   UNL     1       8.020  21.353  53.796  1.00  0.00     0.076 A 
HETATM   23  O   UNL     1       7.428  22.504  53.359  1.00  0.00    -0.294 OA
HETATM   24  C   UNL     1       8.459  20.390  52.774  1.00  0.00     0.079 C 
ENDBRANCH   1  18
TORSDOF 4
ENDMDL
MODEL 10
REMARK VINA RESULT:      -7.8      2.677      9.213
REMARK  4 active torsions:
REMARK  status: ('A' for Active; 'I' for Inactive)
REMARK    1  A    between atoms: C_4  and  C_5 
REMARK    2  A    between atoms: C_7  and  N_8 
REMARK       I    between atoms: N_8  and  C_9 
REMARK    3  A    between atoms: C_9  and  C_10 
REMARK    4  A    between atoms: C_10  and  C_11 
ROOT
HETATM    1  C   UNL     1       8.808  30.843  59.209  1.00  0.00     0.019 A 
HETATM    2  C   UNL     1       8.295  29.605  58.781  1.00  0.00     0.045 A 
HETATM    3  C   UNL     1       8.845  28.938  57.681  1.00  0.00     0.035 A 
HETATM    4  C   UNL     1       9.923  29.522  57.003  1.00  0.00     0.029 A 
HETATM    5  C   UNL     1      10.446  30.747  57.418  1.00  0.00     0.003 A 
HETATM    6  C   UNL     1       9.889  31.402  58.513  1.00  0.00     0.016 A 
ENDROOT
BRANCH   3   7
HETATM    7  N   UNL     1       8.383  27.698  57.189  1.00  0.00    -0.327 N 
HETATM    8  C   UNL     1       7.556  27.468  56.097  1.00  0.00     0.227 C 
HETATM    9  O   UNL     1       7.054  28.332  55.382  1.00  0.00    -0.273 OA
HETATM   10  H   UNL     1       8.686  26.884  57.709  1.00  0.00     0.169 HD
BRANCH   8  11
HETATM   11  C   UNL     1       7.264  25.975  55.904  1.00  0.00     0.159 C 
BRANCH  11  12
HETATM   12  C   UNL     1       6.433  25.663  54.696  1.00  0.00     0.017 A 
HETATM   13  N   UNL     1       5.217  26.261  54.445  1.00  0.00    -0.369 N 
HETATM   14  H   UNL     1       4.805  26.984  55.027  1.00  0.00     0.165 HD
HETATM   15  C   UNL     1       4.682  25.755  53.291  1.00  0.00     0.088 A 
HETATM   16  C   UNL     1       5.556  24.819  52.791  1.00  0.00     0.019 A 
HETATM   17  C   UNL     1       6.660  24.759  53.674  1.00  0.00     0.027 A 
ENDBRANCH  11  12
ENDBRANCH   8  11
ENDBRANCH   3   7
BRANCH   1  18
HETATM   18  C   UNL     1       8.246  31.565  60.349  1.00  0.00     0.180 A 
HETATM   19  N   UNL     1       8.670  31.601  61.600  1.00  0.00    -0.226 NA
HETATM   20  C   UNL     1       7.775  32.431  62.237  1.00  0.00     0.063 A 
HETATM   21  C   UNL     1       7.911  32.743  63.675  1.00  0.00     0.073 C 
HETATM   22  C   UNL     1       6.825  32.862  61.336  1.00  0.00     0.076 A 
HETATM   23  O   UNL     1       7.122  32.314  60.121  1.00  0.00    -0.294 OA
HETATM   24  C   UNL     1       5.645  33.737  61.411  1.00  0.00     0.079 C 
ENDBRANCH   1  18
TORSDOF 4
ENDMDL
