MODEL 1
REMARK VINA RESULT:      -9.6      0.000      0.000
REMARK  6 active torsions:
REMARK  status: ('A' for Active; 'I' for Inactive)
REMARK    1  A    between atoms: C_4  and  C_5 
REMARK    2  A    between atoms: C_6  and  O_7 
REMARK    3  A    between atoms: O_7  and  C_8 
REMARK    4  A    between atoms: C_8  and  C_9 
REMARK       I    between atoms: C_9  and  N_10 
REMARK    5  A    between atoms: N_10  and  N_11 
REMARK    6  A    between atoms: C_12  and  C_13 
ROOT
HETATM    1  O   UNL     1       6.855  24.684  55.989  1.00  0.00    -0.341 OA
ENDROOT
BRANCH   1   2
HETATM    2  C   UNL     1       7.058  24.792  54.634  1.00  0.00     0.080 A 
HETATM    3  C   UNL     1       7.663  23.712  53.959  1.00  0.00     0.007 A 
HETATM    4  C   UNL     1       7.916  23.857  52.583  1.00  0.00     0.015 A 
HETATM    5  C   UNL     1       7.591  25.037  51.907  1.00  0.00     0.001 A 
HETATM    6  C   UNL     1       7.015  26.099  52.597  1.00  0.00     0.003 A 
HETATM    7  C   UNL     1       6.754  25.980  53.962  1.00  0.00     0.037 A 
BRANCH   3   8
HETATM    8  C   UNL     1       8.019  22.453  54.637  1.00  0.00    -0.023 A 
HETATM    9  C   UNL     1       8.078  22.375  56.039  1.00  0.00     0.012 A 
HETATM   10  C   UNL     1       8.404  21.178  56.680  1.00  0.00     0.001 A 
HETATM   11  C   UNL     1       8.669  20.035  55.929  1.00  0.00     0.000 A 
HETATM   12  C   UNL     1       8.611  20.090  54.539  1.00  0.00     0.001 A 
HETATM   13  C   UNL     1       8.289  21.291  53.899  1.00  0.00     0.012 A 
ENDBRANCH   3   8
ENDBRANCH   1   2
BRANCH   1  14
HETATM   14  C   UNL     1       6.275  25.864  56.552  1.00  0.00     0.280 C 
BRANCH  14  15
HETATM   15  C   UNL     1       7.233  26.523  57.541  1.00  0.00     0.261 C 
HETATM   16  N   UNL     1       7.259  27.905  57.438  1.00  0.00    -0.246 N 
HETATM   17  H   UNL     1       6.704  28.350  56.709  1.00  0.00     0.192 HD
HETATM   18  O   UNL     1       7.880  25.856  58.346  1.00  0.00    -0.269 OA
BRANCH  16  19
HETATM   19  N   UNL     1       8.041  28.644  58.272  1.00  0.00    -0.182 NA
HETATM   20  C   UNL     1       7.539  29.773  58.653  1.00  0.00     0.168 C 
BRANCH  20  21
HETATM   21  C   UNL     1       8.299  30.617  59.534  1.00  0.00     0.051 A 
HETATM   22  N   UNL     1       8.086  30.678  60.894  1.00  0.00    -0.365 N 
HETATM   23  H   UNL     1       7.377  30.136  61.375  1.00  0.00     0.165 HD
HETATM   24  C   UNL     1       8.964  31.559  61.466  1.00  0.00     0.088 A 
HETATM   25  C   UNL     1       9.747  32.086  60.463  1.00  0.00     0.019 A 
HETATM   26  C   UNL     1       9.330  31.492  59.246  1.00  0.00     0.032 A 
ENDBRANCH  20  21
ENDBRANCH  16  19
ENDBRANCH  14  15
ENDBRANCH   1  14
TORSDOF 6
ENDMDL
MODEL 2
REMARK VINA RESULT:      -9.6      1.062      3.529
REMARK  6 active torsions:
REMARK  status: ('A' for Active; 'I' for Inactive)
REMARK    1  A    between atoms: C_4  and  C_5 
REMARK    2  A    between atoms: C_6  and  O_7 
REMARK    3  A    between atoms: O_7  and  C_8 
REMARK    4  A    between atoms: C_8  and  C_9 
REMARK       I    between atoms: C_9  and  N_10 
REMARK    5  A    between atoms: N_10  and  N_11 
REMARK    6  A    between atoms: C_12  and  C_13 
ROOT
HETATM    1  O   UNL     1       7.312  23.847  56.317  1.00  0.00    -0.341 OA
ENDROOT
BRANCH   1   2
HETATM    2  C   UNL     1       7.697  22.657  55.748  1.00  0.00     0.080 A 
HETATM    3  C   UNL     1       7.576  22.512  54.351  1.00  0.00     0.007 A 
HETATM    4  C   UNL     1       7.920  21.270  53.788  1.00  0.00     0.015 A 
HETATM    5  C   UNL     1       8.355  20.208  54.585  1.00  0.00     0.001 A 
HETATM    6  C   UNL     1       8.445  20.365  55.966  1.00  0.00     0.003 A 
HETATM    7  C   UNL     1       8.109  21.587  56.548  1.00  0.00     0.037 A 
BRANCH   3   8
HETATM    8  C   UNL     1       7.123  23.609  53.477  1.00  0.00    -0.023 A 
HETATM    9  C   UNL     1       5.813  24.112  53.563  1.00  0.00     0.012 A 
HETATM   10  C   UNL     1       5.389  25.158  52.742  1.00  0.00     0.001 A 
HETATM   11  C   UNL     1       6.271  25.727  51.826  1.00  0.00     0.000 A 
HETATM   12  C   UNL     1       7.574  25.247  51.728  1.00  0.00     0.001 A 
HETATM   13  C   UNL     1       7.996  24.195  52.547  1.00  0.00     0.012 A 
ENDBRANCH   3   8
ENDBRANCH   1   2
BRANCH   1  14
HETATM   14  C   UNL     1       8.342  24.839  56.263  1.00  0.00     0.280 C 
BRANCH  14  15
HETATM   15  C   UNL     1       8.237  25.797  57.447  1.00  0.00     0.261 C 
HETATM   16  N   UNL     1       8.154  27.128  57.066  1.00  0.00    -0.246 N 
HETATM   17  H   UNL     1       8.220  27.356  56.076  1.00  0.00     0.192 HD
HETATM   18  O   UNL     1       8.210  25.384  58.604  1.00  0.00    -0.269 OA
BRANCH  16  19
HETATM   19  N   UNL     1       8.025  28.106  58.004  1.00  0.00    -0.182 NA
HETATM   20  C   UNL     1       8.714  29.180  57.789  1.00  0.00     0.168 C 
BRANCH  20  21
HETATM   21  C   UNL     1       8.636  30.262  58.731  1.00  0.00     0.051 A 
HETATM   22  N   UNL     1       7.661  30.353  59.701  1.00  0.00    -0.365 N 
HETATM   23  H   UNL     1       6.925  29.667  59.821  1.00  0.00     0.165 HD
HETATM   24  C   UNL     1       7.851  31.484  60.449  1.00  0.00     0.088 A 
HETATM   25  C   UNL     1       8.953  32.141  59.951  1.00  0.00     0.019 A 
HETATM   26  C   UNL     1       9.450  31.372  58.870  1.00  0.00     0.032 A 
ENDBRANCH  20  21
ENDBRANCH  16  19
ENDBRANCH  14  15
ENDBRANCH   1  14
TORSDOF 6
ENDMDL
MODEL 3
REMARK VINA RESULT:      -9.5      2.900      4.639
REMARK  6 active torsions:
REMARK  status: ('A' for Active; 'I' for Inactive)
REMARK    1  A    between atoms: C_4  and  C_5 
REMARK    2  A    between atoms: C_6  and  O_7 
REMARK    3  A    between atoms: O_7  and  C_8 
REMARK    4  A    between atoms: C_8  and  C_9 
REMARK       I    between atoms: C_9  and  N_10 
REMARK    5  A    between atoms: N_10  and  N_11 
REMARK    6  A    between atoms: C_12  and  C_13 
ROOT
HETATM    1  O   UNL     1       7.209  23.299  56.069  1.00  0.00    -0.341 OA
ENDROOT
BRANCH   1   2
HETATM    2  C   UNL     1       7.665  22.330  55.208  1.00  0.00     0.080 A 
HETATM    3  C   UNL     1       7.589  22.576  53.822  1.00  0.00     0.007 A 
HETATM    4  C   UNL     1       8.007  21.554  52.951  1.00  0.00     0.015 A 
HETATM    5  C   UNL     1       8.470  20.329  53.439  1.00  0.00     0.001 A 
HETATM    6  C   UNL     1       8.516  20.099  54.811  1.00  0.00     0.003 A 
HETATM    7  C   UNL     1       8.107  21.096  55.696  1.00  0.00     0.037 A 
BRANCH   3   8
HETATM    8  C   UNL     1       7.107  23.854  53.269  1.00  0.00    -0.023 A 
HETATM    9  C   UNL     1       5.737  24.166  53.249  1.00  0.00     0.012 A 
HETATM   10  C   UNL     1       5.284  25.382  52.735  1.00  0.00     0.001 A 
HETATM   11  C   UNL     1       6.194  26.313  52.240  1.00  0.00     0.000 A 
HETATM   12  C   UNL     1       7.556  26.026  52.256  1.00  0.00     0.001 A 
HETATM   13  C   UNL     1       8.009  24.805  52.765  1.00  0.00     0.012 A 
ENDBRANCH   3   8
ENDBRANCH   1   2
BRANCH   1  14
HETATM   14  C   UNL     1       8.273  24.035  56.680  1.00  0.00     0.280 C 
BRANCH  14  15
HETATM   15  C   UNL     1       7.816  25.442  57.057  1.00  0.00     0.261 C 
HETATM   16  N   UNL     1       7.111  26.075  56.046  1.00  0.00    -0.246 N 
HETATM   17  H   UNL     1       7.003  25.597  55.153  1.00  0.00     0.192 HD
HETATM   18  O   UNL     1       8.053  25.917  58.166  1.00  0.00    -0.269 OA
BRANCH  16  19
HETATM   19  N   UNL     1       6.607  27.326  56.235  1.00  0.00    -0.182 NA
HETATM   20  C   UNL     1       5.327  27.391  56.413  1.00  0.00     0.168 C 
BRANCH  20  21
HETATM   21  C   UNL     1       4.713  28.674  56.619  1.00  0.00     0.051 A 
HETATM   22  N   UNL     1       4.675  29.306  57.842  1.00  0.00    -0.365 N 
HETATM   23  H   UNL     1       5.073  28.915  58.688  1.00  0.00     0.165 HD
HETATM   24  C   UNL     1       4.034  30.511  57.726  1.00  0.00     0.088 A 
HETATM   25  C   UNL     1       3.640  30.655  56.415  1.00  0.00     0.019 A 
HETATM   26  C   UNL     1       4.068  29.500  55.716  1.00  0.00     0.032 A 
ENDBRANCH  20  21
ENDBRANCH  16  19
ENDBRANCH  14  15
ENDBRANCH   1  14
TORSDOF 6
ENDMDL
MODEL 4
REMARK VINA RESULT:      -9.5      1.361      1.718
REMARK  6 active torsions:
REMARK  status: ('A' for Active; 'I' for Inactive)
REMARK    1  A    between atoms: C_4  and  C_5 
REMARK    2  A    between atoms: C_6  and  O_7 
REMARK    3  A    between atoms: O_7  and  C_8 
REMARK    4  A    between atoms: C_8  and  C_9 
REMARK       I    between atoms: C_9  and  N_10 
REMARK    5  A    between atoms: N_10  and  N_11 
REMARK    6  A    between atoms: C_12  and  C_13 
ROOT
HETATM    1  O   UNL     1       7.529  26.057  55.568  1.00  0.00    -0.341 OA
ENDROOT
BRANCH   1   2
HETATM    2  C   UNL     1       6.566  25.873  54.605  1.00  0.00     0.080 A 
HETATM    3  C   UNL     1       6.495  24.623  53.959  1.00  0.00     0.007 A 
HETATM    4  C   UNL     1       5.542  24.465  52.936  1.00  0.00     0.015 A 
HETATM    5  C   UNL     1       4.700  25.517  52.562  1.00  0.00     0.001 A 
HETATM    6  C   UNL     1       4.802  26.751  53.198  1.00  0.00     0.003 A 
HETATM    7  C   UNL     1       5.739  26.932  54.215  1.00  0.00     0.037 A 
BRANCH   3   8
HETATM    8  C   UNL     1       7.365  23.491  54.325  1.00  0.00    -0.023 A 
HETATM    9  C   UNL     1       7.318  22.925  55.611  1.00  0.00     0.012 A 
HETATM   10  C   UNL     1       8.134  21.846  55.952  1.00  0.00     0.001 A 
HETATM   11  C   UNL     1       9.007  21.306  55.010  1.00  0.00     0.000 A 
HETATM   12  C   UNL     1       9.066  21.849  53.729  1.00  0.00     0.001 A 
HETATM   13  C   UNL     1       8.251  22.934  53.390  1.00  0.00     0.012 A 
ENDBRANCH   3   8
ENDBRANCH   1   2
BRANCH   1  14
HETATM   14  C   UNL     1       7.802  27.440  55.813  1.00  0.00     0.280 C 
BRANCH  14  15
HETATM   15  C   UNL     1       7.956  27.708  57.308  1.00  0.00     0.261 C 
HETATM   16  N   UNL     1       8.212  29.038  57.601  1.00  0.00    -0.246 N 
HETATM   17  H   UNL     1       8.326  29.694  56.830  1.00  0.00     0.192 HD
HETATM   18  O   UNL     1       7.834  26.807  58.136  1.00  0.00    -0.269 OA
BRANCH  16  19
HETATM   19  N   UNL     1       8.345  29.446  58.893  1.00  0.00    -0.182 NA
HETATM   20  C   UNL     1       7.887  30.628  59.155  1.00  0.00     0.168 C 
BRANCH  20  21
HETATM   21  C   UNL     1       7.989  31.138  60.495  1.00  0.00     0.051 A 
HETATM   22  N   UNL     1       6.926  31.177  61.371  1.00  0.00    -0.365 N 
HETATM   23  H   UNL     1       5.995  30.853  61.138  1.00  0.00     0.165 HD
HETATM   24  C   UNL     1       7.328  31.705  62.569  1.00  0.00     0.088 A 
HETATM   25  C   UNL     1       8.663  32.024  62.464  1.00  0.00     0.019 A 
HETATM   26  C   UNL     1       9.081  31.667  61.158  1.00  0.00     0.032 A 
ENDBRANCH  20  21
ENDBRANCH  16  19
ENDBRANCH  14  15
ENDBRANCH   1  14
TORSDOF 6
ENDMDL
MODEL 5
REMARK VINA RESULT:      -9.5      4.436      8.061
REMARK  6 active torsions:
REMARK  status: ('A' for Active; 'I' for Inactive)
REMARK    1  A    between atoms: C_4  and  C_5 
REMARK    2  A    between atoms: C_6  and  O_7 
REMARK    3  A    between atoms: O_7  and  C_8 
REMARK    4  A    between atoms: C_8  and  C_9 
REMARK       I    between atoms: C_9  and  N_10 
REMARK    5  A    between atoms: N_10  and  N_11 
REMARK    6  A    between atoms: C_12  and  C_13 
ROOT
HETATM    1  O   UNL     1       8.033  24.437  53.250  1.00  0.00    -0.341 OA
ENDROOT
BRANCH   1   2
HETATM    2  C   UNL     1       7.944  23.133  53.676  1.00  0.00     0.080 A 
HETATM    3  C   UNL     1       7.750  22.888  55.050  1.00  0.00     0.007 A 
HETATM    4  C   UNL     1       7.717  21.550  55.480  1.00  0.00     0.015 A 
HETATM    5  C   UNL     1       7.884  20.494  54.579  1.00  0.00     0.001 A 
HETATM    6  C   UNL     1       8.096  20.759  53.229  1.00  0.00     0.003 A 
HETATM    7  C   UNL     1       8.134  22.078  52.777  1.00  0.00     0.037 A 
BRANCH   3   8
HETATM    8  C   UNL     1       7.571  23.974  56.030  1.00  0.00    -0.023 A 
HETATM    9  C   UNL     1       8.645  24.433  56.811  1.00  0.00     0.012 A 
HETATM   10  C   UNL     1       8.475  25.469  57.731  1.00  0.00     0.001 A 
HETATM   11  C   UNL     1       7.228  26.072  57.880  1.00  0.00     0.000 A 
HETATM   12  C   UNL     1       6.151  25.636  57.112  1.00  0.00     0.001 A 
HETATM   13  C   UNL     1       6.322  24.594  56.195  1.00  0.00     0.012 A 
ENDBRANCH   3   8
ENDBRANCH   1   2
BRANCH   1  14
HETATM   14  C   UNL     1       7.637  24.596  51.885  1.00  0.00     0.280 C 
BRANCH  14  15
HETATM   15  C   UNL     1       6.256  25.241  51.790  1.00  0.00     0.261 C 
HETATM   16  N   UNL     1       6.133  26.112  50.719  1.00  0.00    -0.246 N 
HETATM   17  H   UNL     1       6.950  26.287  50.137  1.00  0.00     0.192 HD
HETATM   18  O   UNL     1       5.366  24.968  52.593  1.00  0.00    -0.269 OA
BRANCH  16  19
HETATM   19  N   UNL     1       4.952  26.745  50.478  1.00  0.00    -0.182 NA
HETATM   20  C   UNL     1       4.468  26.590  49.288  1.00  0.00     0.168 C 
BRANCH  20  21
HETATM   21  C   UNL     1       3.225  27.226  48.948  1.00  0.00     0.051 A 
HETATM   22  N   UNL     1       2.168  26.558  48.369  1.00  0.00    -0.365 N 
HETATM   23  H   UNL     1       2.188  25.572  48.136  1.00  0.00     0.165 HD
HETATM   24  C   UNL     1       1.123  27.420  48.171  1.00  0.00     0.088 A 
HETATM   25  C   UNL     1       1.511  28.664  48.615  1.00  0.00     0.019 A 
HETATM   26  C   UNL     1       2.834  28.543  49.106  1.00  0.00     0.032 A 
ENDBRANCH  20  21
ENDBRANCH  16  19
ENDBRANCH  14  15
ENDBRANCH   1  14
TORSDOF 6
ENDMDL
MODEL 6
REMARK VINA RESULT:      -9.3      4.597      8.067
REMARK  6 active torsions:
REMARK  status: ('A' for Active; 'I' for Inactive)
REMARK    1  A    between atoms: C_4  and  C_5 
REMARK    2  A    between atoms: C_6  and  O_7 
REMARK    3  A    between atoms: O_7  and  C_8 
REMARK    4  A    between atoms: C_8  and  C_9 
REMARK       I    between atoms: C_9  and  N_10 
REMARK    5  A    between atoms: N_10  and  N_11 
REMARK    6  A    between atoms: C_12  and  C_13 
ROOT
HETATM    1  O   UNL     1       6.537  24.868  53.627  1.00  0.00    -0.341 OA
ENDROOT
BRANCH   1   2
HETATM    2  C   UNL     1       7.182  25.199  54.794  1.00  0.00     0.080 A 
HETATM    3  C   UNL     1       7.899  24.193  55.472  1.00  0.00     0.007 A 
HETATM    4  C   UNL     1       8.508  24.532  56.694  1.00  0.00     0.015 A 
HETATM    5  C   UNL     1       8.396  25.819  57.228  1.00  0.00     0.001 A 
HETATM    6  C   UNL     1       7.664  26.791  56.553  1.00  0.00     0.003 A 
HETATM    7  C   UNL     1       7.051  26.481  55.339  1.00  0.00     0.037 A 
BRANCH   3   8
HETATM    8  C   UNL     1       8.039  22.826  54.941  1.00  0.00    -0.023 A 
HETATM    9  C   UNL     1       8.491  22.598  53.630  1.00  0.00     0.012 A 
HETATM   10  C   UNL     1       8.634  21.301  53.134  1.00  0.00     0.001 A 
HETATM   11  C   UNL     1       8.337  20.208  53.943  1.00  0.00     0.000 A 
HETATM   12  C   UNL     1       7.893  20.411  55.247  1.00  0.00     0.001 A 
HETATM   13  C   UNL     1       7.744  21.711  55.742  1.00  0.00     0.012 A 
ENDBRANCH   3   8
ENDBRANCH   1   2
BRANCH   1  14
HETATM   14  C   UNL     1       6.883  25.736  52.543  1.00  0.00     0.280 C 
BRANCH  14  15
HETATM   15  C   UNL     1       5.641  26.419  51.976  1.00  0.00     0.261 C 
HETATM   16  N   UNL     1       5.714  26.635  50.608  1.00  0.00    -0.246 N 
HETATM   17  H   UNL     1       6.571  26.382  50.120  1.00  0.00     0.192 HD
HETATM   18  O   UNL     1       4.687  26.711  52.693  1.00  0.00    -0.269 OA
BRANCH  16  19
HETATM   19  N   UNL     1       4.673  27.208  49.945  1.00  0.00    -0.182 NA
HETATM   20  C   UNL     1       4.128  26.480  49.025  1.00  0.00     0.168 C 
BRANCH  20  21
HETATM   21  C   UNL     1       3.023  27.008  48.274  1.00  0.00     0.051 A 
HETATM   22  N   UNL     1       1.738  26.521  48.375  1.00  0.00    -0.365 N 
HETATM   23  H   UNL     1       1.476  25.754  48.982  1.00  0.00     0.165 HD
HETATM   24  C   UNL     1       0.905  27.227  47.549  1.00  0.00     0.088 A 
HETATM   25  C   UNL     1       1.660  28.174  46.895  1.00  0.00     0.019 A 
HETATM   26  C   UNL     1       2.995  28.038  47.351  1.00  0.00     0.032 A 
ENDBRANCH  20  21
ENDBRANCH  16  19
ENDBRANCH  14  15
ENDBRANCH   1  14
TORSDOF 6
ENDMDL
MODEL 7
REMARK VINA RESULT:      -9.2      2.242      8.977
REMARK  6 active torsions:
REMARK  status: ('A' for Active; 'I' for Inactive)
REMARK    1  A    between atoms: C_4  and  C_5 
REMARK    2  A    between atoms: C_6  and  O_7 
REMARK    3  A    between atoms: O_7  and  C_8 
REMARK    4  A    between atoms: C_8  and  C_9 
REMARK       I    between atoms: C_9  and  N_10 
REMARK    5  A    between atoms: N_10  and  N_11 
REMARK    6  A    between atoms: C_12  and  C_13 
ROOT
HETATM    1  O   UNL     1       7.642  28.625  58.521  1.00  0.00    -0.341 OA
ENDROOT
BRANCH   1   2
HETATM    2  C   UNL     1       8.753  29.303  58.081  1.00  0.00     0.080 A 
HETATM    3  C   UNL     1       9.169  30.443  58.797  1.00  0.00     0.007 A 
HETATM    4  C   UNL     1      10.275  31.160  58.304  1.00  0.00     0.015 A 
HETATM    5  C   UNL     1      10.932  30.766  57.135  1.00  0.00     0.001 A 
HETATM    6  C   UNL     1      10.490  29.650  56.431  1.00  0.00     0.003 A 
HETATM    7  C   UNL     1       9.396  28.922  56.899  1.00  0.00     0.037 A 
BRANCH   3   8
HETATM    8  C   UNL     1       8.502  30.890  60.033  1.00  0.00    -0.023 A 
HETATM    9  C   UNL     1       7.335  31.671  59.987  1.00  0.00     0.012 A 
HETATM   10  C   UNL     1       6.699  32.083  61.159  1.00  0.00     0.001 A 
HETATM   11  C   UNL     1       7.213  31.714  62.399  1.00  0.00     0.000 A 
HETATM   12  C   UNL     1       8.366  30.936  62.467  1.00  0.00     0.001 A 
HETATM   13  C   UNL     1       9.006  30.528  61.292  1.00  0.00     0.012 A 
ENDBRANCH   3   8
ENDBRANCH   1   2
BRANCH   1  14
HETATM   14  C   UNL     1       6.911  28.016  57.451  1.00  0.00     0.280 C 
BRANCH  14  15
HETATM   15  C   UNL     1       7.202  26.519  57.377  1.00  0.00     0.261 C 
HETATM   16  N   UNL     1       6.684  25.918  56.240  1.00  0.00    -0.246 N 
HETATM   17  H   UNL     1       6.131  26.484  55.599  1.00  0.00     0.192 HD
HETATM   18  O   UNL     1       7.853  25.949  58.251  1.00  0.00    -0.269 OA
BRANCH  16  19
HETATM   19  N   UNL     1       6.884  24.591  56.010  1.00  0.00    -0.182 NA
HETATM   20  C   UNL     1       7.331  24.290  54.835  1.00  0.00     0.168 C 
BRANCH  20  21
HETATM   21  C   UNL     1       7.568  22.910  54.507  1.00  0.00     0.051 A 
HETATM   22  N   UNL     1       7.629  21.909  55.451  1.00  0.00    -0.365 N 
HETATM   23  H   UNL     1       7.515  22.068  56.445  1.00  0.00     0.165 HD
HETATM   24  C   UNL     1       7.859  20.705  54.841  1.00  0.00     0.088 A 
HETATM   25  C   UNL     1       7.960  20.930  53.487  1.00  0.00     0.019 A 
HETATM   26  C   UNL     1       7.776  22.319  53.275  1.00  0.00     0.032 A 
ENDBRANCH  20  21
ENDBRANCH  16  19
ENDBRANCH  14  15
ENDBRANCH   1  14
TORSDOF 6
ENDMDL
MODEL 8
REMARK VINA RESULT:      -8.7      3.731      6.109
REMARK  6 active torsions:
REMARK  status: ('A' for Active; 'I' for Inactive)
REMARK    1  A    between atoms: C_4  and  C_5 
REMARK    2  A    between atoms: C_6  and  O_7 
REMARK    3  A    between atoms: O_7  and  C_8 
REMARK    4  A    between atoms: C_8  and  C_9 
REMARK       I    between atoms: C_9  and  N_10 
REMARK    5  A    between atoms: N_10  and  N_11 
REMARK    6  A    between atoms: C_12  and  C_13 
ROOT
HETATM    1  O   UNL     1       7.279  29.881  58.541  1.00  0.00    -0.341 OA
ENDROOT
BRANCH   1   2
HETATM    2  C   UNL     1       8.531  29.848  57.977  1.00  0.00     0.080 A 
HETATM    3  C   UNL     1       8.867  28.754  57.154  1.00  0.00     0.007 A 
HETATM    4  C   UNL     1      10.170  28.703  56.628  1.00  0.00     0.015 A 
HETATM    5  C   UNL     1      11.109  29.697  56.920  1.00  0.00     0.001 A 
HETATM    6  C   UNL     1      10.764  30.757  57.753  1.00  0.00     0.003 A 
HETATM    7  C   UNL     1       9.478  30.830  58.287  1.00  0.00     0.037 A 
BRANCH   3   8
HETATM    8  C   UNL     1       7.905  27.687  56.823  1.00  0.00    -0.023 A 
HETATM    9  C   UNL     1       7.825  26.516  57.596  1.00  0.00     0.012 A 
HETATM   10  C   UNL     1       6.905  25.512  57.287  1.00  0.00     0.001 A 
HETATM   11  C   UNL     1       6.042  25.666  56.205  1.00  0.00     0.000 A 
HETATM   12  C   UNL     1       6.101  26.821  55.429  1.00  0.00     0.001 A 
HETATM   13  C   UNL     1       7.027  27.823  55.736  1.00  0.00     0.012 A 
ENDBRANCH   3   8
ENDBRANCH   1   2
BRANCH   1  14
HETATM   14  C   UNL     1       6.491  30.975  58.063  1.00  0.00     0.280 C 
BRANCH  14  15
HETATM   15  C   UNL     1       6.290  32.021  59.157  1.00  0.00     0.261 C 
HETATM   16  N   UNL     1       6.692  31.584  60.410  1.00  0.00    -0.246 N 
HETATM   17  H   UNL     1       7.025  30.626  60.508  1.00  0.00     0.192 HD
HETATM   18  O   UNL     1       5.835  33.134  58.903  1.00  0.00    -0.269 OA
BRANCH  16  19
HETATM   19  N   UNL     1       6.607  32.410  61.488  1.00  0.00    -0.182 NA
HETATM   20  C   UNL     1       6.211  31.854  62.588  1.00  0.00     0.168 C 
BRANCH  20  21
HETATM   21  C   UNL     1       6.092  32.655  63.775  1.00  0.00     0.051 A 
HETATM   22  N   UNL     1       4.884  32.967  64.358  1.00  0.00    -0.365 N 
HETATM   23  H   UNL     1       3.989  32.660  63.994  1.00  0.00     0.165 HD
HETATM   24  C   UNL     1       5.088  33.733  65.475  1.00  0.00     0.088 A 
HETATM   25  C   UNL     1       6.443  33.931  65.610  1.00  0.00     0.019 A 
HETATM   26  C   UNL     1       7.077  33.251  64.540  1.00  0.00     0.032 A 
ENDBRANCH  20  21
ENDBRANCH  16  19
ENDBRANCH  14  15
ENDBRANCH   1  14
TORSDOF 6
ENDMDL
MODEL 9
REMARK VINA RESULT:      -8.5      6.113     10.675
REMARK  6 active torsions:
REMARK  status: ('A' for Active; 'I' for Inactive)
REMARK    1  A    between atoms: C_4  and  C_5 
REMARK    2  A    between atoms: C_6  and  O_7 
REMARK    3  A    between atoms: O_7  and  C_8 
REMARK    4  A    between atoms: C_8  and  C_9 
REMARK       I    between atoms: C_9  and  N_10 
REMARK    5  A    between atoms: N_10  and  N_11 
REMARK    6  A    between atoms: C_12  and  C_13 
ROOT
HETATM    1  O   UNL     1       4.946  32.089  62.356  1.00  0.00    -0.341 OA
ENDROOT
BRANCH   1   2
HETATM    2  C   UNL     1       5.586  32.707  63.404  1.00  0.00     0.080 A 
HETATM    3  C   UNL     1       6.995  32.720  63.414  1.00  0.00     0.007 A 
HETATM    4  C   UNL     1       7.638  33.306  64.519  1.00  0.00     0.015 A 
HETATM    5  C   UNL     1       6.906  33.847  65.580  1.00  0.00     0.001 A 
HETATM    6  C   UNL     1       5.515  33.803  65.561  1.00  0.00     0.003 A 
HETATM    7  C   UNL     1       4.854  33.227  64.476  1.00  0.00     0.037 A 
BRANCH   3   8
HETATM    8  C   UNL     1       7.800  32.160  62.314  1.00  0.00    -0.023 A 
HETATM    9  C   UNL     1       7.890  32.815  61.073  1.00  0.00     0.012 A 
HETATM   10  C   UNL     1       8.663  32.288  60.037  1.00  0.00     0.001 A 
HETATM   11  C   UNL     1       9.368  31.102  60.225  1.00  0.00     0.000 A 
HETATM   12  C   UNL     1       9.296  30.440  61.449  1.00  0.00     0.001 A 
HETATM   13  C   UNL     1       8.518  30.966  62.484  1.00  0.00     0.012 A 
ENDBRANCH   3   8
ENDBRANCH   1   2
BRANCH   1  14
HETATM   14  C   UNL     1       3.808  32.826  61.897  1.00  0.00     0.280 C 
BRANCH  14  15
HETATM   15  C   UNL     1       3.621  32.655  60.392  1.00  0.00     0.261 C 
HETATM   16  N   UNL     1       4.598  31.866  59.806  1.00  0.00    -0.246 N 
HETATM   17  H   UNL     1       5.360  31.521  60.388  1.00  0.00     0.192 HD
HETATM   18  O   UNL     1       2.670  33.165  59.802  1.00  0.00    -0.269 OA
BRANCH  16  19
HETATM   19  N   UNL     1       4.556  31.591  58.473  1.00  0.00    -0.182 NA
HETATM   20  C   UNL     1       4.141  30.406  58.160  1.00  0.00     0.168 C 
BRANCH  20  21
HETATM   21  C   UNL     1       4.066  30.033  56.775  1.00  0.00     0.051 A 
HETATM   22  N   UNL     1       4.111  28.726  56.341  1.00  0.00    -0.365 N 
HETATM   23  H   UNL     1       4.203  27.931  56.963  1.00  0.00     0.165 HD
HETATM   24  C   UNL     1       4.011  28.683  54.975  1.00  0.00     0.088 A 
HETATM   25  C   UNL     1       3.912  29.978  54.518  1.00  0.00     0.019 A 
HETATM   26  C   UNL     1       3.946  30.829  55.651  1.00  0.00     0.032 A 
ENDBRANCH  20  21
ENDBRANCH  16  19
ENDBRANCH  14  15
ENDBRANCH   1  14
TORSDOF 6
ENDMDL
MODEL 10
REMARK VINA RESULT:      -8.4      4.248      7.168
REMARK  6 active torsions:
REMARK  status: ('A' for Active; 'I' for Inactive)
REMARK    1  A    between atoms: C_4  and  C_5 
REMARK    2  A    between atoms: C_6  and  O_7 
REMARK    3  A    between atoms: O_7  and  C_8 
REMARK    4  A    between atoms: C_8  and  C_9 
REMARK       I    between atoms: C_9  and  N_10 
REMARK    5  A    between atoms: N_10  and  N_11 
REMARK    6  A    between atoms: C_12  and  C_13 
ROOT
HETATM    1  O   UNL     1       6.001  24.695  53.986  1.00  0.00    -0.341 OA
ENDROOT
BRANCH   1   2
HETATM    2  C   UNL     1       6.792  25.036  55.056  1.00  0.00     0.080 A 
HETATM    3  C   UNL     1       7.724  24.090  55.528  1.00  0.00     0.007 A 
HETATM    4  C   UNL     1       8.489  24.429  56.659  1.00  0.00     0.015 A 
HETATM    5  C   UNL     1       8.323  25.658  57.304  1.00  0.00     0.001 A 
HETATM    6  C   UNL     1       7.381  26.569  56.834  1.00  0.00     0.003 A 
HETATM    7  C   UNL     1       6.610  26.256  55.715  1.00  0.00     0.037 A 
BRANCH   3   8
HETATM    8  C   UNL     1       7.927  22.784  54.876  1.00  0.00    -0.023 A 
HETATM    9  C   UNL     1       7.752  21.583  55.584  1.00  0.00     0.012 A 
HETATM   10  C   UNL     1       7.934  20.347  54.960  1.00  0.00     0.001 A 
HETATM   11  C   UNL     1       8.286  20.290  53.614  1.00  0.00     0.000 A 
HETATM   12  C   UNL     1       8.459  21.469  52.893  1.00  0.00     0.001 A 
HETATM   13  C   UNL     1       8.282  22.706  53.520  1.00  0.00     0.012 A 
ENDBRANCH   3   8
ENDBRANCH   1   2
BRANCH   1  14
HETATM   14  C   UNL     1       5.064  25.722  53.647  1.00  0.00     0.280 C 
BRANCH  14  15
HETATM   15  C   UNL     1       5.248  26.171  52.200  1.00  0.00     0.261 C 
HETATM   16  N   UNL     1       4.292  27.086  51.786  1.00  0.00    -0.246 N 
HETATM   17  H   UNL     1       3.545  27.335  52.432  1.00  0.00     0.192 HD
HETATM   18  O   UNL     1       6.179  25.754  51.514  1.00  0.00    -0.269 OA
BRANCH  16  19
HETATM   19  N   UNL     1       4.336  27.608  50.529  1.00  0.00    -0.182 NA
HETATM   20  C   UNL     1       4.523  28.886  50.462  1.00  0.00     0.168 C 
BRANCH  20  21
HETATM   21  C   UNL     1       4.581  29.519  49.173  1.00  0.00     0.051 A 
HETATM   22  N   UNL     1       4.639  30.885  49.004  1.00  0.00    -0.365 N 
HETATM   23  H   UNL     1       4.642  31.546  49.772  1.00  0.00     0.165 HD
HETATM   24  C   UNL     1       4.693  31.189  47.670  1.00  0.00     0.088 A 
HETATM   25  C   UNL     1       4.657  30.006  46.965  1.00  0.00     0.019 A 
HETATM   26  C   UNL     1       4.587  28.954  47.911  1.00  0.00     0.032 A 
ENDBRANCH  20  21
ENDBRANCH  16  19
ENDBRANCH  14  15
ENDBRANCH   1  14
TORSDOF 6
ENDMDL
