MODEL 1
REMARK VINA RESULT:      -9.2      0.000      0.000
REMARK  5 active torsions:
REMARK  status: ('A' for Active; 'I' for Inactive)
REMARK    1  A    between atoms: N_2  and  C_4 
REMARK    2  A    between atoms: C_4  and  C_5 
REMARK    3  A    between atoms: C_5  and  N_6 
REMARK    4  A    between atoms: C_11  and  C_12 
REMARK    5  A    between atoms: C_14  and  O_15 
ROOT
HETATM    1  N   UNL     1       6.308  27.163  56.235  1.00  0.00    -0.332 N 
HETATM    2  C   UNL     1       7.228  26.329  56.851  1.00  0.00     0.279 C 
HETATM    3  O   UNL     1       7.776  26.542  57.914  1.00  0.00    -0.265 OA
HETATM    4  C   UNL     1       7.374  25.147  55.985  1.00  0.00     0.156 A 
HETATM    5  C   UNL     1       6.490  25.288  54.995  1.00  0.00     0.060 A 
HETATM    6  C   UNL     1       5.618  26.477  55.141  1.00  0.00     0.161 C 
HETATM    7  O   UNL     1       8.254  24.123  56.188  1.00  0.00    -0.303 OA
HETATM    8  C   UNL     1       8.261  23.136  55.224  1.00  0.00     0.090 A 
HETATM    9  C   UNL     1       7.412  23.159  54.105  1.00  0.00     0.051 A 
HETATM   10  C   UNL     1       6.421  24.251  53.972  1.00  0.00     0.196 A 
HETATM   11  O   UNL     1       5.585  24.280  53.083  1.00  0.00    -0.287 OA
HETATM   12  C   UNL     1       9.163  22.086  55.397  1.00  0.00     0.041 A 
HETATM   13  C   UNL     1       9.230  21.073  54.439  1.00  0.00     0.045 A 
HETATM   14  C   UNL     1       8.401  21.120  53.319  1.00  0.00     0.117 A 
HETATM   15  F   UNL     1       8.484  20.151  52.400  1.00  0.00    -0.206 F 
HETATM   16  C   UNL     1       7.488  22.153  53.141  1.00  0.00     0.060 A 
ENDROOT
BRANCH   6  17
HETATM   17  C   UNL     1       5.335  27.354  53.952  1.00  0.00    -0.028 A 
HETATM   18  C   UNL     1       3.992  27.612  53.619  1.00  0.00     0.046 A 
HETATM   19  C   UNL     1       3.673  28.466  52.570  1.00  0.00     0.066 A 
HETATM   20  C   UNL     1       4.669  29.076  51.825  1.00  0.00     0.036 A 
HETATM   21  C   UNL     1       6.006  28.826  52.137  1.00  0.00     0.003 A 
HETATM   22  C   UNL     1       6.341  27.973  53.197  1.00  0.00     0.010 A 
BRANCH  19  23
HETATM   23  O   UNL     1       2.350  28.681  52.324  1.00  0.00    -0.361 OA
HETATM   24  H   UNL     1       1.966  27.863  51.962  1.00  0.00     0.217 HD
ENDBRANCH  19  23
ENDBRANCH   6  17
BRANCH   1  25
HETATM   25  C   UNL     1       6.139  28.572  56.590  1.00  0.00     0.155 C 
BRANCH  25  26
HETATM   26  C   UNL     1       7.377  29.435  56.326  1.00  0.00     0.254 C 
BRANCH  26  27
HETATM   27  N   UNL     1       8.329  29.423  57.509  1.00  0.00    -0.077 N 
HETATM   28  C   UNL     1       7.791  30.229  58.656  1.00  0.00     0.269 C 
HETATM   29  H   UNL     1       8.410  28.444  57.819  1.00  0.00     0.279 HD
HETATM   30  C   UNL     1       9.731  29.848  57.155  1.00  0.00     0.269 C 
ENDBRANCH  26  27
ENDBRANCH  25  26
ENDBRANCH   1  25
TORSDOF 5
ENDMDL
MODEL 2
REMARK VINA RESULT:      -9.1      1.028      1.218
REMARK  5 active torsions:
REMARK  status: ('A' for Active; 'I' for Inactive)
REMARK    1  A    between atoms: N_2  and  C_4 
REMARK    2  A    between atoms: C_4  and  C_5 
REMARK    3  A    between atoms: C_5  and  N_6 
REMARK    4  A    between atoms: C_11  and  C_12 
REMARK    5  A    between atoms: C_14  and  O_15 
ROOT
HETATM    1  N   UNL     1       6.200  27.625  55.850  1.00  0.00    -0.332 N 
HETATM    2  C   UNL     1       7.163  26.858  56.489  1.00  0.00     0.279 C 
HETATM    3  O   UNL     1       7.742  27.158  57.514  1.00  0.00    -0.265 OA
HETATM    4  C   UNL     1       7.309  25.621  55.702  1.00  0.00     0.156 A 
HETATM    5  C   UNL     1       6.389  25.672  54.737  1.00  0.00     0.060 A 
HETATM    6  C   UNL     1       5.491  26.848  54.833  1.00  0.00     0.161 C 
HETATM    7  O   UNL     1       8.223  24.636  55.943  1.00  0.00    -0.303 OA
HETATM    8  C   UNL     1       8.222  23.584  55.051  1.00  0.00     0.090 A 
HETATM    9  C   UNL     1       7.334  23.509  53.964  1.00  0.00     0.051 A 
HETATM   10  C   UNL     1       6.311  24.565  53.792  1.00  0.00     0.196 A 
HETATM   11  O   UNL     1       5.445  24.511  52.934  1.00  0.00    -0.287 OA
HETATM   12  C   UNL     1       9.157  22.570  55.262  1.00  0.00     0.041 A 
HETATM   13  C   UNL     1       9.217  21.494  54.375  1.00  0.00     0.045 A 
HETATM   14  C   UNL     1       8.349  21.444  53.286  1.00  0.00     0.117 A 
HETATM   15  F   UNL     1       8.425  20.414  52.434  1.00  0.00    -0.206 F 
HETATM   16  C   UNL     1       7.403  22.439  53.070  1.00  0.00     0.060 A 
ENDROOT
BRANCH   6  17
HETATM   17  C   UNL     1       5.145  27.632  53.597  1.00  0.00    -0.028 A 
HETATM   18  C   UNL     1       3.785  27.840  53.300  1.00  0.00     0.046 A 
HETATM   19  C   UNL     1       3.407  28.611  52.206  1.00  0.00     0.066 A 
HETATM   20  C   UNL     1       4.361  29.185  51.382  1.00  0.00     0.036 A 
HETATM   21  C   UNL     1       5.715  28.984  51.658  1.00  0.00     0.003 A 
HETATM   22  C   UNL     1       6.108  28.216  52.761  1.00  0.00     0.010 A 
BRANCH  19  23
HETATM   23  O   UNL     1       2.072  28.782  51.997  1.00  0.00    -0.361 OA
HETATM   24  H   UNL     1       1.727  29.385  52.679  1.00  0.00     0.217 HD
ENDBRANCH  19  23
ENDBRANCH   6  17
BRANCH   1  25
HETATM   25  C   UNL     1       6.007  29.051  56.114  1.00  0.00     0.155 C 
BRANCH  25  26
HETATM   26  C   UNL     1       5.012  29.348  57.239  1.00  0.00     0.254 C 
BRANCH  26  27
HETATM   27  N   UNL     1       5.547  30.400  58.195  1.00  0.00    -0.077 N 
HETATM   28  C   UNL     1       4.872  31.725  57.988  1.00  0.00     0.269 C 
HETATM   29  H   UNL     1       5.327  30.078  59.149  1.00  0.00     0.279 HD
HETATM   30  C   UNL     1       7.046  30.540  58.155  1.00  0.00     0.269 C 
ENDBRANCH  26  27
ENDBRANCH  25  26
ENDBRANCH   1  25
TORSDOF 5
ENDMDL
MODEL 3
REMARK VINA RESULT:      -8.7      2.197      4.735
REMARK  5 active torsions:
REMARK  status: ('A' for Active; 'I' for Inactive)
REMARK    1  A    between atoms: N_2  and  C_4 
REMARK    2  A    between atoms: C_4  and  C_5 
REMARK    3  A    between atoms: C_5  and  N_6 
REMARK    4  A    between atoms: C_11  and  C_12 
REMARK    5  A    between atoms: C_14  and  O_15 
ROOT
HETATM    1  N   UNL     1       6.606  26.893  52.883  1.00  0.00    -0.332 N 
HETATM    2  C   UNL     1       6.669  25.741  52.114  1.00  0.00     0.279 C 
HETATM    3  O   UNL     1       6.366  25.656  50.940  1.00  0.00    -0.265 OA
HETATM    4  C   UNL     1       7.197  24.678  52.986  1.00  0.00     0.156 A 
HETATM    5  C   UNL     1       7.506  25.256  54.148  1.00  0.00     0.060 A 
HETATM    6  C   UNL     1       7.327  26.728  54.147  1.00  0.00     0.161 C 
HETATM    7  O   UNL     1       7.331  23.365  52.637  1.00  0.00    -0.303 OA
HETATM    8  C   UNL     1       7.801  22.525  53.626  1.00  0.00     0.090 A 
HETATM    9  C   UNL     1       8.139  22.978  54.912  1.00  0.00     0.051 A 
HETATM   10  C   UNL     1       8.051  24.425  55.215  1.00  0.00     0.196 A 
HETATM   11  O   UNL     1       8.424  24.902  56.275  1.00  0.00    -0.287 OA
HETATM   12  C   UNL     1       7.931  21.174  53.303  1.00  0.00     0.041 A 
HETATM   13  C   UNL     1       8.379  20.275  54.273  1.00  0.00     0.045 A 
HETATM   14  C   UNL     1       8.686  20.733  55.553  1.00  0.00     0.117 A 
HETATM   15  F   UNL     1       9.100  19.860  56.480  1.00  0.00    -0.206 F 
HETATM   16  C   UNL     1       8.574  22.078  55.886  1.00  0.00     0.060 A 
ENDROOT
BRANCH   6  17
HETATM   17  C   UNL     1       6.670  27.406  55.318  1.00  0.00    -0.028 A 
HETATM   18  C   UNL     1       7.303  28.533  55.875  1.00  0.00     0.046 A 
HETATM   19  C   UNL     1       6.710  29.238  56.916  1.00  0.00     0.066 A 
HETATM   20  C   UNL     1       5.486  28.842  57.432  1.00  0.00     0.036 A 
HETATM   21  C   UNL     1       4.847  27.723  56.896  1.00  0.00     0.003 A 
HETATM   22  C   UNL     1       5.431  27.009  55.841  1.00  0.00     0.010 A 
BRANCH  19  23
HETATM   23  O   UNL     1       7.376  30.329  57.387  1.00  0.00    -0.361 OA
HETATM   24  H   UNL     1       8.226  30.036  57.759  1.00  0.00     0.217 HD
ENDBRANCH  19  23
ENDBRANCH   6  17
BRANCH   1  25
HETATM   25  C   UNL     1       5.831  28.072  52.499  1.00  0.00     0.155 C 
BRANCH  25  26
HETATM   26  C   UNL     1       4.317  27.842  52.474  1.00  0.00     0.254 C 
BRANCH  26  27
HETATM   27  N   UNL     1       3.717  28.205  51.127  1.00  0.00    -0.077 N 
HETATM   28  C   UNL     1       4.780  28.581  50.136  1.00  0.00     0.269 C 
HETATM   29  H   UNL     1       3.240  27.362  50.775  1.00  0.00     0.279 HD
HETATM   30  C   UNL     1       2.650  29.265  51.212  1.00  0.00     0.269 C 
ENDBRANCH  26  27
ENDBRANCH  25  26
ENDBRANCH   1  25
TORSDOF 5
ENDMDL
MODEL 4
REMARK VINA RESULT:      -8.4      6.090      9.711
REMARK  5 active torsions:
REMARK  status: ('A' for Active; 'I' for Inactive)
REMARK    1  A    between atoms: N_2  and  C_4 
REMARK    2  A    between atoms: C_4  and  C_5 
REMARK    3  A    between atoms: C_5  and  N_6 
REMARK    4  A    between atoms: C_11  and  C_12 
REMARK    5  A    between atoms: C_14  and  O_15 
ROOT
HETATM    1  N   UNL     1       4.792  32.482  60.336  1.00  0.00    -0.332 N 
HETATM    2  C   UNL     1       4.754  31.584  59.282  1.00  0.00     0.279 C 
HETATM    3  O   UNL     1       3.747  31.123  58.780  1.00  0.00    -0.265 OA
HETATM    4  C   UNL     1       6.150  31.335  58.886  1.00  0.00     0.156 A 
HETATM    5  C   UNL     1       6.907  32.147  59.627  1.00  0.00     0.060 A 
HETATM    6  C   UNL     1       6.126  33.067  60.488  1.00  0.00     0.161 C 
HETATM    7  O   UNL     1       6.555  30.438  57.940  1.00  0.00    -0.303 OA
HETATM    8  C   UNL     1       7.918  30.327  57.760  1.00  0.00     0.090 A 
HETATM    9  C   UNL     1       8.846  31.091  58.488  1.00  0.00     0.051 A 
HETATM   10  C   UNL     1       8.353  32.106  59.447  1.00  0.00     0.196 A 
HETATM   11  O   UNL     1       9.096  32.874  60.037  1.00  0.00    -0.287 OA
HETATM   12  C   UNL     1       8.362  29.406  56.811  1.00  0.00     0.041 A 
HETATM   13  C   UNL     1       9.732  29.235  56.607  1.00  0.00     0.045 A 
HETATM   14  C   UNL     1      10.643  29.980  57.354  1.00  0.00     0.117 A 
HETATM   15  F   UNL     1      11.955  29.797  57.159  1.00  0.00    -0.206 F 
HETATM   16  C   UNL     1      10.216  30.911  58.293  1.00  0.00     0.060 A 
ENDROOT
BRANCH   6  17
HETATM   17  C   UNL     1       6.536  33.289  61.918  1.00  0.00    -0.028 A 
HETATM   18  C   UNL     1       6.152  34.491  62.541  1.00  0.00     0.046 A 
HETATM   19  C   UNL     1       6.448  34.723  63.880  1.00  0.00     0.066 A 
HETATM   20  C   UNL     1       7.133  33.778  64.627  1.00  0.00     0.036 A 
HETATM   21  C   UNL     1       7.528  32.583  64.023  1.00  0.00     0.003 A 
HETATM   22  C   UNL     1       7.228  32.335  62.677  1.00  0.00     0.010 A 
BRANCH  19  23
HETATM   23  O   UNL     1       6.024  35.901  64.416  1.00  0.00    -0.361 OA
HETATM   24  H   UNL     1       5.070  35.835  64.595  1.00  0.00     0.217 HD
ENDBRANCH  19  23
ENDBRANCH   6  17
BRANCH   1  25
HETATM   25  C   UNL     1       3.656  32.724  61.226  1.00  0.00     0.155 C 
BRANCH  25  26
HETATM   26  C   UNL     1       2.702  33.817  60.736  1.00  0.00     0.254 C 
BRANCH  26  27
HETATM   27  N   UNL     1       2.283  34.742  61.866  1.00  0.00    -0.077 N 
HETATM   28  C   UNL     1       2.964  36.076  61.765  1.00  0.00     0.269 C 
HETATM   29  H   UNL     1       1.269  34.895  61.768  1.00  0.00     0.279 HD
HETATM   30  C   UNL     1       2.467  34.138  63.234  1.00  0.00     0.269 C 
ENDBRANCH  26  27
ENDBRANCH  25  26
ENDBRANCH   1  25
TORSDOF 5
ENDMDL
MODEL 5
REMARK VINA RESULT:      -8.2      3.169      6.532
REMARK  5 active torsions:
REMARK  status: ('A' for Active; 'I' for Inactive)
REMARK    1  A    between atoms: N_2  and  C_4 
REMARK    2  A    between atoms: C_4  and  C_5 
REMARK    3  A    between atoms: C_5  and  N_6 
REMARK    4  A    between atoms: C_11  and  C_12 
REMARK    5  A    between atoms: C_14  and  O_15 
ROOT
HETATM    1  N   UNL     1       7.002  24.905  54.478  1.00  0.00    -0.332 N 
HETATM    2  C   UNL     1       6.767  24.443  53.193  1.00  0.00     0.279 C 
HETATM    3  O   UNL     1       7.122  23.368  52.750  1.00  0.00    -0.265 OA
HETATM    4  C   UNL     1       5.989  25.487  52.503  1.00  0.00     0.156 A 
HETATM    5  C   UNL     1       5.725  26.427  53.411  1.00  0.00     0.060 A 
HETATM    6  C   UNL     1       6.184  26.081  54.778  1.00  0.00     0.161 C 
HETATM    7  O   UNL     1       5.627  25.462  51.187  1.00  0.00    -0.303 OA
HETATM    8  C   UNL     1       4.942  26.568  50.731  1.00  0.00     0.090 A 
HETATM    9  C   UNL     1       4.616  27.656  51.559  1.00  0.00     0.051 A 
HETATM   10  C   UNL     1       4.963  27.600  52.997  1.00  0.00     0.196 A 
HETATM   11  O   UNL     1       4.622  28.460  53.793  1.00  0.00    -0.287 OA
HETATM   12  C   UNL     1       4.574  26.578  49.386  1.00  0.00     0.041 A 
HETATM   13  C   UNL     1       3.900  27.685  48.865  1.00  0.00     0.045 A 
HETATM   14  C   UNL     1       3.606  28.769  49.690  1.00  0.00     0.117 A 
HETATM   15  F   UNL     1       2.973  29.831  49.176  1.00  0.00    -0.206 F 
HETATM   16  C   UNL     1       3.954  28.768  51.035  1.00  0.00     0.060 A 
ENDROOT
BRANCH   6  17
HETATM   17  C   UNL     1       6.884  27.113  55.620  1.00  0.00    -0.028 A 
HETATM   18  C   UNL     1       7.891  27.892  55.018  1.00  0.00     0.046 A 
HETATM   19  C   UNL     1       8.526  28.903  55.730  1.00  0.00     0.066 A 
HETATM   20  C   UNL     1       8.187  29.162  57.048  1.00  0.00     0.036 A 
HETATM   21  C   UNL     1       7.195  28.395  57.662  1.00  0.00     0.003 A 
HETATM   22  C   UNL     1       6.542  27.379  56.953  1.00  0.00     0.010 A 
BRANCH  19  23
HETATM   23  O   UNL     1       9.475  29.625  55.071  1.00  0.00    -0.361 OA
HETATM   24  H   UNL     1       9.101  30.495  54.845  1.00  0.00     0.217 HD
ENDBRANCH  19  23
ENDBRANCH   6  17
BRANCH   1  25
HETATM   25  C   UNL     1       8.014  24.329  55.364  1.00  0.00     0.155 C 
BRANCH  25  26
HETATM   26  C   UNL     1       7.561  23.054  56.082  1.00  0.00     0.254 C 
BRANCH  26  27
HETATM   27  N   UNL     1       7.984  21.806  55.326  1.00  0.00    -0.077 N 
HETATM   28  C   UNL     1       7.706  20.562  56.119  1.00  0.00     0.269 C 
HETATM   29  H   UNL     1       7.416  21.769  54.467  1.00  0.00     0.279 HD
HETATM   30  C   UNL     1       9.416  21.846  54.858  1.00  0.00     0.269 C 
ENDBRANCH  26  27
ENDBRANCH  25  26
ENDBRANCH   1  25
TORSDOF 5
ENDMDL
MODEL 6
REMARK VINA RESULT:      -8.1      3.696      6.801
REMARK  5 active torsions:
REMARK  status: ('A' for Active; 'I' for Inactive)
REMARK    1  A    between atoms: N_2  and  C_4 
REMARK    2  A    between atoms: C_4  and  C_5 
REMARK    3  A    between atoms: C_5  and  N_6 
REMARK    4  A    between atoms: C_11  and  C_12 
REMARK    5  A    between atoms: C_14  and  O_15 
ROOT
HETATM    1  N   UNL     1       5.901  31.354  58.311  1.00  0.00    -0.332 N 
HETATM    2  C   UNL     1       4.977  30.468  57.780  1.00  0.00     0.279 C 
HETATM    3  O   UNL     1       3.805  30.710  57.567  1.00  0.00    -0.265 OA
HETATM    4  C   UNL     1       5.701  29.215  57.506  1.00  0.00     0.156 A 
HETATM    5  C   UNL     1       6.985  29.449  57.778  1.00  0.00     0.060 A 
HETATM    6  C   UNL     1       7.268  30.857  58.148  1.00  0.00     0.161 C 
HETATM    7  O   UNL     1       5.133  28.056  57.059  1.00  0.00    -0.303 OA
HETATM    8  C   UNL     1       5.988  26.984  56.915  1.00  0.00     0.090 A 
HETATM    9  C   UNL     1       7.363  27.064  57.194  1.00  0.00     0.051 A 
HETATM   10  C   UNL     1       7.943  28.364  57.601  1.00  0.00     0.196 A 
HETATM   11  O   UNL     1       9.141  28.531  57.759  1.00  0.00    -0.287 OA
HETATM   12  C   UNL     1       5.432  25.782  56.476  1.00  0.00     0.041 A 
HETATM   13  C   UNL     1       6.247  24.657  56.338  1.00  0.00     0.045 A 
HETATM   14  C   UNL     1       7.605  24.742  56.642  1.00  0.00     0.117 A 
HETATM   15  F   UNL     1       8.374  23.654  56.520  1.00  0.00    -0.206 F 
HETATM   16  C   UNL     1       8.175  25.936  57.067  1.00  0.00     0.060 A 
ENDROOT
BRANCH   6  17
HETATM   17  C   UNL     1       8.172  31.162  59.311  1.00  0.00    -0.028 A 
HETATM   18  C   UNL     1       8.035  30.392  60.481  1.00  0.00     0.046 A 
HETATM   19  C   UNL     1       8.885  30.587  61.563  1.00  0.00     0.066 A 
HETATM   20  C   UNL     1       9.882  31.548  61.515  1.00  0.00     0.036 A 
HETATM   21  C   UNL     1      10.029  32.325  60.365  1.00  0.00     0.003 A 
HETATM   22  C   UNL     1       9.183  32.132  59.265  1.00  0.00     0.010 A 
BRANCH  19  23
HETATM   23  O   UNL     1       8.701  29.789  62.651  1.00  0.00    -0.361 OA
HETATM   24  H   UNL     1       7.812  29.958  63.011  1.00  0.00     0.217 HD
ENDBRANCH  19  23
ENDBRANCH   6  17
BRANCH   1  25
HETATM   25  C   UNL     1       5.524  32.575  59.022  1.00  0.00     0.155 C 
BRANCH  25  26
HETATM   26  C   UNL     1       4.833  32.326  60.366  1.00  0.00     0.254 C 
BRANCH  26  27
HETATM   27  N   UNL     1       5.676  32.820  61.529  1.00  0.00    -0.077 N 
HETATM   28  C   UNL     1       5.502  31.952  62.741  1.00  0.00     0.269 C 
HETATM   29  H   UNL     1       6.661  32.758  61.233  1.00  0.00     0.279 HD
HETATM   30  C   UNL     1       5.447  34.272  61.860  1.00  0.00     0.269 C 
ENDBRANCH  26  27
ENDBRANCH  25  26
ENDBRANCH   1  25
TORSDOF 5
ENDMDL
MODEL 7
REMARK VINA RESULT:      -7.9      2.742      3.729
REMARK  5 active torsions:
REMARK  status: ('A' for Active; 'I' for Inactive)
REMARK    1  A    between atoms: N_2  and  C_4 
REMARK    2  A    between atoms: C_4  and  C_5 
REMARK    3  A    between atoms: C_5  and  N_6 
REMARK    4  A    between atoms: C_11  and  C_12 
REMARK    5  A    between atoms: C_14  and  O_15 
ROOT
HETATM    1  N   UNL     1       6.535  29.951  57.898  1.00  0.00    -0.332 N 
HETATM    2  C   UNL     1       7.653  29.223  58.273  1.00  0.00     0.279 C 
HETATM    3  O   UNL     1       8.574  29.637  58.949  1.00  0.00    -0.265 OA
HETATM    4  C   UNL     1       7.479  27.867  57.723  1.00  0.00     0.156 A 
HETATM    5  C   UNL     1       6.269  27.835  57.164  1.00  0.00     0.060 A 
HETATM    6  C   UNL     1       5.487  29.079  57.363  1.00  0.00     0.161 C 
HETATM    7  O   UNL     1       8.402  26.864  57.791  1.00  0.00    -0.303 OA
HETATM    8  C   UNL     1       8.056  25.685  57.165  1.00  0.00     0.090 A 
HETATM    9  C   UNL     1       6.829  25.506  56.504  1.00  0.00     0.051 A 
HETATM   10  C   UNL     1       5.830  26.599  56.526  1.00  0.00     0.196 A 
HETATM   11  O   UNL     1       4.708  26.478  56.063  1.00  0.00    -0.287 OA
HETATM   12  C   UNL     1       8.987  24.647  57.204  1.00  0.00     0.041 A 
HETATM   13  C   UNL     1       8.699  23.440  56.564  1.00  0.00     0.045 A 
HETATM   14  C   UNL     1       7.489  23.284  55.890  1.00  0.00     0.117 A 
HETATM   15  F   UNL     1       7.230  22.127  55.268  1.00  0.00    -0.206 F 
HETATM   16  C   UNL     1       6.546  24.304  55.854  1.00  0.00     0.060 A 
ENDROOT
BRANCH   6  17
HETATM   17  C   UNL     1       4.721  29.678  56.216  1.00  0.00    -0.028 A 
HETATM   18  C   UNL     1       3.574  30.440  56.507  1.00  0.00     0.046 A 
HETATM   19  C   UNL     1       2.864  31.070  55.491  1.00  0.00     0.066 A 
HETATM   20  C   UNL     1       3.266  30.956  54.170  1.00  0.00     0.036 A 
HETATM   21  C   UNL     1       4.398  30.198  53.863  1.00  0.00     0.003 A 
HETATM   22  C   UNL     1       5.126  29.565  54.878  1.00  0.00     0.010 A 
BRANCH  19  23
HETATM   23  O   UNL     1       1.778  31.806  55.856  1.00  0.00    -0.361 OA
HETATM   24  H   UNL     1       1.246  31.283  56.483  1.00  0.00     0.217 HD
ENDBRANCH  19  23
ENDBRANCH   6  17
BRANCH   1  25
HETATM   25  C   UNL     1       6.474  31.412  57.952  1.00  0.00     0.155 C 
BRANCH  25  26
HETATM   26  C   UNL     1       6.204  31.974  59.351  1.00  0.00     0.254 C 
BRANCH  26  27
HETATM   27  N   UNL     1       4.964  32.850  59.372  1.00  0.00    -0.077 N 
HETATM   28  C   UNL     1       3.742  32.065  59.751  1.00  0.00     0.269 C 
HETATM   29  H   UNL     1       5.117  33.568  60.095  1.00  0.00     0.279 HD
HETATM   30  C   UNL     1       4.747  33.613  58.091  1.00  0.00     0.269 C 
ENDBRANCH  26  27
ENDBRANCH  25  26
ENDBRANCH   1  25
TORSDOF 5
ENDMDL
MODEL 8
REMARK VINA RESULT:      -7.8      3.302      6.723
REMARK  5 active torsions:
REMARK  status: ('A' for Active; 'I' for Inactive)
REMARK    1  A    between atoms: N_2  and  C_4 
REMARK    2  A    between atoms: C_4  and  C_5 
REMARK    3  A    between atoms: C_5  and  N_6 
REMARK    4  A    between atoms: C_11  and  C_12 
REMARK    5  A    between atoms: C_14  and  O_15 
ROOT
HETATM    1  N   UNL     1       5.382  25.835  53.954  1.00  0.00    -0.332 N 
HETATM    2  C   UNL     1       5.150  25.273  52.708  1.00  0.00     0.279 C 
HETATM    3  O   UNL     1       5.023  24.086  52.479  1.00  0.00    -0.265 OA
HETATM    4  C   UNL     1       5.061  26.388  51.750  1.00  0.00     0.156 A 
HETATM    5  C   UNL     1       5.135  27.512  52.465  1.00  0.00     0.060 A 
HETATM    6  C   UNL     1       5.173  27.284  53.930  1.00  0.00     0.161 C 
HETATM    7  O   UNL     1       4.927  26.258  50.398  1.00  0.00    -0.303 OA
HETATM    8  C   UNL     1       4.913  27.435  49.679  1.00  0.00     0.090 A 
HETATM    9  C   UNL     1       5.015  28.698  50.286  1.00  0.00     0.051 A 
HETATM   10  C   UNL     1       5.079  28.788  51.762  1.00  0.00     0.196 A 
HETATM   11  O   UNL     1       5.066  29.852  52.361  1.00  0.00    -0.287 OA
HETATM   12  C   UNL     1       4.795  27.332  48.293  1.00  0.00     0.041 A 
HETATM   13  C   UNL     1       4.801  28.491  47.514  1.00  0.00     0.045 A 
HETATM   14  C   UNL     1       4.929  29.737  48.126  1.00  0.00     0.117 A 
HETATM   15  F   UNL     1       4.949  30.840  47.368  1.00  0.00    -0.206 F 
HETATM   16  C   UNL     1       5.034  29.856  49.506  1.00  0.00     0.060 A 
ENDROOT
BRANCH   6  17
HETATM   17  C   UNL     1       6.141  28.055  54.786  1.00  0.00    -0.028 A 
HETATM   18  C   UNL     1       5.669  28.608  55.990  1.00  0.00     0.046 A 
HETATM   19  C   UNL     1       6.533  29.275  56.851  1.00  0.00     0.066 A 
HETATM   20  C   UNL     1       7.876  29.415  56.539  1.00  0.00     0.036 A 
HETATM   21  C   UNL     1       8.360  28.877  55.345  1.00  0.00     0.003 A 
HETATM   22  C   UNL     1       7.500  28.196  54.473  1.00  0.00     0.010 A 
BRANCH  19  23
HETATM   23  O   UNL     1       6.004  29.765  58.007  1.00  0.00    -0.361 OA
HETATM   24  H   UNL     1       5.159  29.312  58.177  1.00  0.00     0.217 HD
ENDBRANCH  19  23
ENDBRANCH   6  17
BRANCH   1  25
HETATM   25  C   UNL     1       5.864  25.069  55.103  1.00  0.00     0.155 C 
BRANCH  25  26
HETATM   26  C   UNL     1       7.293  24.541  54.944  1.00  0.00     0.254 C 
BRANCH  26  27
HETATM   27  N   UNL     1       7.308  23.104  54.453  1.00  0.00    -0.077 N 
HETATM   28  C   UNL     1       7.671  22.150  55.554  1.00  0.00     0.269 C 
HETATM   29  H   UNL     1       6.350  22.883  54.144  1.00  0.00     0.279 HD
HETATM   30  C   UNL     1       8.177  22.894  53.240  1.00  0.00     0.269 C 
ENDBRANCH  26  27
ENDBRANCH  25  26
ENDBRANCH   1  25
TORSDOF 5
ENDMDL
MODEL 9
REMARK VINA RESULT:      -7.7      2.484      3.329
REMARK  5 active torsions:
REMARK  status: ('A' for Active; 'I' for Inactive)
REMARK    1  A    between atoms: N_2  and  C_4 
REMARK    2  A    between atoms: C_4  and  C_5 
REMARK    3  A    between atoms: C_5  and  N_6 
REMARK    4  A    between atoms: C_11  and  C_12 
REMARK    5  A    between atoms: C_14  and  O_15 
ROOT
HETATM    1  N   UNL     1       4.066  28.699  54.484  1.00  0.00    -0.332 N 
HETATM    2  C   UNL     1       4.685  28.022  55.523  1.00  0.00     0.279 C 
HETATM    3  O   UNL     1       4.679  28.360  56.691  1.00  0.00    -0.265 OA
HETATM    4  C   UNL     1       5.308  26.823  54.937  1.00  0.00     0.156 A 
HETATM    5  C   UNL     1       4.951  26.798  53.652  1.00  0.00     0.060 A 
HETATM    6  C   UNL     1       4.002  27.873  53.277  1.00  0.00     0.161 C 
HETATM    7  O   UNL     1       6.093  25.932  55.610  1.00  0.00    -0.303 OA
HETATM    8  C   UNL     1       6.619  24.904  54.855  1.00  0.00     0.090 A 
HETATM    9  C   UNL     1       6.361  24.759  53.482  1.00  0.00     0.051 A 
HETATM   10  C   UNL     1       5.439  25.708  52.815  1.00  0.00     0.196 A 
HETATM   11  O   UNL     1       5.090  25.583  51.653  1.00  0.00    -0.287 OA
HETATM   12  C   UNL     1       7.439  23.988  55.513  1.00  0.00     0.041 A 
HETATM   13  C   UNL     1       8.018  22.941  54.792  1.00  0.00     0.045 A 
HETATM   14  C   UNL     1       7.775  22.824  53.425  1.00  0.00     0.117 A 
HETATM   15  F   UNL     1       8.347  21.825  52.742  1.00  0.00    -0.206 F 
HETATM   16  C   UNL     1       6.949  23.721  52.759  1.00  0.00     0.060 A 
ENDROOT
BRANCH   6  17
HETATM   17  C   UNL     1       4.203  28.642  51.999  1.00  0.00    -0.028 A 
HETATM   18  C   UNL     1       3.076  28.909  51.198  1.00  0.00     0.046 A 
HETATM   19  C   UNL     1       3.193  29.669  50.041  1.00  0.00     0.066 A 
HETATM   20  C   UNL     1       4.420  30.176  49.647  1.00  0.00     0.036 A 
HETATM   21  C   UNL     1       5.549  29.917  50.426  1.00  0.00     0.003 A 
HETATM   22  C   UNL     1       5.443  29.158  51.599  1.00  0.00     0.010 A 
BRANCH  19  23
HETATM   23  O   UNL     1       2.053  29.900  49.331  1.00  0.00    -0.361 OA
HETATM   24  H   UNL     1       1.382  29.248  49.602  1.00  0.00     0.217 HD
ENDBRANCH  19  23
ENDBRANCH   6  17
BRANCH   1  25
HETATM   25  C   UNL     1       3.630  30.092  54.581  1.00  0.00     0.155 C 
BRANCH  25  26
HETATM   26  C   UNL     1       4.763  31.081  54.871  1.00  0.00     0.254 C 
BRANCH  26  27
HETATM   27  N   UNL     1       4.760  32.239  53.889  1.00  0.00    -0.077 N 
HETATM   28  C   UNL     1       4.844  33.560  54.597  1.00  0.00     0.269 C 
HETATM   29  H   UNL     1       5.601  32.139  53.304  1.00  0.00     0.279 HD
HETATM   30  C   UNL     1       3.598  32.208  52.929  1.00  0.00     0.269 C 
ENDBRANCH  26  27
ENDBRANCH  25  26
ENDBRANCH   1  25
TORSDOF 5
ENDMDL
MODEL 10
REMARK VINA RESULT:      -7.7      3.737      6.733
REMARK  5 active torsions:
REMARK  status: ('A' for Active; 'I' for Inactive)
REMARK    1  A    between atoms: N_2  and  C_4 
REMARK    2  A    between atoms: C_4  and  C_5 
REMARK    3  A    between atoms: C_5  and  N_6 
REMARK    4  A    between atoms: C_11  and  C_12 
REMARK    5  A    between atoms: C_14  and  O_15 
ROOT
HETATM    1  N   UNL     1       5.554  31.245  58.105  1.00  0.00    -0.332 N 
HETATM    2  C   UNL     1       4.732  30.258  57.586  1.00  0.00     0.279 C 
HETATM    3  O   UNL     1       3.553  30.386  57.317  1.00  0.00    -0.265 OA
HETATM    4  C   UNL     1       5.570  29.060  57.403  1.00  0.00     0.156 A 
HETATM    5  C   UNL     1       6.818  29.418  57.711  1.00  0.00     0.060 A 
HETATM    6  C   UNL     1       6.964  30.861  58.018  1.00  0.00     0.161 C 
HETATM    7  O   UNL     1       5.121  27.837  56.995  1.00  0.00    -0.303 OA
HETATM    8  C   UNL     1       6.070  26.837  56.938  1.00  0.00     0.090 A 
HETATM    9  C   UNL     1       7.420  27.049  57.264  1.00  0.00     0.051 A 
HETATM   10  C   UNL     1       7.871  28.413  57.625  1.00  0.00     0.196 A 
HETATM   11  O   UNL     1       9.043  28.691  57.820  1.00  0.00    -0.287 OA
HETATM   12  C   UNL     1       5.636  25.572  56.541  1.00  0.00     0.041 A 
HETATM   13  C   UNL     1       6.549  24.517  56.490  1.00  0.00     0.045 A 
HETATM   14  C   UNL     1       7.881  24.734  56.841  1.00  0.00     0.117 A 
HETATM   15  F   UNL     1       8.744  23.712  56.803  1.00  0.00    -0.206 F 
HETATM   16  C   UNL     1       8.330  25.992  57.226  1.00  0.00     0.060 A 
ENDROOT
BRANCH   6  17
HETATM   17  C   UNL     1       7.790  31.299  59.197  1.00  0.00    -0.028 A 
HETATM   18  C   UNL     1       7.230  31.180  60.483  1.00  0.00     0.046 A 
HETATM   19  C   UNL     1       7.970  31.509  61.613  1.00  0.00     0.066 A 
HETATM   20  C   UNL     1       9.273  31.966  61.497  1.00  0.00     0.036 A 
HETATM   21  C   UNL     1       9.842  32.096  60.229  1.00  0.00     0.003 A 
HETATM   22  C   UNL     1       9.109  31.760  59.084  1.00  0.00     0.010 A 
BRANCH  19  23
HETATM   23  O   UNL     1       7.364  31.348  62.822  1.00  0.00    -0.361 OA
HETATM   24  H   UNL     1       8.040  31.094  63.476  1.00  0.00     0.217 HD
ENDBRANCH  19  23
ENDBRANCH   6  17
BRANCH   1  25
HETATM   25  C   UNL     1       5.046  32.461  58.738  1.00  0.00     0.155 C 
BRANCH  25  26
HETATM   26  C   UNL     1       4.956  33.665  57.795  1.00  0.00     0.254 C 
BRANCH  26  27
HETATM   27  N   UNL     1       4.040  33.384  56.616  1.00  0.00    -0.077 N 
HETATM   28  C   UNL     1       4.777  33.486  55.312  1.00  0.00     0.269 C 
HETATM   29  H   UNL     1       3.708  32.414  56.719  1.00  0.00     0.279 HD
HETATM   30  C   UNL     1       2.797  34.234  56.607  1.00  0.00     0.269 C 
ENDBRANCH  26  27
ENDBRANCH  25  26
ENDBRANCH   1  25
TORSDOF 5
ENDMDL
