MODEL 1
REMARK VINA RESULT:      -7.3      0.000      0.000
REMARK  10 active torsions:
REMARK  status: ('A' for Active; 'I' for Inactive)
REMARK    1  A    between atoms: C_1  and  C_8 
REMARK    2  A    between atoms: C_1  and  S_9 
REMARK    3  A    between atoms: C_3  and  C_24 
REMARK    4  A    between atoms: C_7  and  C_8 
REMARK    5  A    between atoms: S_9  and  C_10 
REMARK    6  A    between atoms: C_10  and  S_11 
REMARK    7  A    between atoms: S_11  and  C_12 
REMARK    8  A    between atoms: C_12  and  C_13 
REMARK    9  A    between atoms: C_13  and  C_14 
REMARK   10  A    between atoms: C_18  and  C_19 
ROOT
HETATM    1  C           1       4.502  26.015  53.603  0.00  0.00     0.092 C 
HETATM    2  C           1       4.663  28.339  53.031  0.00  0.00     0.156 C 
HETATM    3  N           1       4.034  26.955  52.827  0.00  0.00    -0.350 N 
HETATM    4  N           1       4.155  24.799  53.545  0.00  0.00    -0.388 N 
HETATM    5  C           1       5.544  26.586  54.529  0.00  0.00     0.127 C 
HETATM    6  C           1       5.297  28.120  54.454  0.00  0.00     0.136 C 
HETATM    7  C           1       4.321  28.508  55.519  0.00  0.00     0.079 C 
HETATM    8  N           1       3.619  28.725  56.416  0.00  0.00    -0.196 NA
HETATM    9  C           1       7.069  26.248  54.253  0.00  0.00     0.248 C 
HETATM   10  N           1       8.001  26.900  55.312  0.00  0.00    -0.040 N 
HETATM   11  C           1       7.743  28.328  55.245  0.00  0.00     0.105 C 
HETATM   12  C           1       8.908  29.207  55.623  0.00  0.00     0.075 C 
HETATM   13  C           1       6.574  28.863  54.825  0.00  0.00     0.036 C 
HETATM   14  H           1       3.317  26.771  52.111  0.00  0.00     0.163 HD
HETATM   15  H           1       4.626  24.081  54.150  0.00  0.00     0.157 HD
HETATM   16  H           1       3.418  24.483  52.868  0.00  0.00     0.157 HD
HETATM   17  H           1       8.988  26.731  55.011  0.00  0.00     0.284 HD
HETATM   18  H           1       7.894  26.531  56.277  0.00  0.00     0.284 HD
ENDROOT
BRANCH   2  19
HETATM   19  S           1       3.313  29.564  53.012  0.00  0.00    -0.125 SA
BRANCH  19  20
HETATM   20  C           1       3.803  30.698  51.679  0.00  0.00     0.077 C 
BRANCH  20  21
HETATM   21  C           1       2.800  30.567  50.521  0.00  0.00     0.010 C 
BRANCH  21  22
HETATM   22  C           1       1.996  29.259  50.616  0.00  0.00    -0.004 C 
HETATM   23  C           1       1.609  28.726  49.231  0.00  0.00     0.005 C 
ENDBRANCH  21  22
ENDBRANCH  20  21
ENDBRANCH  19  20
ENDBRANCH   2  19
BRANCH   2  24
HETATM   24  S           1       5.998  28.562  51.807  0.00  0.00    -0.125 SA
BRANCH  24  25
HETATM   25  C           1       5.331  27.612  50.404  0.00  0.00     0.077 C 
BRANCH  25  26
HETATM   26  C           1       5.444  28.467  49.132  0.00  0.00     0.010 C 
BRANCH  26  27
HETATM   27  C           1       5.131  27.647  47.869  0.00  0.00    -0.004 C 
HETATM   28  C           1       4.309  26.392  48.191  0.00  0.00     0.005 C 
ENDBRANCH  26  27
ENDBRANCH  25  26
ENDBRANCH  24  25
ENDBRANCH   2  24
BRANCH   5  29
HETATM   29  C           1       5.521  26.151  55.945  0.00  0.00     0.105 C 
HETATM   30  N           1       4.855  25.475  56.609  0.00  0.00    -0.151 N 
ENDBRANCH   5  29
BRANCH   9  31
HETATM   31  C           1       7.333  24.754  54.126  0.00  0.00    -0.026 A 
HETATM   32  C           1       7.525  24.214  52.907  0.00  0.00     0.009 A 
HETATM   33  C           1       7.754  22.902  52.749  0.00  0.00     0.001 A 
HETATM   34  C           1       7.803  22.097  53.820  0.00  0.00     0.000 A 
HETATM   35  C           1       7.629  22.618  55.043  0.00  0.00     0.001 A 
HETATM   36  C           1       7.400  23.933  55.190  0.00  0.00     0.009 A 
ENDBRANCH   9  31
TORSDOF 10
ENDMDL
MODEL 2
REMARK VINA RESULT:      -6.5     10.220     12.529
REMARK  10 active torsions:
REMARK  status: ('A' for Active; 'I' for Inactive)
REMARK    1  A    between atoms: C_1  and  C_8 
REMARK    2  A    between atoms: C_1  and  S_9 
REMARK    3  A    between atoms: C_3  and  C_24 
REMARK    4  A    between atoms: C_7  and  C_8 
REMARK    5  A    between atoms: S_9  and  C_10 
REMARK    6  A    between atoms: C_10  and  S_11 
REMARK    7  A    between atoms: S_11  and  C_12 
REMARK    8  A    between atoms: C_12  and  C_13 
REMARK    9  A    between atoms: C_13  and  C_14 
REMARK   10  A    between atoms: C_18  and  C_19 
ROOT
HETATM    1  C           1       5.303  33.833  61.169  0.00  0.00     0.092 C 
HETATM    2  C           1       4.716  35.812  62.391  0.00  0.00     0.156 C 
HETATM    3  N           1       4.862  35.057  61.063  0.00  0.00    -0.350 N 
HETATM    4  N           1       5.547  33.072  60.187  0.00  0.00    -0.388 N 
HETATM    5  C           1       5.524  33.490  62.619  0.00  0.00     0.127 C 
HETATM    6  C           1       4.723  34.588  63.379  0.00  0.00     0.136 C 
HETATM    7  C           1       3.328  34.100  63.607  0.00  0.00     0.079 C 
HETATM    8  N           1       2.295  33.612  63.804  0.00  0.00    -0.196 NA
HETATM    9  C           1       7.013  33.406  63.159  0.00  0.00     0.248 C 
HETATM   10  N           1       7.055  33.024  64.665  0.00  0.00    -0.040 N 
HETATM   11  C           1       6.287  34.044  65.357  0.00  0.00     0.105 C 
HETATM   12  C           1       6.710  34.309  66.780  0.00  0.00     0.075 C 
HETATM   13  C           1       5.296  34.761  64.780  0.00  0.00     0.036 C 
HETATM   14  H           1       4.657  35.491  60.153  0.00  0.00     0.163 HD
HETATM   15  H           1       5.971  32.122  60.341  0.00  0.00     0.157 HD
HETATM   16  H           1       5.364  33.389  59.204  0.00  0.00     0.157 HD
HETATM   17  H           1       8.050  33.093  64.981  0.00  0.00     0.284 HD
HETATM   18  H           1       6.716  32.067  64.885  0.00  0.00     0.284 HD
ENDROOT
BRANCH   2  19
HETATM   19  S           1       3.128  36.704  62.344  0.00  0.00    -0.125 SA
BRANCH  19  20
HETATM   20  C           1       2.515  36.369  60.665  0.00  0.00     0.077 C 
BRANCH  20  21
HETATM   21  C           1       2.520  37.681  59.863  0.00  0.00     0.010 C 
BRANCH  21  22
HETATM   22  C           1       3.679  38.598  60.289  0.00  0.00    -0.004 C 
HETATM   23  C           1       4.887  38.463  59.353  0.00  0.00     0.005 C 
ENDBRANCH  21  22
ENDBRANCH  20  21
ENDBRANCH  19  20
ENDBRANCH   2  19
BRANCH   2  24
HETATM   24  S           1       6.218  36.812  62.664  0.00  0.00    -0.125 SA
BRANCH  24  25
HETATM   25  C           1       5.521  38.224  63.578  0.00  0.00     0.077 C 
BRANCH  25  26
HETATM   26  C           1       6.495  39.409  63.472  0.00  0.00     0.010 C 
BRANCH  26  27
HETATM   27  C           1       7.192  39.449  62.101  0.00  0.00    -0.004 C 
HETATM   28  C           1       7.058  40.823  61.432  0.00  0.00     0.005 C 
ENDBRANCH  26  27
ENDBRANCH  25  26
ENDBRANCH  24  25
ENDBRANCH   2  24
BRANCH   5  29
HETATM   29  C           1       5.091  32.152  63.086  0.00  0.00     0.105 C 
HETATM   30  N           1       4.621  31.205  62.613  0.00  0.00    -0.151 N 
ENDBRANCH   5  29
BRANCH   9  31
HETATM   31  C           1       7.895  32.484  62.329  0.00  0.00    -0.026 A 
HETATM   32  C           1       8.180  31.248  62.785  0.00  0.00     0.009 A 
HETATM   33  C           1       8.959  30.406  62.090  0.00  0.00     0.001 A 
HETATM   34  C           1       9.466  30.785  60.908  0.00  0.00     0.000 A 
HETATM   35  C           1       9.182  32.004  60.430  0.00  0.00     0.001 A 
HETATM   36  C           1       8.402  32.841  61.134  0.00  0.00     0.009 A 
ENDBRANCH   9  31
TORSDOF 10
ENDMDL
MODEL 3
REMARK VINA RESULT:      -5.9      8.068     11.154
REMARK  10 active torsions:
REMARK  status: ('A' for Active; 'I' for Inactive)
REMARK    1  A    between atoms: C_1  and  C_8 
REMARK    2  A    between atoms: C_1  and  S_9 
REMARK    3  A    between atoms: C_3  and  C_24 
REMARK    4  A    between atoms: C_7  and  C_8 
REMARK    5  A    between atoms: S_9  and  C_10 
REMARK    6  A    between atoms: C_10  and  S_11 
REMARK    7  A    between atoms: S_11  and  C_12 
REMARK    8  A    between atoms: C_12  and  C_13 
REMARK    9  A    between atoms: C_13  and  C_14 
REMARK   10  A    between atoms: C_18  and  C_19 
ROOT
HETATM    1  C           1       4.258  32.337  62.040  0.00  0.00     0.092 C 
HETATM    2  C           1       4.356  32.848  59.699  0.00  0.00     0.156 C 
HETATM    3  N           1       4.379  31.828  60.843  0.00  0.00    -0.350 N 
HETATM    4  N           1       4.314  31.666  63.112  0.00  0.00    -0.388 N 
HETATM    5  C           1       4.095  33.831  61.948  0.00  0.00     0.127 C 
HETATM    6  C           1       3.710  34.065  60.458  0.00  0.00     0.136 C 
HETATM    7  C           1       2.221  34.022  60.329  0.00  0.00     0.079 C 
HETATM    8  N           1       1.061  34.046  60.337  0.00  0.00    -0.196 NA
HETATM    9  C           1       5.317  34.753  62.364  0.00  0.00     0.248 C 
HETATM   10  N           1       4.970  36.261  62.227  0.00  0.00    -0.040 N 
HETATM   11  C           1       4.592  36.458  60.838  0.00  0.00     0.105 C 
HETATM   12  C           1       4.864  37.837  60.291  0.00  0.00     0.075 C 
HETATM   13  C           1       4.083  35.485  60.050  0.00  0.00     0.036 C 
HETATM   14  H           1       4.512  30.820  60.685  0.00  0.00     0.163 HD
HETATM   15  H           1       4.282  32.149  64.045  0.00  0.00     0.157 HD
HETATM   16  H           1       4.430  30.623  63.088  0.00  0.00     0.157 HD
HETATM   17  H           1       5.844  36.805  62.409  0.00  0.00     0.284 HD
HETATM   18  H           1       4.239  36.604  62.881  0.00  0.00     0.284 HD
ENDROOT
BRANCH   2  19
HETATM   19  S           1       3.301  32.168  58.378  0.00  0.00    -0.125 SA
BRANCH  19  20
HETATM   20  C           1       3.657  33.253  56.964  0.00  0.00     0.077 C 
BRANCH  20  21
HETATM   21  C           1       4.106  32.388  55.775  0.00  0.00     0.010 C 
BRANCH  21  22
HETATM   22  C           1       3.130  31.227  55.520  0.00  0.00    -0.004 C 
HETATM   23  C           1       3.854  29.974  55.011  0.00  0.00     0.005 C 
ENDBRANCH  21  22
ENDBRANCH  20  21
ENDBRANCH  19  20
ENDBRANCH   2  19
BRANCH   2  24
HETATM   24  S           1       6.075  33.265  59.250  0.00  0.00    -0.125 SA
BRANCH  24  25
HETATM   25  C           1       6.688  31.637  58.714  0.00  0.00     0.077 C 
BRANCH  25  26
HETATM   26  C           1       7.740  31.151  59.724  0.00  0.00     0.010 C 
BRANCH  26  27
HETATM   27  C           1       8.103  32.249  60.738  0.00  0.00    -0.004 C 
HETATM   28  C           1       9.489  32.021  61.357  0.00  0.00     0.005 C 
ENDBRANCH  26  27
ENDBRANCH  25  26
ENDBRANCH  24  25
ENDBRANCH   2  24
BRANCH   5  29
HETATM   29  C           1       3.086  34.471  62.825  0.00  0.00     0.105 C 
HETATM   30  N           1       2.257  34.118  63.554  0.00  0.00    -0.151 N 
ENDBRANCH   5  29
BRANCH   9  31
HETATM   31  C           1       5.858  34.432  63.751  0.00  0.00    -0.026 A 
HETATM   32  C           1       6.973  33.685  63.873  0.00  0.00     0.009 A 
HETATM   33  C           1       7.480  33.373  65.075  0.00  0.00     0.001 A 
HETATM   34  C           1       6.879  33.813  66.190  0.00  0.00     0.000 A 
HETATM   35  C           1       5.778  34.570  66.089  0.00  0.00     0.001 A 
HETATM   36  C           1       5.277  34.876  64.881  0.00  0.00     0.009 A 
ENDBRANCH   9  31
TORSDOF 10
ENDMDL
MODEL 4
REMARK VINA RESULT:      -5.6      9.084     12.616
REMARK  10 active torsions:
REMARK  status: ('A' for Active; 'I' for Inactive)
REMARK    1  A    between atoms: C_1  and  C_8 
REMARK    2  A    between atoms: C_1  and  S_9 
REMARK    3  A    between atoms: C_3  and  C_24 
REMARK    4  A    between atoms: C_7  and  C_8 
REMARK    5  A    between atoms: S_9  and  C_10 
REMARK    6  A    between atoms: C_10  and  S_11 
REMARK    7  A    between atoms: S_11  and  C_12 
REMARK    8  A    between atoms: C_12  and  C_13 
REMARK    9  A    between atoms: C_13  and  C_14 
REMARK   10  A    between atoms: C_18  and  C_19 
ROOT
HETATM    1  C           1       3.166  33.893  61.687  0.00  0.00     0.092 C 
HETATM    2  C           1       5.064  34.029  63.147  0.00  0.00     0.156 C 
HETATM    3  N           1       3.605  34.370  62.820  0.00  0.00    -0.350 N 
HETATM    4  N           1       2.013  34.114  61.215  0.00  0.00    -0.388 N 
HETATM    5  C           1       4.249  33.090  61.014  0.00  0.00     0.127 C 
HETATM    6  C           1       5.268  32.822  62.159  0.00  0.00     0.136 C 
HETATM    7  C           1       4.912  31.536  62.835  0.00  0.00     0.079 C 
HETATM    8  N           1       4.606  30.497  63.248  0.00  0.00    -0.196 NA
HETATM    9  C           1       4.976  33.712  59.749  0.00  0.00     0.248 C 
HETATM   10  N           1       6.048  32.745  59.172  0.00  0.00    -0.040 N 
HETATM   11  C           1       6.978  32.487  60.257  0.00  0.00     0.105 C 
HETATM   12  C           1       8.390  32.177  59.829  0.00  0.00     0.075 C 
HETATM   13  C           1       6.648  32.566  61.566  0.00  0.00     0.036 C 
HETATM   14  H           1       3.022  34.957  63.432  0.00  0.00     0.163 HD
HETATM   15  H           1       1.750  33.759  60.261  0.00  0.00     0.157 HD
HETATM   16  H           1       1.314  34.686  61.750  0.00  0.00     0.157 HD
HETATM   17  H           1       6.559  33.256  58.416  0.00  0.00     0.284 HD
HETATM   18  H           1       5.672  31.866  58.765  0.00  0.00     0.284 HD
ENDROOT
BRANCH   2  19
HETATM   19  S           1       5.137  33.555  64.905  0.00  0.00    -0.125 SA
BRANCH  19  20
HETATM   20  C           1       3.731  34.448  65.632  0.00  0.00     0.077 C 
BRANCH  20  21
HETATM   21  C           1       3.998  34.661  67.131  0.00  0.00     0.010 C 
BRANCH  21  22
HETATM   22  C           1       5.505  34.663  67.441  0.00  0.00    -0.004 C 
HETATM   23  C           1       5.780  34.848  68.939  0.00  0.00     0.005 C 
ENDBRANCH  21  22
ENDBRANCH  20  21
ENDBRANCH  19  20
ENDBRANCH   2  19
BRANCH   2  24
HETATM   24  S           1       6.123  35.420  62.622  0.00  0.00    -0.125 SA
BRANCH  24  25
HETATM   25  C           1       5.377  36.786  63.565  0.00  0.00     0.077 C 
BRANCH  25  26
HETATM   26  C           1       5.242  38.007  62.641  0.00  0.00     0.010 C 
BRANCH  26  27
HETATM   27  C           1       4.516  37.649  61.333  0.00  0.00    -0.004 C 
HETATM   28  C           1       3.179  38.391  61.201  0.00  0.00     0.005 C 
ENDBRANCH  26  27
ENDBRANCH  25  26
ENDBRANCH  24  25
ENDBRANCH   2  24
BRANCH   5  29
HETATM   29  C           1       3.866  31.806  60.383  0.00  0.00     0.105 C 
HETATM   30  N           1       2.890  31.202  60.224  0.00  0.00    -0.151 N 
ENDBRANCH   5  29
BRANCH   9  31
HETATM   31  C           1       4.004  34.170  58.670  0.00  0.00    -0.026 A 
HETATM   32  C           1       3.491  35.415  58.724  0.00  0.00     0.009 A 
HETATM   33  C           1       2.626  35.857  57.799  0.00  0.00     0.001 A 
HETATM   34  C           1       2.259  35.056  56.788  0.00  0.00     0.000 A 
HETATM   35  C           1       2.770  33.819  56.709  0.00  0.00     0.001 A 
HETATM   36  C           1       3.635  33.386  57.641  0.00  0.00     0.009 A 
ENDBRANCH   9  31
TORSDOF 10
ENDMDL
MODEL 5
REMARK VINA RESULT:      -5.6      3.046      8.215
REMARK  10 active torsions:
REMARK  status: ('A' for Active; 'I' for Inactive)
REMARK    1  A    between atoms: C_1  and  C_8 
REMARK    2  A    between atoms: C_1  and  S_9 
REMARK    3  A    between atoms: C_3  and  C_24 
REMARK    4  A    between atoms: C_7  and  C_8 
REMARK    5  A    between atoms: S_9  and  C_10 
REMARK    6  A    between atoms: C_10  and  S_11 
REMARK    7  A    between atoms: S_11  and  C_12 
REMARK    8  A    between atoms: C_12  and  C_13 
REMARK    9  A    between atoms: C_13  and  C_14 
REMARK   10  A    between atoms: C_18  and  C_19 
ROOT
HETATM    1  C           1       2.530  28.433  49.628  0.00  0.00     0.092 C 
HETATM    2  C           1       4.726  28.356  50.587  0.00  0.00     0.156 C 
HETATM    3  N           1       3.294  27.815  50.487  0.00  0.00    -0.350 N 
HETATM    4  N           1       1.304  28.174  49.444  0.00  0.00    -0.388 N 
HETATM    5  C           1       3.309  29.520  48.936  0.00  0.00     0.127 C 
HETATM    6  C           1       4.791  29.151  49.232  0.00  0.00     0.136 C 
HETATM    7  C           1       5.300  28.267  48.138  0.00  0.00     0.079 C 
HETATM    8  N           1       5.628  27.649  47.214  0.00  0.00    -0.196 NA
HETATM    9  C           1       3.016  31.029  49.329  0.00  0.00     0.248 C 
HETATM   10  N           1       3.892  32.015  48.507  0.00  0.00    -0.040 N 
HETATM   11  C           1       5.270  31.644  48.777  0.00  0.00     0.105 C 
HETATM   12  C           1       6.266  32.773  48.687  0.00  0.00     0.075 C 
HETATM   13  C           1       5.658  30.401  49.139  0.00  0.00     0.036 C 
HETATM   14  H           1       2.950  27.043  51.074  0.00  0.00     0.163 HD
HETATM   15  H           1       0.728  28.760  48.788  0.00  0.00     0.157 HD
HETATM   16  H           1       0.835  27.396  49.969  0.00  0.00     0.157 HD
HETATM   17  H           1       3.730  32.975  48.889  0.00  0.00     0.284 HD
HETATM   18  H           1       3.688  32.039  47.489  0.00  0.00     0.284 HD
ENDROOT
BRANCH   2  19
HETATM   19  S           1       5.851  26.923  50.649  0.00  0.00    -0.125 SA
BRANCH  19  20
HETATM   20  C           1       4.787  25.589  51.276  0.00  0.00     0.077 C 
BRANCH  20  21
HETATM   21  C           1       5.522  24.859  52.412  0.00  0.00     0.010 C 
BRANCH  21  22
HETATM   22  C           1       7.048  24.973  52.262  0.00  0.00    -0.004 C 
HETATM   23  C           1       7.764  23.695  52.718  0.00  0.00     0.005 C 
ENDBRANCH  21  22
ENDBRANCH  20  21
ENDBRANCH  19  20
ENDBRANCH   2  19
BRANCH   2  24
HETATM   24  S           1       4.811  29.533  51.979  0.00  0.00    -0.125 SA
BRANCH  24  25
HETATM   25  C           1       5.680  28.525  53.221  0.00  0.00     0.077 C 
BRANCH  25  26
HETATM   26  C           1       4.648  27.984  54.225  0.00  0.00     0.010 C 
BRANCH  26  27
HETATM   27  C           1       5.327  27.259  55.399  0.00  0.00    -0.004 C 
HETATM   28  C           1       6.855  27.245  55.257  0.00  0.00     0.005 C 
ENDBRANCH  26  27
ENDBRANCH  25  26
ENDBRANCH  24  25
ENDBRANCH   2  24
BRANCH   5  29
HETATM   29  C           1       3.123  29.680  47.474  0.00  0.00     0.105 C 
HETATM   30  N           1       2.486  29.180  46.645  0.00  0.00    -0.151 N 
ENDBRANCH   5  29
BRANCH   9  31
HETATM   31  C           1       1.540  31.390  49.238  0.00  0.00    -0.026 A 
HETATM   32  C           1       0.792  31.418  50.359  0.00  0.00     0.009 A 
HETATM   33  C           1      -0.513  31.724  50.324  0.00  0.00     0.001 A 
HETATM   34  C           1      -1.101  32.019  49.156  0.00  0.00     0.000 A 
HETATM   35  C           1      -0.371  32.012  48.032  0.00  0.00     0.001 A 
HETATM   36  C           1       0.936  31.703  48.077  0.00  0.00     0.009 A 
ENDBRANCH   9  31
TORSDOF 10
ENDMDL
MODEL 6
REMARK VINA RESULT:      -5.5      3.259      8.519
REMARK  10 active torsions:
REMARK  status: ('A' for Active; 'I' for Inactive)
REMARK    1  A    between atoms: C_1  and  C_8 
REMARK    2  A    between atoms: C_1  and  S_9 
REMARK    3  A    between atoms: C_3  and  C_24 
REMARK    4  A    between atoms: C_7  and  C_8 
REMARK    5  A    between atoms: S_9  and  C_10 
REMARK    6  A    between atoms: C_10  and  S_11 
REMARK    7  A    between atoms: S_11  and  C_12 
REMARK    8  A    between atoms: C_12  and  C_13 
REMARK    9  A    between atoms: C_13  and  C_14 
REMARK   10  A    between atoms: C_18  and  C_19 
ROOT
HETATM    1  C           1       2.197  28.647  50.155  0.00  0.00     0.092 C 
HETATM    2  C           1       4.569  28.403  49.899  0.00  0.00     0.156 C 
HETATM    3  N           1       3.294  28.244  50.737  0.00  0.00    -0.350 N 
HETATM    4  N           1       1.056  28.654  50.704  0.00  0.00    -0.388 N 
HETATM    5  C           1       2.505  29.145  48.767  0.00  0.00     0.127 C 
HETATM    6  C           1       3.918  28.562  48.477  0.00  0.00     0.136 C 
HETATM    7  C           1       3.767  27.224  47.826  0.00  0.00     0.079 C 
HETATM    8  N           1       3.553  26.234  47.262  0.00  0.00    -0.196 NA
HETATM    9  C           1       2.476  30.708  48.500  0.00  0.00     0.248 C 
HETATM   10  N           1       2.797  31.042  47.017  0.00  0.00    -0.040 N 
HETATM   11  C           1       4.107  30.473  46.755  0.00  0.00     0.105 C 
HETATM   12  C           1       4.916  31.188  45.702  0.00  0.00     0.075 C 
HETATM   13  C           1       4.617  29.415  47.425  0.00  0.00     0.036 C 
HETATM   14  H           1       3.304  27.875  51.698  0.00  0.00     0.163 HD
HETATM   15  H           1       0.226  29.061  50.203  0.00  0.00     0.157 HD
HETATM   16  H           1       0.927  28.287  51.679  0.00  0.00     0.157 HD
HETATM   17  H           1       2.868  32.082  46.935  0.00  0.00     0.284 HD
HETATM   18  H           1       2.088  30.716  46.331  0.00  0.00     0.284 HD
ENDROOT
BRANCH   2  19
HETATM   19  S           1       5.545  26.876  50.090  0.00  0.00    -0.125 SA
BRANCH  19  20
HETATM   20  C           1       5.507  26.582  51.884  0.00  0.00     0.077 C 
BRANCH  20  21
HETATM   21  C           1       5.935  25.131  52.159  0.00  0.00     0.010 C 
BRANCH  21  22
HETATM   22  C           1       7.457  24.956  52.021  0.00  0.00    -0.004 C 
HETATM   23  C           1       7.956  23.702  52.750  0.00  0.00     0.005 C 
ENDBRANCH  21  22
ENDBRANCH  20  21
ENDBRANCH  19  20
ENDBRANCH   2  19
BRANCH   2  24
HETATM   24  S           1       5.384  29.968  50.365  0.00  0.00    -0.125 SA
BRANCH  24  25
HETATM   25  C           1       4.547  30.328  51.941  0.00  0.00     0.077 C 
BRANCH  25  26
HETATM   26  C           1       4.198  31.825  51.982  0.00  0.00     0.010 C 
BRANCH  26  27
HETATM   27  C           1       4.808  32.582  50.790  0.00  0.00    -0.004 C 
HETATM   28  C           1       5.656  33.778  51.245  0.00  0.00     0.005 C 
ENDBRANCH  26  27
ENDBRANCH  25  26
ENDBRANCH  24  25
ENDBRANCH   2  24
BRANCH   5  29
HETATM   29  C           1       1.579  28.763  47.676  0.00  0.00     0.105 C 
HETATM   30  N           1       0.685  28.038  47.543  0.00  0.00    -0.151 N 
ENDBRANCH   5  29
BRANCH   9  31
HETATM   31  C           1       1.176  31.363  48.947  0.00  0.00    -0.026 A 
HETATM   32  C           1       1.110  31.948  50.160  0.00  0.00     0.009 A 
HETATM   33  C           1      -0.017  32.530  50.597  0.00  0.00     0.001 A 
HETATM   34  C           1      -1.108  32.546  49.817  0.00  0.00     0.000 A 
HETATM   35  C           1      -1.057  31.983  48.602  0.00  0.00     0.001 A 
HETATM   36  C           1       0.075  31.401  48.174  0.00  0.00     0.009 A 
ENDBRANCH   9  31
TORSDOF 10
ENDMDL
MODEL 7
REMARK VINA RESULT:      -5.3      9.249     12.016
REMARK  10 active torsions:
REMARK  status: ('A' for Active; 'I' for Inactive)
REMARK    1  A    between atoms: C_1  and  C_8 
REMARK    2  A    between atoms: C_1  and  S_9 
REMARK    3  A    between atoms: C_3  and  C_24 
REMARK    4  A    between atoms: C_7  and  C_8 
REMARK    5  A    between atoms: S_9  and  C_10 
REMARK    6  A    between atoms: C_10  and  S_11 
REMARK    7  A    between atoms: S_11  and  C_12 
REMARK    8  A    between atoms: C_12  and  C_13 
REMARK    9  A    between atoms: C_13  and  C_14 
REMARK   10  A    between atoms: C_18  and  C_19 
ROOT
HETATM    1  C           1       4.615  34.153  60.061  0.00  0.00     0.092 C 
HETATM    2  C           1       3.750  36.367  60.382  0.00  0.00     0.156 C 
HETATM    3  N           1       4.207  35.235  59.454  0.00  0.00    -0.350 N 
HETATM    4  N           1       5.085  33.136  59.472  0.00  0.00    -0.388 N 
HETATM    5  C           1       4.488  34.323  61.552  0.00  0.00     0.127 C 
HETATM    6  C           1       3.528  35.539  61.700  0.00  0.00     0.136 C 
HETATM    7  C           1       2.120  35.040  61.765  0.00  0.00     0.079 C 
HETATM    8  N           1       1.071  34.560  61.881  0.00  0.00    -0.196 NA
HETATM    9  C           1       5.808  34.542  62.404  0.00  0.00     0.248 C 
HETATM   10  N           1       5.496  34.680  63.920  0.00  0.00    -0.040 N 
HETATM   11  C           1       4.583  35.803  64.039  0.00  0.00     0.105 C 
HETATM   12  C           1       4.658  36.552  65.345  0.00  0.00     0.075 C 
HETATM   13  C           1       3.754  36.208  63.050  0.00  0.00     0.036 C 
HETATM   14  H           1       4.221  35.329  58.429  0.00  0.00     0.163 HD
HETATM   15  H           1       5.463  32.327  60.027  0.00  0.00     0.157 HD
HETATM   16  H           1       5.138  33.097  58.425  0.00  0.00     0.157 HD
HETATM   17  H           1       6.388  34.929  64.405  0.00  0.00     0.284 HD
HETATM   18  H           1       5.117  33.822  64.369  0.00  0.00     0.284 HD
ENDROOT
BRANCH   2  19
HETATM   19  S           1       2.215  37.061  59.687  0.00  0.00    -0.125 SA
BRANCH  19  20
HETATM   20  C           1       2.338  36.650  57.920  0.00  0.00     0.077 C 
BRANCH  20  21
HETATM   21  C           1       1.212  35.668  57.559  0.00  0.00     0.010 C 
BRANCH  21  22
HETATM   22  C           1       1.497  34.945  56.231  0.00  0.00    -0.004 C 
HETATM   23  C           1       2.768  34.088  56.309  0.00  0.00     0.005 C 
ENDBRANCH  21  22
ENDBRANCH  20  21
ENDBRANCH  19  20
ENDBRANCH   2  19
BRANCH   2  24
HETATM   24  S           1       5.142  37.522  60.626  0.00  0.00    -0.125 SA
BRANCH  24  25
HETATM   25  C           1       4.254  39.110  60.702  0.00  0.00     0.077 C 
BRANCH  25  26
HETATM   26  C           1       4.538  39.768  62.062  0.00  0.00     0.010 C 
BRANCH  26  27
HETATM   27  C           1       6.048  39.886  62.330  0.00  0.00    -0.004 C 
HETATM   28  C           1       6.433  39.310  63.699  0.00  0.00     0.005 C 
ENDBRANCH  26  27
ENDBRANCH  25  26
ENDBRANCH  24  25
ENDBRANCH   2  24
BRANCH   5  29
HETATM   29  C           1       3.962  33.180  62.335  0.00  0.00     0.105 C 
HETATM   30  N           1       3.710  32.067  62.137  0.00  0.00    -0.151 N 
ENDBRANCH   5  29
BRANCH   9  31
HETATM   31  C           1       6.864  33.475  62.149  0.00  0.00    -0.026 A 
HETATM   32  C           1       7.180  32.607  63.130  0.00  0.00     0.009 A 
HETATM   33  C           1       8.109  31.656  62.952  0.00  0.00     0.001 A 
HETATM   34  C           1       8.741  31.549  61.773  0.00  0.00     0.000 A 
HETATM   35  C           1       8.429  32.394  60.781  0.00  0.00     0.001 A 
HETATM   36  C           1       7.498  33.344  60.970  0.00  0.00     0.009 A 
ENDBRANCH   9  31
TORSDOF 10
ENDMDL
MODEL 8
REMARK VINA RESULT:      -5.2      3.712      5.915
REMARK  10 active torsions:
REMARK  status: ('A' for Active; 'I' for Inactive)
REMARK    1  A    between atoms: C_1  and  C_8 
REMARK    2  A    between atoms: C_1  and  S_9 
REMARK    3  A    between atoms: C_3  and  C_24 
REMARK    4  A    between atoms: C_7  and  C_8 
REMARK    5  A    between atoms: S_9  and  C_10 
REMARK    6  A    between atoms: C_10  and  S_11 
REMARK    7  A    between atoms: S_11  and  C_12 
REMARK    8  A    between atoms: C_12  and  C_13 
REMARK    9  A    between atoms: C_13  and  C_14 
REMARK   10  A    between atoms: C_18  and  C_19 
ROOT
HETATM    1  C           1       2.063  29.648  50.436  0.00  0.00     0.092 C 
HETATM    2  C           1       1.787  31.175  48.607  0.00  0.00     0.156 C 
HETATM    3  N           1       1.271  30.012  49.464  0.00  0.00    -0.350 N 
HETATM    4  N           1       1.842  28.673  51.213  0.00  0.00    -0.388 N 
HETATM    5  C           1       3.288  30.525  50.456  0.00  0.00     0.127 C 
HETATM    6  C           1       2.873  31.748  49.588  0.00  0.00     0.136 C 
HETATM    7  C           1       2.269  32.790  50.475  0.00  0.00     0.079 C 
HETATM    8  N           1       1.884  33.566  51.247  0.00  0.00    -0.196 NA
HETATM    9  C           1       4.662  29.916  49.950  0.00  0.00     0.248 C 
HETATM   10  N           1       5.820  30.949  50.057  0.00  0.00    -0.040 N 
HETATM   11  C           1       5.409  32.092  49.261  0.00  0.00     0.105 C 
HETATM   12  C           1       6.537  32.886  48.653  0.00  0.00     0.075 C 
HETATM   13  C           1       4.119  32.416  49.018  0.00  0.00     0.036 C 
HETATM   14  H           1       0.382  29.532  49.270  0.00  0.00     0.163 HD
HETATM   15  H           1       2.558  28.389  51.928  0.00  0.00     0.157 HD
HETATM   16  H           1       0.960  28.110  51.132  0.00  0.00     0.157 HD
HETATM   17  H           1       6.664  30.524  49.610  0.00  0.00     0.284 HD
HETATM   18  H           1       6.075  31.221  51.027  0.00  0.00     0.284 HD
ENDROOT
BRANCH   2  19
HETATM   19  S           1       0.389  32.308  48.320  0.00  0.00    -0.125 SA
BRANCH  19  20
HETATM   20  C           1      -0.940  31.588  49.331  0.00  0.00     0.077 C 
BRANCH  20  21
HETATM   21  C           1      -1.693  32.724  50.043  0.00  0.00     0.010 C 
BRANCH  21  22
HETATM   22  C           1      -1.878  32.427  51.541  0.00  0.00    -0.004 C 
HETATM   23  C           1      -3.004  31.415  51.788  0.00  0.00     0.005 C 
ENDBRANCH  21  22
ENDBRANCH  20  21
ENDBRANCH  19  20
ENDBRANCH   2  19
BRANCH   2  24
HETATM   24  S           1       2.613  30.492  47.130  0.00  0.00    -0.125 SA
BRANCH  24  25
HETATM   25  C           1       1.735  28.907  46.954  0.00  0.00     0.077 C 
BRANCH  25  26
HETATM   26  C           1       2.737  27.762  47.178  0.00  0.00     0.010 C 
BRANCH  26  27
HETATM   27  C           1       2.041  26.494  47.700  0.00  0.00    -0.004 C 
HETATM   28  C           1       2.966  25.271  47.647  0.00  0.00     0.005 C 
ENDBRANCH  26  27
ENDBRANCH  25  26
ENDBRANCH  24  25
ENDBRANCH   2  24
BRANCH   5  29
HETATM   29  C           1       3.778  30.996  51.772  0.00  0.00     0.105 C 
HETATM   30  N           1       3.425  30.937  52.874  0.00  0.00    -0.151 N 
ENDBRANCH   5  29
BRANCH   9  31
HETATM   31  C           1       5.022  28.607  50.638  0.00  0.00    -0.026 A 
HETATM   32  C           1       5.594  28.632  51.858  0.00  0.00     0.009 A 
HETATM   33  C           1       5.933  27.503  52.497  0.00  0.00     0.001 A 
HETATM   34  C           1       5.698  26.313  51.925  0.00  0.00     0.000 A 
HETATM   35  C           1       5.117  26.267  50.718  0.00  0.00     0.001 A 
HETATM   36  C           1       4.781  27.403  50.086  0.00  0.00     0.009 A 
ENDBRANCH   9  31
TORSDOF 10
ENDMDL
MODEL 9
REMARK VINA RESULT:      -5.1      3.461      5.673
REMARK  10 active torsions:
REMARK  status: ('A' for Active; 'I' for Inactive)
REMARK    1  A    between atoms: C_1  and  C_8 
REMARK    2  A    between atoms: C_1  and  S_9 
REMARK    3  A    between atoms: C_3  and  C_24 
REMARK    4  A    between atoms: C_7  and  C_8 
REMARK    5  A    between atoms: S_9  and  C_10 
REMARK    6  A    between atoms: C_10  and  S_11 
REMARK    7  A    between atoms: S_11  and  C_12 
REMARK    8  A    between atoms: C_12  and  C_13 
REMARK    9  A    between atoms: C_13  and  C_14 
REMARK   10  A    between atoms: C_18  and  C_19 
ROOT
HETATM    1  C           1       2.178  29.461  50.881  0.00  0.00     0.092 C 
HETATM    2  C           1       1.788  30.900  49.002  0.00  0.00     0.156 C 
HETATM    3  N           1       1.339  29.762  49.927  0.00  0.00    -0.350 N 
HETATM    4  N           1       2.015  28.515  51.706  0.00  0.00    -0.388 N 
HETATM    5  C           1       3.377  30.370  50.815  0.00  0.00     0.127 C 
HETATM    6  C           1       2.895  31.544  49.914  0.00  0.00     0.136 C 
HETATM    7  C           1       2.297  32.606  50.781  0.00  0.00     0.079 C 
HETATM    8  N           1       1.921  33.404  51.533  0.00  0.00    -0.196 NA
HETATM    9  C           1       4.748  29.777  50.280  0.00  0.00     0.248 C 
HETATM   10  N           1       5.879  30.843  50.297  0.00  0.00    -0.040 N 
HETATM   11  C           1       5.405  31.940  49.471  0.00  0.00     0.105 C 
HETATM   12  C           1       6.486  32.737  48.785  0.00  0.00     0.075 C 
HETATM   13  C           1       4.098  32.219  49.266  0.00  0.00     0.036 C 
HETATM   14  H           1       0.456  29.251  49.790  0.00  0.00     0.163 HD
HETATM   15  H           1       2.767  28.281  52.403  0.00  0.00     0.157 HD
HETATM   16  H           1       1.147  27.926  51.684  0.00  0.00     0.157 HD
HETATM   17  H           1       6.717  30.422  49.834  0.00  0.00     0.284 HD
HETATM   18  H           1       6.164  31.164  51.243  0.00  0.00     0.284 HD
ENDROOT
BRANCH   2  19
HETATM   19  S           1       0.348  31.982  48.725  0.00  0.00    -0.125 SA
BRANCH  19  20
HETATM   20  C           1       0.726  32.774  47.133  0.00  0.00     0.077 C 
BRANCH  20  21
HETATM   21  C           1       1.514  34.067  47.396  0.00  0.00     0.010 C 
BRANCH  21  22
HETATM   22  C           1       2.323  34.497  46.160  0.00  0.00    -0.004 C 
HETATM   23  C           1       3.451  33.506  45.842  0.00  0.00     0.005 C 
ENDBRANCH  21  22
ENDBRANCH  20  21
ENDBRANCH  19  20
ENDBRANCH   2  19
BRANCH   2  24
HETATM   24  S           1       2.574  30.177  47.522  0.00  0.00    -0.125 SA
BRANCH  24  25
HETATM   25  C           1       1.948  28.470  47.608  0.00  0.00     0.077 C 
BRANCH  25  26
HETATM   26  C           1       3.108  27.504  47.315  0.00  0.00     0.010 C 
BRANCH  26  27
HETATM   27  C           1       2.600  26.087  47.001  0.00  0.00    -0.004 C 
HETATM   28  C           1       3.112  25.057  48.018  0.00  0.00     0.005 C 
ENDBRANCH  26  27
ENDBRANCH  25  26
ENDBRANCH  24  25
ENDBRANCH   2  24
BRANCH   5  29
HETATM   29  C           1       3.906  30.910  52.089  0.00  0.00     0.105 C 
HETATM   30  N           1       3.595  30.893  53.205  0.00  0.00    -0.151 N 
ENDBRANCH   5  29
BRANCH   9  31
HETATM   31  C           1       5.171  28.508  51.007  0.00  0.00    -0.026 A 
HETATM   32  C           1       4.995  27.311  50.412  0.00  0.00     0.009 A 
HETATM   33  C           1       5.347  26.168  51.019  0.00  0.00     0.001 A 
HETATM   34  C           1       5.893  26.201  52.243  0.00  0.00     0.000 A 
HETATM   35  C           1       6.089  27.382  52.845  0.00  0.00     0.001 A 
HETATM   36  C           1       5.733  28.521  52.229  0.00  0.00     0.009 A 
ENDBRANCH   9  31
TORSDOF 10
ENDMDL
MODEL 10
REMARK VINA RESULT:      -5.1      9.442     12.690
REMARK  10 active torsions:
REMARK  status: ('A' for Active; 'I' for Inactive)
REMARK    1  A    between atoms: C_1  and  C_8 
REMARK    2  A    between atoms: C_1  and  S_9 
REMARK    3  A    between atoms: C_3  and  C_24 
REMARK    4  A    between atoms: C_7  and  C_8 
REMARK    5  A    between atoms: S_9  and  C_10 
REMARK    6  A    between atoms: C_10  and  S_11 
REMARK    7  A    between atoms: S_11  and  C_12 
REMARK    8  A    between atoms: C_12  and  C_13 
REMARK    9  A    between atoms: C_13  and  C_14 
REMARK   10  A    between atoms: C_18  and  C_19 
ROOT
HETATM    1  C           1       5.025  35.054  61.373  0.00  0.00     0.092 C 
HETATM    2  C           1       3.773  35.866  59.496  0.00  0.00     0.156 C 
HETATM    3  N           1       5.093  35.747  60.269  0.00  0.00    -0.350 N 
HETATM    4  N           1       5.989  34.892  62.178  0.00  0.00    -0.388 N 
HETATM    5  C           1       3.627  34.527  61.564  0.00  0.00     0.127 C 
HETATM    6  C           1       2.987  34.674  60.153  0.00  0.00     0.136 C 
HETATM    7  C           1       3.219  33.414  59.381  0.00  0.00     0.079 C 
HETATM    8  N           1       3.382  32.378  58.888  0.00  0.00    -0.196 NA
HETATM    9  C           1       2.709  35.198  62.670  0.00  0.00     0.248 C 
HETATM   10  N           1       1.312  34.522  62.744  0.00  0.00    -0.040 N 
HETATM   11  C           1       0.738  34.647  61.415  0.00  0.00     0.105 C 
HETATM   12  C           1      -0.769  34.708  61.374  0.00  0.00     0.075 C 
HETATM   13  C           1       1.471  34.760  60.285  0.00  0.00     0.036 C 
HETATM   14  H           1       5.961  36.204  59.959  0.00  0.00     0.163 HD
HETATM   15  H           1       5.845  34.383  63.086  0.00  0.00     0.157 HD
HETATM   16  H           1       6.936  35.293  61.969  0.00  0.00     0.157 HD
HETATM   17  H           1       0.726  35.077  63.409  0.00  0.00     0.284 HD
HETATM   18  H           1       1.319  33.536  63.072  0.00  0.00     0.284 HD
ENDROOT
BRANCH   2  19
HETATM   19  S           1       4.147  35.611  57.731  0.00  0.00    -0.125 SA
BRANCH  19  20
HETATM   20  C           1       2.654  36.231  56.898  0.00  0.00     0.077 C 
BRANCH  20  21
HETATM   21  C           1       1.785  35.034  56.480  0.00  0.00     0.010 C 
BRANCH  21  22
HETATM   22  C           1       2.407  34.271  55.298  0.00  0.00    -0.004 C 
HETATM   23  C           1       1.947  32.808  55.257  0.00  0.00     0.005 C 
ENDBRANCH  21  22
ENDBRANCH  20  21
ENDBRANCH  19  20
ENDBRANCH   2  19
BRANCH   2  24
HETATM   24  S           1       2.968  37.440  59.951  0.00  0.00    -0.125 SA
BRANCH  24  25
HETATM   25  C           1       4.421  38.452  60.375  0.00  0.00     0.077 C 
BRANCH  25  26
HETATM   26  C           1       4.329  38.848  61.858  0.00  0.00     0.010 C 
BRANCH  26  27
HETATM   27  C           1       5.722  39.069  62.472  0.00  0.00    -0.004 C 
HETATM   28  C           1       6.843  38.628  61.521  0.00  0.00     0.005 C 
ENDBRANCH  26  27
ENDBRANCH  25  26
ENDBRANCH  24  25
ENDBRANCH   2  24
BRANCH   5  29
HETATM   29  C           1       3.473  33.130  62.033  0.00  0.00     0.105 C 
HETATM   30  N           1       4.167  32.221  62.219  0.00  0.00    -0.151 N 
ENDBRANCH   5  29
BRANCH   9  31
HETATM   31  C           1       3.372  35.252  64.040  0.00  0.00    -0.026 A 
HETATM   32  C           1       3.971  36.390  64.443  0.00  0.00     0.009 A 
HETATM   33  C           1       4.574  36.479  65.638  0.00  0.00     0.001 A 
HETATM   34  C           1       4.582  35.423  66.465  0.00  0.00     0.000 A 
HETATM   35  C           1       3.978  34.288  66.087  0.00  0.00     0.001 A 
HETATM   36  C           1       3.378  34.208  64.888  0.00  0.00     0.009 A 
ENDBRANCH   9  31
TORSDOF 10
ENDMDL
