MODEL 1
REMARK VINA RESULT:      -9.5      0.000      0.000
REMARK  4 active torsions:
REMARK  status: ('A' for Active; 'I' for Inactive)
REMARK    1  A    between atoms: C_6  and  C_7 
REMARK    2  A    between atoms: C_7  and  N_8 
REMARK    3  A    between atoms: C_12  and  C_13 
REMARK    4  A    between atoms: C_15  and  C_16 
ROOT
HETATM    1  N   UNL     1       7.573  26.947  56.888  1.00  0.00    -0.067 N 
HETATM    2  H   UNL     1       7.442  26.706  55.900  1.00  0.00     0.280 HD
HETATM    3  C   UNL     1       6.308  27.634  57.356  1.00  0.00     0.236 C 
HETATM    4  C   UNL     1       6.094  28.923  56.571  1.00  0.00     0.040 C 
HETATM    5  C   UNL     1       7.296  29.871  56.626  1.00  0.00     0.058 C 
HETATM    6  C   UNL     1       8.575  29.128  56.230  1.00  0.00     0.040 C 
HETATM    7  C   UNL     1       8.785  27.836  57.010  1.00  0.00     0.236 C 
ENDROOT
BRANCH   1   8
HETATM    8  C   UNL     1       7.809  25.633  57.614  1.00  0.00     0.273 C 
BRANCH   8   9
HETATM    9  C   UNL     1       7.850  24.445  56.691  1.00  0.00    -0.032 A 
HETATM   10  C   UNL     1       8.341  23.214  57.152  1.00  0.00     0.017 A 
HETATM   11  C   UNL     1       8.307  22.126  56.294  1.00  0.00    -0.035 A 
HETATM   12  C   UNL     1       7.793  22.214  54.997  1.00  0.00     0.016 A 
HETATM   13  C   UNL     1       8.728  20.718  56.563  1.00  0.00     0.055 C 
HETATM   14  N   UNL     1       7.796  20.974  54.341  1.00  0.00    -0.287 NA
HETATM   15  C   UNL     1       7.313  23.425  54.532  1.00  0.00     0.025 A 
HETATM   16  C   UNL     1       7.927  20.948  52.895  1.00  0.00     0.116 C 
HETATM   17  C   UNL     1       8.729  20.150  55.133  1.00  0.00     0.100 C 
HETATM   18  C   UNL     1       7.350  24.543  55.374  1.00  0.00     0.011 A 
ENDBRANCH   8   9
ENDBRANCH   1   8
BRANCH   5  19
HETATM   19  C   UNL     1       7.426  30.486  57.987  1.00  0.00     0.108 A 
HETATM   20  N   UNL     1       8.543  30.597  58.674  1.00  0.00    -0.229 NA
HETATM   21  C   UNL     1       8.205  31.200  59.883  1.00  0.00     0.157 A 
HETATM   22  C   UNL     1       6.845  31.451  59.891  1.00  0.00     0.126 A 
HETATM   23  N   UNL     1       6.366  31.000  58.692  1.00  0.00    -0.352 N 
HETATM   24  H   UNL     1       5.401  31.034  58.386  1.00  0.00     0.166 HD
BRANCH  21  25
HETATM   25  C   UNL     1       9.216  31.489  60.960  1.00  0.00     0.436 C 
HETATM   26  F   UNL     1       8.686  32.220  61.977  1.00  0.00    -0.165 F 
HETATM   27  F   UNL     1       9.708  30.348  61.507  1.00  0.00    -0.165 F 
HETATM   28  F   UNL     1      10.275  32.191  60.480  1.00  0.00    -0.165 F 
ENDBRANCH  21  25
ENDBRANCH   5  19
TORSDOF 4
ENDMDL
MODEL 2
REMARK VINA RESULT:      -9.5      0.822      1.819
REMARK  4 active torsions:
REMARK  status: ('A' for Active; 'I' for Inactive)
REMARK    1  A    between atoms: C_6  and  C_7 
REMARK    2  A    between atoms: C_7  and  N_8 
REMARK    3  A    between atoms: C_12  and  C_13 
REMARK    4  A    between atoms: C_15  and  C_16 
ROOT
HETATM    1  N   UNL     1       7.239  27.224  56.837  1.00  0.00    -0.067 N 
HETATM    2  H   UNL     1       7.323  27.093  55.823  1.00  0.00     0.280 HD
HETATM    3  C   UNL     1       6.209  28.309  57.067  1.00  0.00     0.236 C 
HETATM    4  C   UNL     1       6.687  29.620  56.452  1.00  0.00     0.040 C 
HETATM    5  C   UNL     1       8.072  30.051  56.946  1.00  0.00     0.058 C 
HETATM    6  C   UNL     1       9.074  28.904  56.779  1.00  0.00     0.040 C 
HETATM    7  C   UNL     1       8.593  27.593  57.389  1.00  0.00     0.236 C 
ENDROOT
BRANCH   1   8
HETATM    8  C   UNL     1       6.789  25.885  57.397  1.00  0.00     0.273 C 
BRANCH   8   9
HETATM    9  C   UNL     1       7.260  24.711  56.581  1.00  0.00    -0.032 A 
HETATM   10  C   UNL     1       7.001  24.664  55.203  1.00  0.00     0.017 A 
HETATM   11  C   UNL     1       7.503  23.598  54.473  1.00  0.00    -0.035 A 
HETATM   12  C   UNL     1       8.263  22.582  55.061  1.00  0.00     0.016 A 
HETATM   13  C   UNL     1       7.397  23.348  53.004  1.00  0.00     0.055 C 
HETATM   14  N   UNL     1       8.722  21.651  54.117  1.00  0.00    -0.287 NA
HETATM   15  C   UNL     1       8.518  22.618  56.420  1.00  0.00     0.025 A 
HETATM   16  C   UNL     1       8.939  20.278  54.539  1.00  0.00     0.116 C 
HETATM   17  C   UNL     1       7.868  21.884  52.937  1.00  0.00     0.100 C 
HETATM   18  C   UNL     1       8.009  23.677  57.183  1.00  0.00     0.011 A 
ENDBRANCH   8   9
ENDBRANCH   1   8
BRANCH   5  19
HETATM   19  C   UNL     1       8.008  30.511  58.370  1.00  0.00     0.108 A 
HETATM   20  N   UNL     1       8.999  30.467  59.236  1.00  0.00    -0.229 NA
HETATM   21  C   UNL     1       8.499  30.966  60.435  1.00  0.00     0.157 A 
HETATM   22  C   UNL     1       7.174  31.318  60.254  1.00  0.00     0.126 A 
HETATM   23  N   UNL     1       6.877  31.029  58.950  1.00  0.00    -0.352 N 
HETATM   24  H   UNL     1       5.979  31.166  58.500  1.00  0.00     0.166 HD
BRANCH  21  25
HETATM   25  C   UNL     1       9.331  31.067  61.686  1.00  0.00     0.436 C 
HETATM   26  F   UNL     1       9.931  29.887  61.997  1.00  0.00    -0.165 F 
HETATM   27  F   UNL     1      10.318  31.991  61.560  1.00  0.00    -0.165 F 
HETATM   28  F   UNL     1       8.583  31.425  62.761  1.00  0.00    -0.165 F 
ENDBRANCH  21  25
ENDBRANCH   5  19
TORSDOF 4
ENDMDL
MODEL 3
REMARK VINA RESULT:      -8.7      4.485      9.229
REMARK  4 active torsions:
REMARK  status: ('A' for Active; 'I' for Inactive)
REMARK    1  A    between atoms: C_6  and  C_7 
REMARK    2  A    between atoms: C_7  and  N_8 
REMARK    3  A    between atoms: C_12  and  C_13 
REMARK    4  A    between atoms: C_15  and  C_16 
ROOT
HETATM    1  N   UNL     1       6.969  28.636  56.413  1.00  0.00    -0.067 N 
HETATM    2  H   UNL     1       6.278  29.393  56.366  1.00  0.00     0.280 HD
HETATM    3  C   UNL     1       7.255  28.198  54.993  1.00  0.00     0.236 C 
HETATM    4  C   UNL     1       5.985  27.650  54.351  1.00  0.00     0.040 C 
HETATM    5  C   UNL     1       5.335  26.524  55.162  1.00  0.00     0.058 C 
HETATM    6  C   UNL     1       5.135  26.966  56.615  1.00  0.00     0.040 C 
HETATM    7  C   UNL     1       6.403  27.520  57.254  1.00  0.00     0.236 C 
ENDROOT
BRANCH   1   8
HETATM    8  C   UNL     1       8.197  29.230  57.083  1.00  0.00     0.273 C 
BRANCH   8   9
HETATM    9  C   UNL     1       7.863  30.149  58.227  1.00  0.00    -0.032 A 
HETATM   10  C   UNL     1       8.717  30.227  59.338  1.00  0.00     0.017 A 
HETATM   11  C   UNL     1       8.410  31.129  60.345  1.00  0.00    -0.035 A 
HETATM   12  C   UNL     1       7.290  31.964  60.284  1.00  0.00     0.016 A 
HETATM   13  C   UNL     1       9.176  31.422  61.593  1.00  0.00     0.055 C 
HETATM   14  N   UNL     1       7.223  32.839  61.377  1.00  0.00    -0.287 NA
HETATM   15  C   UNL     1       6.440  31.889  59.195  1.00  0.00     0.025 A 
HETATM   16  C   UNL     1       5.919  33.289  61.834  1.00  0.00     0.116 C 
HETATM   17  C   UNL     1       8.134  32.243  62.373  1.00  0.00     0.100 C 
HETATM   18  C   UNL     1       6.720  30.975  58.172  1.00  0.00     0.011 A 
ENDBRANCH   8   9
ENDBRANCH   1   8
BRANCH   5  19
HETATM   19  C   UNL     1       6.153  25.272  55.085  1.00  0.00     0.108 A 
HETATM   20  N   UNL     1       6.635  24.737  53.984  1.00  0.00    -0.229 NA
HETATM   21  C   UNL     1       7.306  23.578  54.367  1.00  0.00     0.157 A 
HETATM   22  C   UNL     1       7.213  23.443  55.741  1.00  0.00     0.126 A 
HETATM   23  N   UNL     1       6.488  24.516  56.182  1.00  0.00    -0.352 N 
HETATM   24  H   UNL     1       6.238  24.709  57.144  1.00  0.00     0.166 HD
BRANCH  21  25
HETATM   25  C   UNL     1       7.989  22.668  53.381  1.00  0.00     0.436 C 
HETATM   26  F   UNL     1       9.274  22.401  53.738  1.00  0.00    -0.165 F 
HETATM   27  F   UNL     1       7.352  21.475  53.274  1.00  0.00    -0.165 F 
HETATM   28  F   UNL     1       8.030  23.213  52.138  1.00  0.00    -0.165 F 
ENDBRANCH  21  25
ENDBRANCH   5  19
TORSDOF 4
ENDMDL
MODEL 4
REMARK VINA RESULT:      -8.7      4.514      9.278
REMARK  4 active torsions:
REMARK  status: ('A' for Active; 'I' for Inactive)
REMARK    1  A    between atoms: C_6  and  C_7 
REMARK    2  A    between atoms: C_7  and  N_8 
REMARK    3  A    between atoms: C_12  and  C_13 
REMARK    4  A    between atoms: C_15  and  C_16 
ROOT
HETATM    1  N   UNL     1       7.018  27.799  57.451  1.00  0.00    -0.067 N 
HETATM    2  H   UNL     1       6.945  27.777  58.474  1.00  0.00     0.280 HD
HETATM    3  C   UNL     1       5.660  27.428  56.894  1.00  0.00     0.236 C 
HETATM    4  C   UNL     1       5.292  26.011  57.320  1.00  0.00     0.040 C 
HETATM    5  C   UNL     1       6.352  24.972  56.944  1.00  0.00     0.058 C 
HETATM    6  C   UNL     1       7.730  25.414  57.446  1.00  0.00     0.040 C 
HETATM    7  C   UNL     1       8.095  26.833  57.026  1.00  0.00     0.236 C 
ENDROOT
BRANCH   1   8
HETATM    8  C   UNL     1       7.413  29.221  57.088  1.00  0.00     0.273 C 
BRANCH   8   9
HETATM    9  C   UNL     1       7.397  30.160  58.263  1.00  0.00    -0.032 A 
HETATM   10  C   UNL     1       8.347  30.022  59.287  1.00  0.00     0.017 A 
HETATM   11  C   UNL     1       8.341  30.942  60.323  1.00  0.00    -0.035 A 
HETATM   12  C   UNL     1       7.432  32.003  60.374  1.00  0.00     0.016 A 
HETATM   13  C   UNL     1       9.266  31.029  61.492  1.00  0.00     0.055 C 
HETATM   14  N   UNL     1       7.661  32.844  61.473  1.00  0.00    -0.287 NA
HETATM   15  C   UNL     1       6.488  32.144  59.372  1.00  0.00     0.025 A 
HETATM   16  C   UNL     1       6.535  33.555  62.055  1.00  0.00     0.116 C 
HETATM   17  C   UNL     1       8.507  32.038  62.373  1.00  0.00     0.100 C 
HETATM   18  C   UNL     1       6.463  31.218  58.322  1.00  0.00     0.011 A 
ENDBRANCH   8   9
ENDBRANCH   1   8
BRANCH   5  19
HETATM   19  C   UNL     1       6.365  24.738  55.464  1.00  0.00     0.108 A 
HETATM   20  N   UNL     1       5.598  25.345  54.584  1.00  0.00    -0.229 NA
HETATM   21  C   UNL     1       5.922  24.811  53.340  1.00  0.00     0.157 A 
HETATM   22  C   UNL     1       6.918  23.866  53.507  1.00  0.00     0.126 A 
HETATM   23  N   UNL     1       7.190  23.830  54.847  1.00  0.00    -0.352 N 
HETATM   24  H   UNL     1       7.873  23.233  55.299  1.00  0.00     0.166 HD
BRANCH  21  25
HETATM   25  C   UNL     1       5.245  25.242  52.067  1.00  0.00     0.436 C 
HETATM   26  F   UNL     1       6.134  25.452  51.060  1.00  0.00    -0.165 F 
HETATM   27  F   UNL     1       4.362  24.309  51.626  1.00  0.00    -0.165 F 
HETATM   28  F   UNL     1       4.553  26.399  52.231  1.00  0.00    -0.165 F 
ENDBRANCH  21  25
ENDBRANCH   5  19
TORSDOF 4
ENDMDL
MODEL 5
REMARK VINA RESULT:      -8.5      4.105      8.959
REMARK  4 active torsions:
REMARK  status: ('A' for Active; 'I' for Inactive)
REMARK    1  A    between atoms: C_6  and  C_7 
REMARK    2  A    between atoms: C_7  and  N_8 
REMARK    3  A    between atoms: C_12  and  C_13 
REMARK    4  A    between atoms: C_15  and  C_16 
ROOT
HETATM    1  N   UNL     1       7.253  27.172  54.602  1.00  0.00    -0.067 N 
HETATM    2  H   UNL     1       6.415  27.749  54.469  1.00  0.00     0.280 HD
HETATM    3  C   UNL     1       7.466  26.386  53.326  1.00  0.00     0.236 C 
HETATM    4  C   UNL     1       6.279  25.461  53.080  1.00  0.00     0.040 C 
HETATM    5  C   UNL     1       5.978  24.535  54.263  1.00  0.00     0.058 C 
HETATM    6  C   UNL     1       5.852  25.349  55.554  1.00  0.00     0.040 C 
HETATM    7  C   UNL     1       7.036  26.278  55.796  1.00  0.00     0.236 C 
ENDROOT
BRANCH   1   8
HETATM    8  C   UNL     1       8.392  28.141  54.869  1.00  0.00     0.273 C 
BRANCH   8   9
HETATM    9  C   UNL     1       8.153  29.024  56.065  1.00  0.00    -0.032 A 
HETATM   10  C   UNL     1       6.907  29.643  56.243  1.00  0.00     0.017 A 
HETATM   11  C   UNL     1       6.702  30.399  57.387  1.00  0.00    -0.035 A 
HETATM   12  C   UNL     1       7.688  30.554  58.366  1.00  0.00     0.016 A 
HETATM   13  C   UNL     1       5.464  31.114  57.817  1.00  0.00     0.055 C 
HETATM   14  N   UNL     1       7.233  31.299  59.463  1.00  0.00    -0.287 NA
HETATM   15  C   UNL     1       8.922  29.951  58.195  1.00  0.00     0.025 A 
HETATM   16  C   UNL     1       8.191  32.087  60.219  1.00  0.00     0.116 C 
HETATM   17  C   UNL     1       6.025  31.980  58.959  1.00  0.00     0.100 C 
HETATM   18  C   UNL     1       9.159  29.195  57.041  1.00  0.00     0.011 A 
ENDBRANCH   8   9
ENDBRANCH   1   8
BRANCH   5  19
HETATM   19  C   UNL     1       7.032  23.477  54.391  1.00  0.00     0.108 A 
HETATM   20  N   UNL     1       7.181  22.663  55.414  1.00  0.00    -0.229 NA
HETATM   21  C   UNL     1       8.289  21.868  55.129  1.00  0.00     0.157 A 
HETATM   22  C   UNL     1       8.793  22.233  53.893  1.00  0.00     0.126 A 
HETATM   23  N   UNL     1       7.993  23.244  53.438  1.00  0.00    -0.352 N 
HETATM   24  H   UNL     1       8.099  23.736  52.558  1.00  0.00     0.166 HD
BRANCH  21  25
HETATM   25  C   UNL     1       8.796  20.810  56.071  1.00  0.00     0.436 C 
HETATM   26  F   UNL     1      10.148  20.676  56.011  1.00  0.00    -0.165 F 
HETATM   27  F   UNL     1       8.484  21.094  57.361  1.00  0.00    -0.165 F 
HETATM   28  F   UNL     1       8.266  19.591  55.792  1.00  0.00    -0.165 F 
ENDBRANCH  21  25
ENDBRANCH   5  19
TORSDOF 4
ENDMDL
MODEL 6
REMARK VINA RESULT:      -8.5      2.165      3.262
REMARK  4 active torsions:
REMARK  status: ('A' for Active; 'I' for Inactive)
REMARK    1  A    between atoms: C_6  and  C_7 
REMARK    2  A    between atoms: C_7  and  N_8 
REMARK    3  A    between atoms: C_12  and  C_13 
REMARK    4  A    between atoms: C_15  and  C_16 
ROOT
HETATM    1  N   UNL     1       6.149  26.652  54.294  1.00  0.00    -0.067 N 
HETATM    2  H   UNL     1       5.193  26.341  54.088  1.00  0.00     0.280 HD
HETATM    3  C   UNL     1       6.454  26.257  55.723  1.00  0.00     0.236 C 
HETATM    4  C   UNL     1       5.500  26.970  56.675  1.00  0.00     0.040 C 
HETATM    5  C   UNL     1       5.501  28.492  56.505  1.00  0.00     0.058 C 
HETATM    6  C   UNL     1       5.276  28.861  55.036  1.00  0.00     0.040 C 
HETATM    7  C   UNL     1       6.224  28.143  54.083  1.00  0.00     0.236 C 
ENDROOT
BRANCH   1   8
HETATM    8  C   UNL     1       7.048  25.934  53.301  1.00  0.00     0.273 C 
BRANCH   8   9
HETATM    9  C   UNL     1       7.557  24.612  53.809  1.00  0.00    -0.032 A 
HETATM   10  C   UNL     1       7.436  23.461  53.016  1.00  0.00     0.017 A 
HETATM   11  C   UNL     1       7.971  22.273  53.490  1.00  0.00    -0.035 A 
HETATM   12  C   UNL     1       8.632  22.190  54.719  1.00  0.00     0.016 A 
HETATM   13  C   UNL     1       8.004  20.938  52.821  1.00  0.00     0.055 C 
HETATM   14  N   UNL     1       9.150  20.908  54.956  1.00  0.00    -0.287 NA
HETATM   15  C   UNL     1       8.751  23.319  55.510  1.00  0.00     0.025 A 
HETATM   16  C   UNL     1       9.275  20.447  56.328  1.00  0.00     0.116 C 
HETATM   17  C   UNL     1       8.428  20.046  54.002  1.00  0.00     0.100 C 
HETATM   18  C   UNL     1       8.206  24.528  55.060  1.00  0.00     0.011 A 
ENDBRANCH   8   9
ENDBRANCH   1   8
BRANCH   5  19
HETATM   19  C   UNL     1       6.778  29.084  57.021  1.00  0.00     0.108 A 
HETATM   20  N   UNL     1       7.903  29.187  56.347  1.00  0.00    -0.229 NA
HETATM   21  C   UNL     1       8.829  29.768  57.209  1.00  0.00     0.157 A 
HETATM   22  C   UNL     1       8.214  30.015  58.423  1.00  0.00     0.126 A 
HETATM   23  N   UNL     1       6.923  29.583  58.292  1.00  0.00    -0.352 N 
HETATM   24  H   UNL     1       6.208  29.618  59.010  1.00  0.00     0.166 HD
BRANCH  21  25
HETATM   25  C   UNL     1      10.254  30.043  56.809  1.00  0.00     0.436 C 
HETATM   26  F   UNL     1      11.106  29.084  57.260  1.00  0.00    -0.165 F 
HETATM   27  F   UNL     1      10.396  30.095  55.460  1.00  0.00    -0.165 F 
HETATM   28  F   UNL     1      10.697  31.228  57.303  1.00  0.00    -0.165 F 
ENDBRANCH  21  25
ENDBRANCH   5  19
TORSDOF 4
ENDMDL
MODEL 7
REMARK VINA RESULT:      -8.4      6.693      9.506
REMARK  4 active torsions:
REMARK  status: ('A' for Active; 'I' for Inactive)
REMARK    1  A    between atoms: C_6  and  C_7 
REMARK    2  A    between atoms: C_7  and  N_8 
REMARK    3  A    between atoms: C_12  and  C_13 
REMARK    4  A    between atoms: C_15  and  C_16 
ROOT
HETATM    1  N   UNL     1       5.590  25.924  52.165  1.00  0.00    -0.067 N 
HETATM    2  H   UNL     1       5.400  26.920  52.323  1.00  0.00     0.280 HD
HETATM    3  C   UNL     1       4.963  25.158  53.310  1.00  0.00     0.236 C 
HETATM    4  C   UNL     1       5.612  25.568  54.628  1.00  0.00     0.040 C 
HETATM    5  C   UNL     1       7.136  25.417  54.624  1.00  0.00     0.058 C 
HETATM    6  C   UNL     1       7.736  26.129  53.408  1.00  0.00     0.040 C 
HETATM    7  C   UNL     1       7.083  25.725  52.092  1.00  0.00     0.236 C 
ENDROOT
BRANCH   1   8
HETATM    8  C   UNL     1       4.947  25.581  50.832  1.00  0.00     0.273 C 
BRANCH   8   9
HETATM    9  C   UNL     1       4.781  26.772  49.928  1.00  0.00    -0.032 A 
HETATM   10  C   UNL     1       5.336  28.010  50.287  1.00  0.00     0.017 A 
HETATM   11  C   UNL     1       5.217  29.070  49.402  1.00  0.00    -0.035 A 
HETATM   12  C   UNL     1       4.574  28.942  48.167  1.00  0.00     0.016 A 
HETATM   13  C   UNL     1       5.753  30.457  49.538  1.00  0.00     0.055 C 
HETATM   14  N   UNL     1       4.639  30.123  47.412  1.00  0.00    -0.287 NA
HETATM   15  C   UNL     1       4.019  27.727  47.807  1.00  0.00     0.025 A 
HETATM   16  C   UNL     1       3.566  30.414  46.477  1.00  0.00     0.116 C 
HETATM   17  C   UNL     1       4.995  31.161  48.398  1.00  0.00     0.100 C 
HETATM   18  C   UNL     1       4.113  26.645  48.690  1.00  0.00     0.011 A 
ENDBRANCH   8   9
ENDBRANCH   1   8
BRANCH   5  19
HETATM   19  C   UNL     1       7.527  23.970  54.650  1.00  0.00     0.108 A 
HETATM   20  N   UNL     1       7.472  23.180  55.701  1.00  0.00    -0.229 NA
HETATM   21  C   UNL     1       7.949  21.939  55.287  1.00  0.00     0.157 A 
HETATM   22  C   UNL     1       8.284  22.014  53.947  1.00  0.00     0.126 A 
HETATM   23  N   UNL     1       8.012  23.296  53.557  1.00  0.00    -0.352 N 
HETATM   24  H   UNL     1       8.153  23.677  52.629  1.00  0.00     0.166 HD
BRANCH  21  25
HETATM   25  C   UNL     1       8.057  20.758  56.214  1.00  0.00     0.436 C 
HETATM   26  F   UNL     1       9.063  19.916  55.856  1.00  0.00    -0.165 F 
HETATM   27  F   UNL     1       8.301  21.143  57.493  1.00  0.00    -0.165 F 
HETATM   28  F   UNL     1       6.915  20.023  56.230  1.00  0.00    -0.165 F 
ENDBRANCH  21  25
ENDBRANCH   5  19
TORSDOF 4
ENDMDL
MODEL 8
REMARK VINA RESULT:      -8.4      2.851      4.176
REMARK  4 active torsions:
REMARK  status: ('A' for Active; 'I' for Inactive)
REMARK    1  A    between atoms: C_6  and  C_7 
REMARK    2  A    between atoms: C_7  and  N_8 
REMARK    3  A    between atoms: C_12  and  C_13 
REMARK    4  A    between atoms: C_15  and  C_16 
ROOT
HETATM    1  N   UNL     1       6.386  25.961  52.204  1.00  0.00    -0.067 N 
HETATM    2  H   UNL     1       5.869  25.871  51.322  1.00  0.00     0.280 HD
HETATM    3  C   UNL     1       5.523  25.363  53.295  1.00  0.00     0.236 C 
HETATM    4  C   UNL     1       4.221  26.146  53.418  1.00  0.00     0.040 C 
HETATM    5  C   UNL     1       4.437  27.647  53.638  1.00  0.00     0.058 C 
HETATM    6  C   UNL     1       5.381  28.209  52.570  1.00  0.00     0.040 C 
HETATM    7  C   UNL     1       6.679  27.421  52.443  1.00  0.00     0.236 C 
ENDROOT
BRANCH   1   8
HETATM    8  C   UNL     1       7.680  25.188  52.014  1.00  0.00     0.273 C 
BRANCH   8   9
HETATM    9  C   UNL     1       7.912  24.148  53.076  1.00  0.00    -0.032 A 
HETATM   10  C   UNL     1       7.988  22.791  52.727  1.00  0.00     0.017 A 
HETATM   11  C   UNL     1       8.264  21.867  53.723  1.00  0.00    -0.035 A 
HETATM   12  C   UNL     1       8.478  22.243  55.052  1.00  0.00     0.016 A 
HETATM   13  C   UNL     1       8.433  20.388  53.595  1.00  0.00     0.055 C 
HETATM   14  N   UNL     1       8.811  21.149  55.864  1.00  0.00    -0.287 NA
HETATM   15  C   UNL     1       8.400  23.578  55.406  1.00  0.00     0.025 A 
HETATM   16  C   UNL     1       8.449  21.188  57.271  1.00  0.00     0.116 C 
HETATM   17  C   UNL     1       8.390  19.975  55.077  1.00  0.00     0.100 C 
HETATM   18  C   UNL     1       8.107  24.530  54.422  1.00  0.00     0.011 A 
ENDBRANCH   8   9
ENDBRANCH   1   8
BRANCH   5  19
HETATM   19  C   UNL     1       4.960  27.913  55.016  1.00  0.00     0.108 A 
HETATM   20  N   UNL     1       5.982  28.687  55.313  1.00  0.00    -0.229 NA
HETATM   21  C   UNL     1       6.135  28.627  56.695  1.00  0.00     0.157 A 
HETATM   22  C   UNL     1       5.163  27.793  57.216  1.00  0.00     0.126 A 
HETATM   23  N   UNL     1       4.428  27.351  56.151  1.00  0.00    -0.352 N 
HETATM   24  H   UNL     1       3.639  26.717  56.195  1.00  0.00     0.166 HD
BRANCH  21  25
HETATM   25  C   UNL     1       7.218  29.375  57.428  1.00  0.00     0.436 C 
HETATM   26  F   UNL     1       7.786  28.622  58.407  1.00  0.00    -0.165 F 
HETATM   27  F   UNL     1       8.217  29.758  56.593  1.00  0.00    -0.165 F 
HETATM   28  F   UNL     1       6.740  30.499  58.021  1.00  0.00    -0.165 F 
ENDBRANCH  21  25
ENDBRANCH   5  19
TORSDOF 4
ENDMDL
MODEL 9
REMARK VINA RESULT:      -8.3      6.291      7.526
REMARK  4 active torsions:
REMARK  status: ('A' for Active; 'I' for Inactive)
REMARK    1  A    between atoms: C_6  and  C_7 
REMARK    2  A    between atoms: C_7  and  N_8 
REMARK    3  A    between atoms: C_12  and  C_13 
REMARK    4  A    between atoms: C_15  and  C_16 
ROOT
HETATM    1  N   UNL     1       6.429  26.452  53.199  1.00  0.00    -0.067 N 
HETATM    2  H   UNL     1       6.263  26.080  54.141  1.00  0.00     0.280 HD
HETATM    3  C   UNL     1       6.852  27.897  53.353  1.00  0.00     0.236 C 
HETATM    4  C   UNL     1       5.730  28.703  53.998  1.00  0.00     0.040 C 
HETATM    5  C   UNL     1       4.397  28.588  53.252  1.00  0.00     0.058 C 
HETATM    6  C   UNL     1       4.035  27.116  53.035  1.00  0.00     0.040 C 
HETATM    7  C   UNL     1       5.160  26.309  52.397  1.00  0.00     0.236 C 
ENDROOT
BRANCH   1   8
HETATM    8  C   UNL     1       7.531  25.597  52.598  1.00  0.00     0.273 C 
BRANCH   8   9
HETATM    9  C   UNL     1       7.847  24.373  53.414  1.00  0.00    -0.032 A 
HETATM   10  C   UNL     1       8.049  23.138  52.781  1.00  0.00     0.017 A 
HETATM   11  C   UNL     1       8.399  22.045  53.559  1.00  0.00    -0.035 A 
HETATM   12  C   UNL     1       8.564  22.137  54.944  1.00  0.00     0.016 A 
HETATM   13  C   UNL     1       8.703  20.651  53.118  1.00  0.00     0.055 C 
HETATM   14  N   UNL     1       8.987  20.925  55.508  1.00  0.00    -0.287 NA
HETATM   15  C   UNL     1       8.361  23.350  55.578  1.00  0.00     0.025 A 
HETATM   16  C   UNL     1       8.610  20.623  56.878  1.00  0.00     0.116 C 
HETATM   17  C   UNL     1       8.683  19.920  54.472  1.00  0.00     0.100 C 
HETATM   18  C   UNL     1       7.993  24.466  54.816  1.00  0.00     0.011 A 
ENDBRANCH   8   9
ENDBRANCH   1   8
BRANCH   5  19
HETATM   19  C   UNL     1       4.451  29.329  51.950  1.00  0.00     0.108 A 
HETATM   20  N   UNL     1       3.868  28.957  50.831  1.00  0.00    -0.229 NA
HETATM   21  C   UNL     1       4.198  29.914  49.876  1.00  0.00     0.157 A 
HETATM   22  C   UNL     1       4.995  30.877  50.467  1.00  0.00     0.126 A 
HETATM   23  N   UNL     1       5.146  30.500  51.773  1.00  0.00    -0.352 N 
HETATM   24  H   UNL     1       5.682  30.994  52.476  1.00  0.00     0.166 HD
BRANCH  21  25
HETATM   25  C   UNL     1       3.728  29.835  48.448  1.00  0.00     0.436 C 
HETATM   26  F   UNL     1       4.637  30.355  47.580  1.00  0.00    -0.165 F 
HETATM   27  F   UNL     1       3.502  28.553  48.063  1.00  0.00    -0.165 F 
HETATM   28  F   UNL     1       2.569  30.518  48.260  1.00  0.00    -0.165 F 
ENDBRANCH  21  25
ENDBRANCH   5  19
TORSDOF 4
ENDMDL
MODEL 10
REMARK VINA RESULT:      -8.3      4.102      8.628
REMARK  4 active torsions:
REMARK  status: ('A' for Active; 'I' for Inactive)
REMARK    1  A    between atoms: C_6  and  C_7 
REMARK    2  A    between atoms: C_7  and  N_8 
REMARK    3  A    between atoms: C_12  and  C_13 
REMARK    4  A    between atoms: C_15  and  C_16 
ROOT
HETATM    1  N   UNL     1       6.238  26.455  55.337  1.00  0.00    -0.067 N 
HETATM    2  H   UNL     1       5.900  27.271  54.816  1.00  0.00     0.280 HD
HETATM    3  C   UNL     1       7.655  26.183  54.880  1.00  0.00     0.236 C 
HETATM    4  C   UNL     1       7.667  25.844  53.393  1.00  0.00     0.040 C 
HETATM    5  C   UNL     1       6.732  24.686  53.029  1.00  0.00     0.058 C 
HETATM    6  C   UNL     1       5.326  24.948  53.578  1.00  0.00     0.040 C 
HETATM    7  C   UNL     1       5.315  25.294  55.062  1.00  0.00     0.236 C 
ENDROOT
BRANCH   1   8
HETATM    8  C   UNL     1       6.178  26.839  56.806  1.00  0.00     0.273 C 
BRANCH   8   9
HETATM    9  C   UNL     1       7.134  27.942  57.171  1.00  0.00    -0.032 A 
HETATM   10  C   UNL     1       8.471  27.881  56.751  1.00  0.00     0.017 A 
HETATM   11  C   UNL     1       9.308  28.944  57.054  1.00  0.00    -0.035 A 
HETATM   12  C   UNL     1       8.861  30.071  57.749  1.00  0.00     0.016 A 
HETATM   13  C   UNL     1      10.743  29.129  56.685  1.00  0.00     0.055 C 
HETATM   14  N   UNL     1       9.861  31.046  57.876  1.00  0.00    -0.287 NA
HETATM   15  C   UNL     1       7.545  30.137  58.172  1.00  0.00     0.025 A 
HETATM   16  C   UNL     1       9.837  31.927  59.031  1.00  0.00     0.116 C 
HETATM   17  C   UNL     1      11.112  30.317  57.591  1.00  0.00     0.100 C 
HETATM   18  C   UNL     1       6.684  29.070  57.892  1.00  0.00     0.011 A 
ENDBRANCH   8   9
ENDBRANCH   1   8
BRANCH   5  19
HETATM   19  C   UNL     1       7.276  23.385  53.535  1.00  0.00     0.108 A 
HETATM   20  N   UNL     1       7.264  22.983  54.788  1.00  0.00    -0.229 NA
HETATM   21  C   UNL     1       7.889  21.739  54.811  1.00  0.00     0.157 A 
HETATM   22  C   UNL     1       8.269  21.408  53.523  1.00  0.00     0.126 A 
HETATM   23  N   UNL     1       7.876  22.449  52.728  1.00  0.00    -0.352 N 
HETATM   24  H   UNL     1       8.013  22.518  51.727  1.00  0.00     0.166 HD
BRANCH  21  25
HETATM   25  C   UNL     1       8.086  20.950  56.077  1.00  0.00     0.436 C 
HETATM   26  F   UNL     1       8.219  21.754  57.166  1.00  0.00    -0.165 F 
HETATM   27  F   UNL     1       7.038  20.123  56.323  1.00  0.00    -0.165 F 
HETATM   28  F   UNL     1       9.200  20.176  56.020  1.00  0.00    -0.165 F 
ENDBRANCH  21  25
ENDBRANCH   5  19
TORSDOF 4
ENDMDL
