MODEL 1
REMARK VINA RESULT:      -9.3      0.000      0.000
REMARK  6 active torsions:
REMARK  status: ('A' for Active; 'I' for Inactive)
REMARK    1  A    between atoms: O_2  and  C_3 
REMARK    2  A    between atoms: C_3  and  C_4 
REMARK    3  A    between atoms: C_4  and  N_5 
REMARK       I    between atoms: N_5  and  C_6 
REMARK    4  A    between atoms: C_6  and  C_7 
REMARK    5  A    between atoms: C_12  and  C_13 
REMARK    6  A    between atoms: C_22  and  C_23 
ROOT
HETATM    1  C   UNL     1       4.393  27.577  50.570  1.00  0.00     0.148 A 
HETATM    2  N   UNL     1       4.714  28.109  51.772  1.00  0.00    -0.165 NA
HETATM    3  N   UNL     1       5.685  27.295  52.225  1.00  0.00    -0.240 N 
HETATM    4  C   UNL     1       6.072  26.340  51.331  1.00  0.00     0.123 A 
HETATM    5  N   UNL     1       7.091  25.498  51.585  1.00  0.00    -0.366 N 
HETATM    6  C   UNL     1       7.944  25.607  52.760  1.00  0.00     0.118 C 
HETATM    7  C   UNL     1       7.731  26.927  53.525  1.00  0.00     0.066 C 
HETATM    8  C   UNL     1       6.290  27.470  53.529  1.00  0.00     0.221 C 
HETATM    9  C   UNL     1       5.228  26.468  50.260  1.00  0.00     0.088 A 
HETATM   10  H   UNL     1       7.364  24.787  50.908  1.00  0.00     0.161 HD
ENDROOT
BRANCH   1  11
HETATM   11  C   UNL     1       3.323  28.116  49.717  1.00  0.00     0.272 C 
HETATM   12  N   UNL     1       2.603  27.154  49.045  1.00  0.00    -0.354 N 
HETATM   13  H   UNL     1       2.759  26.198  49.352  1.00  0.00     0.162 HD
HETATM   14  O   UNL     1       3.088  29.318  49.631  1.00  0.00    -0.266 OA
BRANCH  12  15
HETATM   15  C   UNL     1       1.377  27.486  48.350  1.00  0.00     0.149 C 
BRANCH  15  16
HETATM   16  C   UNL     1       1.600  27.684  46.854  1.00  0.00     0.186 C 
BRANCH  16  17
HETATM   17  O   UNL     1       0.511  27.092  46.137  1.00  0.00    -0.394 OA
HETATM   18  C   UNL     1      -0.650  27.908  46.185  1.00  0.00     0.201 C 
ENDBRANCH  16  17
ENDBRANCH  15  16
ENDBRANCH  12  15
ENDBRANCH   1  11
BRANCH   8  19
HETATM   19  C   UNL     1       5.410  26.862  54.595  1.00  0.00     0.409 C 
HETATM   20  F   UNL     1       6.023  26.697  55.782  1.00  0.00    -0.169 F 
HETATM   21  F   UNL     1       4.331  27.659  54.815  1.00  0.00    -0.169 F 
HETATM   22  F   UNL     1       4.919  25.658  54.223  1.00  0.00    -0.169 F 
ENDBRANCH   8  19
BRANCH   6  23
HETATM   23  C   UNL     1       7.885  24.349  53.611  1.00  0.00    -0.034 A 
HETATM   24  C   UNL     1       7.890  23.091  52.978  1.00  0.00     0.034 A 
HETATM   25  C   UNL     1       7.786  21.906  53.719  1.00  0.00     0.056 A 
HETATM   26 CL   UNL     1       7.772  20.415  52.846  1.00  0.00    -0.083 Cl
HETATM   27  C   UNL     1       7.688  21.961  55.111  1.00  0.00     0.055 A 
HETATM   28 CL   UNL     1       7.551  20.544  56.090  1.00  0.00    -0.083 Cl
HETATM   29  C   UNL     1       7.690  23.200  55.753  1.00  0.00     0.026 A 
HETATM   30  C   UNL     1       7.780  24.380  55.008  1.00  0.00     0.011 A 
ENDBRANCH   6  23
TORSDOF 6
ENDMDL
MODEL 2
REMARK VINA RESULT:      -9.0      0.924      1.776
REMARK  6 active torsions:
REMARK  status: ('A' for Active; 'I' for Inactive)
REMARK    1  A    between atoms: O_2  and  C_3 
REMARK    2  A    between atoms: C_3  and  C_4 
REMARK    3  A    between atoms: C_4  and  N_5 
REMARK       I    between atoms: N_5  and  C_6 
REMARK    4  A    between atoms: C_6  and  C_7 
REMARK    5  A    between atoms: C_12  and  C_13 
REMARK    6  A    between atoms: C_22  and  C_23 
ROOT
HETATM    1  C   UNL     1       4.363  27.522  50.652  1.00  0.00     0.148 A 
HETATM    2  N   UNL     1       4.756  28.009  51.851  1.00  0.00    -0.165 NA
HETATM    3  N   UNL     1       5.723  27.155  52.234  1.00  0.00    -0.240 N 
HETATM    4  C   UNL     1       6.040  26.216  51.295  1.00  0.00     0.123 A 
HETATM    5  N   UNL     1       7.044  25.339  51.477  1.00  0.00    -0.366 N 
HETATM    6  C   UNL     1       7.954  25.389  52.612  1.00  0.00     0.118 C 
HETATM    7  C   UNL     1       7.815  26.690  53.425  1.00  0.00     0.066 C 
HETATM    8  C   UNL     1       6.393  27.274  53.513  1.00  0.00     0.221 C 
HETATM    9  C   UNL     1       5.151  26.400  50.270  1.00  0.00     0.088 A 
HETATM   10  H   UNL     1       7.264  24.641  50.767  1.00  0.00     0.161 HD
ENDROOT
BRANCH   1  11
HETATM   11  C   UNL     1       3.271  28.117  49.866  1.00  0.00     0.272 C 
HETATM   12  N   UNL     1       2.642  27.231  49.021  1.00  0.00    -0.354 N 
HETATM   13  H   UNL     1       2.866  26.250  49.170  1.00  0.00     0.162 HD
HETATM   14  O   UNL     1       2.945  29.295  49.974  1.00  0.00    -0.266 OA
BRANCH  12  15
HETATM   15  C   UNL     1       1.408  27.583  48.352  1.00  0.00     0.149 C 
BRANCH  15  16
HETATM   16  C   UNL     1       1.628  27.934  46.884  1.00  0.00     0.186 C 
BRANCH  16  17
HETATM   17  O   UNL     1       1.394  29.334  46.698  1.00  0.00    -0.394 OA
HETATM   18  C   UNL     1       2.609  30.047  46.515  1.00  0.00     0.201 C 
ENDBRANCH  16  17
ENDBRANCH  15  16
ENDBRANCH  12  15
ENDBRANCH   1  11
BRANCH   8  19
HETATM   19  C   UNL     1       5.546  26.658  54.602  1.00  0.00     0.409 C 
HETATM   20  F   UNL     1       5.048  25.448  54.288  1.00  0.00    -0.169 F 
HETATM   21  F   UNL     1       6.286  26.500  55.731  1.00  0.00    -0.169 F 
HETATM   22  F   UNL     1       4.504  27.450  54.943  1.00  0.00    -0.169 F 
ENDBRANCH   8  19
BRANCH   6  23
HETATM   23  C   UNL     1       7.898  24.108  53.429  1.00  0.00    -0.034 A 
HETATM   24  C   UNL     1       8.100  24.171  54.820  1.00  0.00     0.034 A 
HETATM   25  C   UNL     1       8.107  23.011  55.605  1.00  0.00     0.056 A 
HETATM   26 CL   UNL     1       8.394  23.192  57.300  1.00  0.00    -0.083 Cl
HETATM   27  C   UNL     1       7.900  21.764  55.010  1.00  0.00     0.055 A 
HETATM   28 CL   UNL     1       7.900  20.291  55.911  1.00  0.00    -0.083 Cl
HETATM   29  C   UNL     1       7.689  21.686  53.633  1.00  0.00     0.026 A 
HETATM   30  C   UNL     1       7.696  22.846  52.852  1.00  0.00     0.011 A 
ENDBRANCH   6  23
TORSDOF 6
ENDMDL
MODEL 3
REMARK VINA RESULT:      -8.7      5.536      8.422
REMARK  6 active torsions:
REMARK  status: ('A' for Active; 'I' for Inactive)
REMARK    1  A    between atoms: O_2  and  C_3 
REMARK    2  A    between atoms: C_3  and  C_4 
REMARK    3  A    between atoms: C_4  and  N_5 
REMARK       I    between atoms: N_5  and  C_6 
REMARK    4  A    between atoms: C_6  and  C_7 
REMARK    5  A    between atoms: C_12  and  C_13 
REMARK    6  A    between atoms: C_22  and  C_23 
ROOT
HETATM    1  C   UNL     1       7.838  28.870  57.688  1.00  0.00     0.148 A 
HETATM    2  N   UNL     1       7.312  29.043  56.454  1.00  0.00    -0.165 NA
HETATM    3  N   UNL     1       6.912  27.805  56.109  1.00  0.00    -0.240 N 
HETATM    4  C   UNL     1       7.057  26.877  57.099  1.00  0.00     0.123 A 
HETATM    5  N   UNL     1       6.627  25.610  56.956  1.00  0.00    -0.366 N 
HETATM    6  C   UNL     1       5.864  25.150  55.804  1.00  0.00     0.118 C 
HETATM    7  C   UNL     1       5.379  26.310  54.914  1.00  0.00     0.066 C 
HETATM    8  C   UNL     1       6.330  27.517  54.814  1.00  0.00     0.221 C 
HETATM    9  C   UNL     1       7.690  27.524  58.126  1.00  0.00     0.088 A 
HETATM   10  H   UNL     1       6.747  24.929  57.704  1.00  0.00     0.161 HD
ENDROOT
BRANCH   1  11
HETATM   11  C   UNL     1       8.456  29.963  58.454  1.00  0.00     0.272 C 
HETATM   12  N   UNL     1       7.938  30.124  59.719  1.00  0.00    -0.354 N 
HETATM   13  H   UNL     1       7.340  29.369  60.046  1.00  0.00     0.162 HD
HETATM   14  O   UNL     1       9.365  30.655  58.003  1.00  0.00    -0.266 OA
BRANCH  12  15
HETATM   15  C   UNL     1       8.579  30.990  60.686  1.00  0.00     0.149 C 
BRANCH  15  16
HETATM   16  C   UNL     1       7.592  31.538  61.712  1.00  0.00     0.186 C 
BRANCH  16  17
HETATM   17  O   UNL     1       8.220  31.561  62.998  1.00  0.00    -0.394 OA
HETATM   18  C   UNL     1       7.890  32.741  63.718  1.00  0.00     0.201 C 
ENDBRANCH  16  17
ENDBRANCH  15  16
ENDBRANCH  12  15
ENDBRANCH   1  11
BRANCH   8  19
HETATM   19  C   UNL     1       7.420  27.353  53.780  1.00  0.00     0.409 C 
HETATM   20  F   UNL     1       8.292  26.366  54.058  1.00  0.00    -0.169 F 
HETATM   21  F   UNL     1       6.872  27.067  52.571  1.00  0.00    -0.169 F 
HETATM   22  F   UNL     1       8.134  28.489  53.610  1.00  0.00    -0.169 F 
ENDBRANCH   8  19
BRANCH   6  23
HETATM   23  C   UNL     1       6.583  24.029  55.071  1.00  0.00    -0.034 A 
HETATM   24  C   UNL     1       7.320  23.087  55.811  1.00  0.00     0.034 A 
HETATM   25  C   UNL     1       8.040  22.066  55.175  1.00  0.00     0.056 A 
HETATM   26 CL   UNL     1       8.937  20.977  56.173  1.00  0.00    -0.083 Cl
HETATM   27  C   UNL     1       8.024  21.966  53.782  1.00  0.00     0.055 A 
HETATM   28 CL   UNL     1       8.889  20.740  52.928  1.00  0.00    -0.083 Cl
HETATM   29  C   UNL     1       7.290  22.888  53.034  1.00  0.00     0.026 A 
HETATM   30  C   UNL     1       6.584  23.912  53.673  1.00  0.00     0.011 A 
ENDBRANCH   6  23
TORSDOF 6
ENDMDL
MODEL 4
REMARK VINA RESULT:      -8.4      4.890      7.779
REMARK  6 active torsions:
REMARK  status: ('A' for Active; 'I' for Inactive)
REMARK    1  A    between atoms: O_2  and  C_3 
REMARK    2  A    between atoms: C_3  and  C_4 
REMARK    3  A    between atoms: C_4  and  N_5 
REMARK       I    between atoms: N_5  and  C_6 
REMARK    4  A    between atoms: C_6  and  C_7 
REMARK    5  A    between atoms: C_12  and  C_13 
REMARK    6  A    between atoms: C_22  and  C_23 
ROOT
HETATM    1  C   UNL     1       5.729  29.612  57.152  1.00  0.00     0.148 A 
HETATM    2  N   UNL     1       6.287  29.757  55.929  1.00  0.00    -0.165 NA
HETATM    3  N   UNL     1       6.106  28.552  55.358  1.00  0.00    -0.240 N 
HETATM    4  C   UNL     1       5.369  27.685  56.111  1.00  0.00     0.123 A 
HETATM    5  N   UNL     1       5.017  26.468  55.656  1.00  0.00    -0.366 N 
HETATM    6  C   UNL     1       5.274  26.018  54.295  1.00  0.00     0.118 C 
HETATM    7  C   UNL     1       5.738  27.161  53.372  1.00  0.00     0.066 C 
HETATM    8  C   UNL     1       6.611  28.242  54.036  1.00  0.00     0.221 C 
HETATM    9  C   UNL     1       5.139  28.326  57.299  1.00  0.00     0.088 A 
HETATM   10  H   UNL     1       4.470  25.831  56.233  1.00  0.00     0.161 HD
ENDROOT
BRANCH   1  11
HETATM   11  C   UNL     1       5.735  30.678  58.166  1.00  0.00     0.272 C 
HETATM   12  N   UNL     1       6.900  30.751  58.896  1.00  0.00    -0.354 N 
HETATM   13  H   UNL     1       7.677  30.203  58.534  1.00  0.00     0.162 HD
HETATM   14  O   UNL     1       4.788  31.443  58.327  1.00  0.00    -0.266 OA
BRANCH  12  15
HETATM   15  C   UNL     1       7.170  31.876  59.766  1.00  0.00     0.149 C 
BRANCH  15  16
HETATM   16  C   UNL     1       8.643  31.966  60.150  1.00  0.00     0.186 C 
BRANCH  16  17
HETATM   17  O   UNL     1       8.986  30.834  60.956  1.00  0.00    -0.394 OA
HETATM   18  C   UNL     1       8.472  30.957  62.274  1.00  0.00     0.201 C 
ENDBRANCH  16  17
ENDBRANCH  15  16
ENDBRANCH  12  15
ENDBRANCH   1  11
BRANCH   8  19
HETATM   19  C   UNL     1       8.077  27.883  54.111  1.00  0.00     0.409 C 
HETATM   20  F   UNL     1       8.901  28.947  54.089  1.00  0.00    -0.169 F 
HETATM   21  F   UNL     1       8.330  27.211  55.265  1.00  0.00    -0.169 F 
HETATM   22  F   UNL     1       8.450  27.060  53.106  1.00  0.00    -0.169 F 
ENDBRANCH   8  19
BRANCH   6  23
HETATM   23  C   UNL     1       6.147  24.775  54.274  1.00  0.00    -0.034 A 
HETATM   24  C   UNL     1       6.690  24.296  55.481  1.00  0.00     0.034 A 
HETATM   25  C   UNL     1       7.541  23.183  55.504  1.00  0.00     0.056 A 
HETATM   26 CL   UNL     1       8.179  22.693  57.033  1.00  0.00    -0.083 Cl
HETATM   27  C   UNL     1       7.855  22.521  54.314  1.00  0.00     0.055 A 
HETATM   28 CL   UNL     1       8.900  21.148  54.262  1.00  0.00    -0.083 Cl
HETATM   29  C   UNL     1       7.317  22.979  53.110  1.00  0.00     0.026 A 
HETATM   30  C   UNL     1       6.479  24.098  53.092  1.00  0.00     0.011 A 
ENDBRANCH   6  23
TORSDOF 6
ENDMDL
MODEL 5
REMARK VINA RESULT:      -8.0      3.874      5.168
REMARK  6 active torsions:
REMARK  status: ('A' for Active; 'I' for Inactive)
REMARK    1  A    between atoms: O_2  and  C_3 
REMARK    2  A    between atoms: C_3  and  C_4 
REMARK    3  A    between atoms: C_4  and  N_5 
REMARK       I    between atoms: N_5  and  C_6 
REMARK    4  A    between atoms: C_6  and  C_7 
REMARK    5  A    between atoms: C_12  and  C_13 
REMARK    6  A    between atoms: C_22  and  C_23 
ROOT
HETATM    1  C   UNL     1       4.782  27.344  51.719  1.00  0.00     0.148 A 
HETATM    2  N   UNL     1       4.932  26.391  52.668  1.00  0.00    -0.165 NA
HETATM    3  N   UNL     1       5.397  27.077  53.729  1.00  0.00    -0.240 N 
HETATM    4  C   UNL     1       5.448  28.428  53.539  1.00  0.00     0.123 A 
HETATM    5  N   UNL     1       5.804  29.273  54.524  1.00  0.00    -0.366 N 
HETATM    6  C   UNL     1       6.040  28.846  55.896  1.00  0.00     0.118 C 
HETATM    7  C   UNL     1       5.582  27.398  56.153  1.00  0.00     0.066 C 
HETATM    8  C   UNL     1       5.754  26.425  54.971  1.00  0.00     0.221 C 
HETATM    9  C   UNL     1       5.092  28.634  52.233  1.00  0.00     0.088 A 
HETATM   10  H   UNL     1       5.841  30.278  54.363  1.00  0.00     0.161 HD
ENDROOT
BRANCH   1  11
HETATM   11  C   UNL     1       4.335  27.044  50.350  1.00  0.00     0.272 C 
HETATM   12  N   UNL     1       3.364  27.899  49.878  1.00  0.00    -0.354 N 
HETATM   13  H   UNL     1       3.208  28.734  50.437  1.00  0.00     0.162 HD
HETATM   14  O   UNL     1       4.803  26.123  49.688  1.00  0.00    -0.266 OA
BRANCH  12  15
HETATM   15  C   UNL     1       2.979  27.897  48.483  1.00  0.00     0.149 C 
BRANCH  15  16
HETATM   16  C   UNL     1       1.504  27.559  48.294  1.00  0.00     0.186 C 
BRANCH  16  17
HETATM   17  O   UNL     1       1.366  26.679  47.174  1.00  0.00    -0.394 OA
HETATM   18  C   UNL     1       2.537  25.898  46.977  1.00  0.00     0.201 C 
ENDBRANCH  16  17
ENDBRANCH  15  16
ENDBRANCH  12  15
ENDBRANCH   1  11
BRANCH   8  19
HETATM   19  C   UNL     1       7.139  25.830  54.866  1.00  0.00     0.409 C 
HETATM   20  F   UNL     1       7.858  25.916  56.000  1.00  0.00    -0.169 F 
HETATM   21  F   UNL     1       7.053  24.511  54.551  1.00  0.00    -0.169 F 
HETATM   22  F   UNL     1       7.865  26.406  53.881  1.00  0.00    -0.169 F 
ENDBRANCH   8  19
BRANCH   6  23
HETATM   23  C   UNL     1       7.457  29.166  56.344  1.00  0.00    -0.034 A 
HETATM   24  C   UNL     1       7.682  29.570  57.673  1.00  0.00     0.034 A 
HETATM   25  C   UNL     1       8.964  29.923  58.116  1.00  0.00     0.056 A 
HETATM   26 CL   UNL     1       9.130  30.435  59.758  1.00  0.00    -0.083 Cl
HETATM   27  C   UNL     1      10.047  29.865  57.236  1.00  0.00     0.055 A 
HETATM   28 CL   UNL     1      11.653  30.290  57.708  1.00  0.00    -0.083 Cl
HETATM   29  C   UNL     1       9.841  29.458  55.918  1.00  0.00     0.026 A 
HETATM   30  C   UNL     1       8.557  29.119  55.476  1.00  0.00     0.011 A 
ENDBRANCH   6  23
TORSDOF 6
ENDMDL
MODEL 6
REMARK VINA RESULT:      -7.9      6.085      9.039
REMARK  6 active torsions:
REMARK  status: ('A' for Active; 'I' for Inactive)
REMARK    1  A    between atoms: O_2  and  C_3 
REMARK    2  A    between atoms: C_3  and  C_4 
REMARK    3  A    between atoms: C_4  and  N_5 
REMARK       I    between atoms: N_5  and  C_6 
REMARK    4  A    between atoms: C_6  and  C_7 
REMARK    5  A    between atoms: C_12  and  C_13 
REMARK    6  A    between atoms: C_22  and  C_23 
ROOT
HETATM    1  C   UNL     1       8.284  29.742  57.826  1.00  0.00     0.148 A 
HETATM    2  N   UNL     1       6.963  29.521  58.018  1.00  0.00    -0.165 NA
HETATM    3  N   UNL     1       6.694  28.497  57.188  1.00  0.00    -0.240 N 
HETATM    4  C   UNL     1       7.793  27.985  56.561  1.00  0.00     0.123 A 
HETATM    5  N   UNL     1       7.719  26.903  55.764  1.00  0.00    -0.366 N 
HETATM    6  C   UNL     1       6.508  26.112  55.601  1.00  0.00     0.118 C 
HETATM    7  C   UNL     1       5.418  26.480  56.626  1.00  0.00     0.066 C 
HETATM    8  C   UNL     1       5.357  27.964  57.031  1.00  0.00     0.221 C 
HETATM    9  C   UNL     1       8.838  28.793  56.922  1.00  0.00     0.088 A 
HETATM   10  H   UNL     1       8.549  26.537  55.300  1.00  0.00     0.161 HD
ENDROOT
BRANCH   1  11
HETATM   11  C   UNL     1       9.020  30.822  58.501  1.00  0.00     0.272 C 
HETATM   12  N   UNL     1       8.319  31.428  59.519  1.00  0.00    -0.354 N 
HETATM   13  H   UNL     1       7.471  30.948  59.811  1.00  0.00     0.162 HD
HETATM   14  O   UNL     1      10.165  31.137  58.189  1.00  0.00    -0.266 OA
BRANCH  12  15
HETATM   15  C   UNL     1       8.967  32.343  60.434  1.00  0.00     0.149 C 
BRANCH  15  16
HETATM   16  C   UNL     1       9.565  31.624  61.639  1.00  0.00     0.186 C 
BRANCH  16  17
HETATM   17  O   UNL     1       8.514  31.282  62.548  1.00  0.00    -0.394 OA
HETATM   18  C   UNL     1       8.014  32.428  63.223  1.00  0.00     0.201 C 
ENDBRANCH  16  17
ENDBRANCH  15  16
ENDBRANCH  12  15
ENDBRANCH   1  11
BRANCH   8  19
HETATM   19  C   UNL     1       4.564  28.826  56.076  1.00  0.00     0.409 C 
HETATM   20  F   UNL     1       3.775  29.732  56.683  1.00  0.00    -0.169 F 
HETATM   21  F   UNL     1       5.408  29.517  55.266  1.00  0.00    -0.169 F 
HETATM   22  F   UNL     1       3.779  28.088  55.259  1.00  0.00    -0.169 F 
ENDBRANCH   8  19
BRANCH   6  23
HETATM   23  C   UNL     1       6.049  26.086  54.152  1.00  0.00    -0.034 A 
HETATM   24  C   UNL     1       6.160  27.255  53.376  1.00  0.00     0.034 A 
HETATM   25  C   UNL     1       5.705  27.293  52.052  1.00  0.00     0.056 A 
HETATM   26 CL   UNL     1       5.859  28.786  51.194  1.00  0.00    -0.083 Cl
HETATM   27  C   UNL     1       5.140  26.153  51.476  1.00  0.00     0.055 A 
HETATM   28 CL   UNL     1       4.552  26.125  49.852  1.00  0.00    -0.083 Cl
HETATM   29  C   UNL     1       5.031  24.984  52.229  1.00  0.00     0.026 A 
HETATM   30  C   UNL     1       5.475  24.955  53.555  1.00  0.00     0.011 A 
ENDBRANCH   6  23
TORSDOF 6
ENDMDL
MODEL 7
REMARK VINA RESULT:      -7.8      3.615      4.719
REMARK  6 active torsions:
REMARK  status: ('A' for Active; 'I' for Inactive)
REMARK    1  A    between atoms: O_2  and  C_3 
REMARK    2  A    between atoms: C_3  and  C_4 
REMARK    3  A    between atoms: C_4  and  N_5 
REMARK       I    between atoms: N_5  and  C_6 
REMARK    4  A    between atoms: C_6  and  C_7 
REMARK    5  A    between atoms: C_12  and  C_13 
REMARK    6  A    between atoms: C_22  and  C_23 
ROOT
HETATM    1  C   UNL     1       4.720  26.611  50.814  1.00  0.00     0.148 A 
HETATM    2  N   UNL     1       5.429  25.590  51.349  1.00  0.00    -0.165 NA
HETATM    3  N   UNL     1       5.470  25.892  52.659  1.00  0.00    -0.240 N 
HETATM    4  C   UNL     1       4.735  26.989  53.001  1.00  0.00     0.123 A 
HETATM    5  N   UNL     1       4.593  27.381  54.281  1.00  0.00    -0.366 N 
HETATM    6  C   UNL     1       5.093  26.613  55.412  1.00  0.00     0.118 C 
HETATM    7  C   UNL     1       5.553  25.199  55.010  1.00  0.00     0.066 C 
HETATM    8  C   UNL     1       6.193  25.077  53.615  1.00  0.00     0.221 C 
HETATM    9  C   UNL     1       4.264  27.504  51.823  1.00  0.00     0.088 A 
HETATM   10  H   UNL     1       4.043  28.206  54.518  1.00  0.00     0.161 HD
ENDROOT
BRANCH   1  11
HETATM   11  C   UNL     1       4.459  26.733  49.371  1.00  0.00     0.272 C 
HETATM   12  N   UNL     1       3.602  25.777  48.874  1.00  0.00    -0.354 N 
HETATM   13  H   UNL     1       3.107  25.228  49.572  1.00  0.00     0.162 HD
HETATM   14  O   UNL     1       4.952  27.622  48.683  1.00  0.00    -0.266 OA
BRANCH  12  15
HETATM   15  C   UNL     1       3.056  25.884  47.538  1.00  0.00     0.149 C 
BRANCH  15  16
HETATM   16  C   UNL     1       1.767  26.700  47.506  1.00  0.00     0.186 C 
BRANCH  16  17
HETATM   17  O   UNL     1       2.033  27.969  46.902  1.00  0.00    -0.394 OA
HETATM   18  C   UNL     1       1.614  29.041  47.734  1.00  0.00     0.201 C 
ENDBRANCH  16  17
ENDBRANCH  15  16
ENDBRANCH  12  15
ENDBRANCH   1  11
BRANCH   8  19
HETATM   19  C   UNL     1       7.663  25.423  53.584  1.00  0.00     0.409 C 
HETATM   20  F   UNL     1       8.362  24.929  54.622  1.00  0.00    -0.169 F 
HETATM   21  F   UNL     1       8.232  24.927  52.453  1.00  0.00    -0.169 F 
HETATM   22  F   UNL     1       7.870  26.759  53.554  1.00  0.00    -0.169 F 
ENDBRANCH   8  19
BRANCH   6  23
HETATM   23  C   UNL     1       6.095  27.412  56.229  1.00  0.00    -0.034 A 
HETATM   24  C   UNL     1       5.826  28.763  56.516  1.00  0.00     0.034 A 
HETATM   25  C   UNL     1       6.744  29.552  57.222  1.00  0.00     0.056 A 
HETATM   26 CL   UNL     1       6.332  31.208  57.497  1.00  0.00    -0.083 Cl
HETATM   27  C   UNL     1       7.946  28.996  57.664  1.00  0.00     0.055 A 
HETATM   28 CL   UNL     1       9.128  29.906  58.535  1.00  0.00    -0.083 Cl
HETATM   29  C   UNL     1       8.224  27.655  57.395  1.00  0.00     0.026 A 
HETATM   30  C   UNL     1       7.310  26.876  56.679  1.00  0.00     0.011 A 
ENDBRANCH   6  23
TORSDOF 6
ENDMDL
MODEL 8
REMARK VINA RESULT:      -7.7     14.240     17.155
REMARK  6 active torsions:
REMARK  status: ('A' for Active; 'I' for Inactive)
REMARK    1  A    between atoms: O_2  and  C_3 
REMARK    2  A    between atoms: C_3  and  C_4 
REMARK    3  A    between atoms: C_4  and  N_5 
REMARK       I    between atoms: N_5  and  C_6 
REMARK    4  A    between atoms: C_6  and  C_7 
REMARK    5  A    between atoms: C_12  and  C_13 
REMARK    6  A    between atoms: C_22  and  C_23 
ROOT
HETATM    1  C   UNL     1       5.107  34.927  67.110  1.00  0.00     0.148 A 
HETATM    2  N   UNL     1       5.056  36.043  66.347  1.00  0.00    -0.165 NA
HETATM    3  N   UNL     1       4.510  35.610  65.196  1.00  0.00    -0.240 N 
HETATM    4  C   UNL     1       4.113  34.305  65.225  1.00  0.00     0.123 A 
HETATM    5  N   UNL     1       3.468  33.733  64.191  1.00  0.00    -0.366 N 
HETATM    6  C   UNL     1       3.026  34.473  63.018  1.00  0.00     0.118 C 
HETATM    7  C   UNL     1       3.133  35.998  63.205  1.00  0.00     0.066 C 
HETATM    8  C   UNL     1       4.319  36.484  64.058  1.00  0.00     0.221 C 
HETATM    9  C   UNL     1       4.520  33.818  66.439  1.00  0.00     0.088 A 
HETATM   10  H   UNL     1       3.183  32.755  64.228  1.00  0.00     0.161 HD
ENDROOT
BRANCH   1  11
HETATM   11  C   UNL     1       5.687  34.908  68.462  1.00  0.00     0.272 C 
HETATM   12  N   UNL     1       6.955  35.441  68.536  1.00  0.00    -0.354 N 
HETATM   13  H   UNL     1       7.264  35.949  67.711  1.00  0.00     0.162 HD
HETATM   14  O   UNL     1       5.080  34.472  69.436  1.00  0.00    -0.266 OA
BRANCH  12  15
HETATM   15  C   UNL     1       7.578  35.714  69.813  1.00  0.00     0.149 C 
BRANCH  15  16
HETATM   16  C   UNL     1       8.725  34.753  70.111  1.00  0.00     0.186 C 
BRANCH  16  17
HETATM   17  O   UNL     1       8.537  34.193  71.414  1.00  0.00    -0.394 OA
HETATM   18  C   UNL     1       7.688  33.054  71.375  1.00  0.00     0.201 C 
ENDBRANCH  16  17
ENDBRANCH  15  16
ENDBRANCH  12  15
ENDBRANCH   1  11
BRANCH   8  19
HETATM   19  C   UNL     1       5.611  36.621  63.286  1.00  0.00     0.409 C 
HETATM   20  F   UNL     1       6.439  35.568  63.417  1.00  0.00    -0.169 F 
HETATM   21  F   UNL     1       5.347  36.753  61.960  1.00  0.00    -0.169 F 
HETATM   22  F   UNL     1       6.302  37.727  63.644  1.00  0.00    -0.169 F 
ENDBRANCH   8  19
BRANCH   6  23
HETATM   23  C   UNL     1       3.659  33.932  61.746  1.00  0.00    -0.034 A 
HETATM   24  C   UNL     1       4.872  33.224  61.831  1.00  0.00     0.034 A 
HETATM   25  C   UNL     1       5.518  32.750  60.681  1.00  0.00     0.056 A 
HETATM   26 CL   UNL     1       7.019  31.919  60.890  1.00  0.00    -0.083 Cl
HETATM   27  C   UNL     1       4.951  32.968  59.423  1.00  0.00     0.055 A 
HETATM   28 CL   UNL     1       5.690  32.419  57.962  1.00  0.00    -0.083 Cl
HETATM   29  C   UNL     1       3.744  33.660  59.324  1.00  0.00     0.026 A 
HETATM   30  C   UNL     1       3.110  34.143  60.473  1.00  0.00     0.011 A 
ENDBRANCH   6  23
TORSDOF 6
ENDMDL
MODEL 9
REMARK VINA RESULT:      -7.6      4.572      6.780
REMARK  6 active torsions:
REMARK  status: ('A' for Active; 'I' for Inactive)
REMARK    1  A    between atoms: O_2  and  C_3 
REMARK    2  A    between atoms: C_3  and  C_4 
REMARK    3  A    between atoms: C_4  and  N_5 
REMARK       I    between atoms: N_5  and  C_6 
REMARK    4  A    between atoms: C_6  and  C_7 
REMARK    5  A    between atoms: C_12  and  C_13 
REMARK    6  A    between atoms: C_22  and  C_23 
ROOT
HETATM    1  C   UNL     1       4.687  29.433  56.613  1.00  0.00     0.148 A 
HETATM    2  N   UNL     1       5.603  29.686  55.650  1.00  0.00    -0.165 NA
HETATM    3  N   UNL     1       5.683  28.521  54.982  1.00  0.00    -0.240 N 
HETATM    4  C   UNL     1       4.791  27.577  55.400  1.00  0.00     0.123 A 
HETATM    5  N   UNL     1       4.673  26.386  54.785  1.00  0.00    -0.366 N 
HETATM    6  C   UNL     1       5.381  26.046  53.559  1.00  0.00     0.118 C 
HETATM    7  C   UNL     1       6.055  27.268  52.907  1.00  0.00     0.066 C 
HETATM    8  C   UNL     1       6.605  28.326  53.882  1.00  0.00     0.221 C 
HETATM    9  C   UNL     1       4.153  28.121  56.483  1.00  0.00     0.088 A 
HETATM   10  H   UNL     1       4.005  25.690  55.114  1.00  0.00     0.161 HD
ENDROOT
BRANCH   1  11
HETATM   11  C   UNL     1       4.306  30.423  57.633  1.00  0.00     0.272 C 
HETATM   12  N   UNL     1       5.357  30.867  58.403  1.00  0.00    -0.354 N 
HETATM   13  H   UNL     1       6.283  30.617  58.065  1.00  0.00     0.162 HD
HETATM   14  O   UNL     1       3.153  30.824  57.767  1.00  0.00    -0.266 OA
BRANCH  12  15
HETATM   15  C   UNL     1       5.208  32.002  59.290  1.00  0.00     0.149 C 
BRANCH  15  16
HETATM   16  C   UNL     1       5.296  33.330  58.544  1.00  0.00     0.186 C 
BRANCH  16  17
HETATM   17  O   UNL     1       4.237  34.184  58.988  1.00  0.00    -0.394 OA
HETATM   18  C   UNL     1       3.260  34.374  57.974  1.00  0.00     0.201 C 
ENDBRANCH  16  17
ENDBRANCH  15  16
ENDBRANCH  12  15
ENDBRANCH   1  11
BRANCH   8  19
HETATM   19  C   UNL     1       7.985  28.012  54.411  1.00  0.00     0.409 C 
HETATM   20  F   UNL     1       7.986  27.457  55.637  1.00  0.00    -0.169 F 
HETATM   21  F   UNL     1       8.611  27.137  53.581  1.00  0.00    -0.169 F 
HETATM   22  F   UNL     1       8.771  29.111  54.462  1.00  0.00    -0.169 F 
ENDBRANCH   8  19
BRANCH   6  23
HETATM   23  C   UNL     1       6.282  24.837  53.752  1.00  0.00    -0.034 A 
HETATM   24  C   UNL     1       6.679  24.478  55.053  1.00  0.00     0.034 A 
HETATM   25  C   UNL     1       7.549  23.402  55.276  1.00  0.00     0.056 A 
HETATM   26 CL   UNL     1       8.001  23.061  56.908  1.00  0.00    -0.083 Cl
HETATM   27  C   UNL     1       8.028  22.657  54.195  1.00  0.00     0.055 A 
HETATM   28 CL   UNL     1       9.106  21.323  54.389  1.00  0.00    -0.083 Cl
HETATM   29  C   UNL     1       7.636  22.996  52.899  1.00  0.00     0.026 A 
HETATM   30  C   UNL     1       6.778  24.079  52.682  1.00  0.00     0.011 A 
ENDBRANCH   6  23
TORSDOF 6
ENDMDL
MODEL 10
REMARK VINA RESULT:      -7.5      5.577      8.046
REMARK  6 active torsions:
REMARK  status: ('A' for Active; 'I' for Inactive)
REMARK    1  A    between atoms: O_2  and  C_3 
REMARK    2  A    between atoms: C_3  and  C_4 
REMARK    3  A    between atoms: C_4  and  N_5 
REMARK       I    between atoms: N_5  and  C_6 
REMARK    4  A    between atoms: C_6  and  C_7 
REMARK    5  A    between atoms: C_12  and  C_13 
REMARK    6  A    between atoms: C_22  and  C_23 
ROOT
HETATM    1  C   UNL     1       7.194  29.009  57.876  1.00  0.00     0.148 A 
HETATM    2  N   UNL     1       6.025  28.647  57.299  1.00  0.00    -0.165 NA
HETATM    3  N   UNL     1       6.176  27.326  57.089  1.00  0.00    -0.240 N 
HETATM    4  C   UNL     1       7.332  26.811  57.600  1.00  0.00     0.123 A 
HETATM    5  N   UNL     1       7.604  25.493  57.557  1.00  0.00    -0.366 N 
HETATM    6  C   UNL     1       6.653  24.495  57.089  1.00  0.00     0.118 C 
HETATM    7  C   UNL     1       5.235  25.070  56.907  1.00  0.00     0.066 C 
HETATM    8  C   UNL     1       5.164  26.531  56.426  1.00  0.00     0.221 C 
HETATM    9  C   UNL     1       8.035  27.881  58.084  1.00  0.00     0.088 A 
HETATM   10  H   UNL     1       8.475  25.126  57.939  1.00  0.00     0.161 HD
ENDROOT
BRANCH   1  11
HETATM   11  C   UNL     1       7.506  30.399  58.245  1.00  0.00     0.272 C 
HETATM   12  N   UNL     1       6.486  31.047  58.903  1.00  0.00    -0.354 N 
HETATM   13  H   UNL     1       5.726  30.452  59.225  1.00  0.00     0.162 HD
HETATM   14  O   UNL     1       8.590  30.920  57.998  1.00  0.00    -0.266 OA
BRANCH  12  15
HETATM   15  C   UNL     1       6.702  32.329  59.540  1.00  0.00     0.149 C 
BRANCH  15  16
HETATM   16  C   UNL     1       7.117  32.184  61.001  1.00  0.00     0.186 C 
BRANCH  16  17
HETATM   17  O   UNL     1       8.473  32.616  61.146  1.00  0.00    -0.394 OA
HETATM   18  C   UNL     1       9.335  31.532  61.464  1.00  0.00     0.201 C 
ENDBRANCH  16  17
ENDBRANCH  15  16
ENDBRANCH  12  15
ENDBRANCH   1  11
BRANCH   8  19
HETATM   19  C   UNL     1       5.278  26.688  54.928  1.00  0.00     0.409 C 
HETATM   20  F   UNL     1       6.520  26.987  54.504  1.00  0.00    -0.169 F 
HETATM   21  F   UNL     1       4.918  25.532  54.312  1.00  0.00    -0.169 F 
HETATM   22  F   UNL     1       4.447  27.643  54.453  1.00  0.00    -0.169 F 
ENDBRANCH   8  19
BRANCH   6  23
HETATM   23  C   UNL     1       7.196  23.723  55.898  1.00  0.00    -0.034 A 
HETATM   24  C   UNL     1       7.466  24.409  54.700  1.00  0.00     0.034 A 
HETATM   25  C   UNL     1       7.920  23.731  53.561  1.00  0.00     0.056 A 
HETATM   26 CL   UNL     1       8.194  24.660  52.131  1.00  0.00    -0.083 Cl
HETATM   27  C   UNL     1       8.123  22.349  53.607  1.00  0.00     0.055 A 
HETATM   28 CL   UNL     1       8.675  21.444  52.245  1.00  0.00    -0.083 Cl
HETATM   29  C   UNL     1       7.868  21.656  54.791  1.00  0.00     0.026 A 
HETATM   30  C   UNL     1       7.402  22.336  55.921  1.00  0.00     0.011 A 
ENDBRANCH   6  23
TORSDOF 6
ENDMDL
