MODEL 1
REMARK VINA RESULT:     -11.9      0.000      0.000
REMARK  4 active torsions:
REMARK  status: ('A' for Active; 'I' for Inactive)
REMARK    1  A    between atoms: C_2  and  C_3 
REMARK    2  A    between atoms: N_16  and  C_17 
REMARK    3  A    between atoms: C_17  and  C_18 
REMARK       I    between atoms: C_18  and  N_19 
REMARK    4  A    between atoms: N_19  and  C_20 
ROOT
HETATM    1  C   UNL     1       5.202  26.511  53.351  1.00  0.00     0.054 C 
HETATM    2  C   UNL     1       5.944  26.379  54.684  1.00  0.00     0.140 A 
HETATM    3  N   UNL     1       5.041  26.735  55.759  1.00  0.00    -0.321 N 
HETATM    4  C   UNL     1       5.380  27.913  56.378  1.00  0.00     0.326 A 
HETATM    5  O   UNL     1       4.726  28.417  57.273  1.00  0.00    -0.247 OA
HETATM    6  N   UNL     1       6.516  28.391  55.810  1.00  0.00    -0.259 N 
HETATM    7  C   UNL     1       6.954  27.545  54.833  1.00  0.00     0.261 A 
HETATM    8  O   UNL     1       7.988  27.707  54.193  1.00  0.00    -0.270 OA
HETATM    9  H   UNL     1       4.197  26.238  56.009  1.00  0.00     0.165 HD
ENDROOT
BRANCH   6  10
HETATM   10  C   UNL     1       7.175  29.616  56.211  1.00  0.00     0.240 C 
BRANCH  10  11
HETATM   11  C   UNL     1       7.642  29.533  57.665  1.00  0.00     0.240 C 
HETATM   12  N   UNL     1       7.502  30.727  58.360  1.00  0.00    -0.325 N 
HETATM   13  H   UNL     1       6.996  31.466  57.878  1.00  0.00     0.169 HD
HETATM   14  O   UNL     1       7.984  28.457  58.148  1.00  0.00    -0.271 OA
BRANCH  12  15
HETATM   15  C   UNL     1       7.901  30.996  59.695  1.00  0.00     0.047 A 
HETATM   16  C   UNL     1       7.111  31.865  60.514  1.00  0.00     0.019 A 
HETATM   17  C   UNL     1       7.537  32.147  61.835  1.00  0.00     0.069 A 
HETATM   18  C   UNL     1       5.892  32.471  60.123  1.00  0.00     0.017 A 
HETATM   19  N   UNL     1       6.854  32.937  62.684  1.00  0.00    -0.260 NA
HETATM   20  C   UNL     1       8.712  31.584  62.304  1.00  0.00     0.032 A 
HETATM   21  C   UNL     1       5.700  33.486  62.259  1.00  0.00     0.117 A 
HETATM   22  C   UNL     1       5.180  33.285  61.000  1.00  0.00     0.020 A 
HETATM   23  C   UNL     1       9.486  30.742  61.511  1.00  0.00     0.005 A 
HETATM   24  C   UNL     1       9.080  30.450  60.214  1.00  0.00     0.030 A 
ENDBRANCH  12  15
ENDBRANCH  10  11
ENDBRANCH   6  10
BRANCH   2  25
HETATM   25  C   UNL     1       6.604  25.019  54.872  1.00  0.00    -0.020 A 
HETATM   26  C   UNL     1       6.843  24.141  53.797  1.00  0.00     0.022 A 
HETATM   27  C   UNL     1       7.470  22.894  53.980  1.00  0.00    -0.025 A 
HETATM   28  C   UNL     1       7.865  22.501  55.276  1.00  0.00    -0.026 A 
HETATM   29  C   UNL     1       7.716  22.029  52.900  1.00  0.00     0.012 A 
HETATM   30  C   UNL     1       7.613  23.358  56.354  1.00  0.00     0.013 A 
HETATM   31  C   UNL     1       8.496  21.260  55.460  1.00  0.00     0.012 A 
HETATM   32  C   UNL     1       6.989  24.594  56.155  1.00  0.00     0.011 A 
HETATM   33  C   UNL     1       8.736  20.415  54.376  1.00  0.00     0.001 A 
HETATM   34  C   UNL     1       8.345  20.799  53.097  1.00  0.00     0.001 A 
ENDBRANCH   2  25
TORSDOF 4
ENDMDL
MODEL 2
REMARK VINA RESULT:     -11.9      1.226      2.688
REMARK  4 active torsions:
REMARK  status: ('A' for Active; 'I' for Inactive)
REMARK    1  A    between atoms: C_2  and  C_3 
REMARK    2  A    between atoms: N_16  and  C_17 
REMARK    3  A    between atoms: C_17  and  C_18 
REMARK       I    between atoms: C_18  and  N_19 
REMARK    4  A    between atoms: N_19  and  C_20 
ROOT
HETATM    1  C   UNL     1       4.906  25.342  57.286  1.00  0.00     0.054 C 
HETATM    2  C   UNL     1       6.168  25.790  56.543  1.00  0.00     0.140 A 
HETATM    3  N   UNL     1       7.153  26.221  57.514  1.00  0.00    -0.321 N 
HETATM    4  C   UNL     1       7.383  27.574  57.481  1.00  0.00     0.326 A 
HETATM    5  O   UNL     1       8.137  28.150  58.245  1.00  0.00    -0.247 OA
HETATM    6  N   UNL     1       6.628  28.120  56.493  1.00  0.00    -0.259 N 
HETATM    7  C   UNL     1       5.909  27.152  55.854  1.00  0.00     0.261 A 
HETATM    8  O   UNL     1       5.182  27.360  54.887  1.00  0.00    -0.270 OA
HETATM    9  H   UNL     1       7.591  25.635  58.210  1.00  0.00     0.165 HD
ENDROOT
BRANCH   6  10
HETATM   10  C   UNL     1       6.615  29.529  56.160  1.00  0.00     0.240 C 
BRANCH  10  11
HETATM   11  C   UNL     1       5.872  30.334  57.228  1.00  0.00     0.240 C 
HETATM   12  N   UNL     1       6.704  31.148  57.984  1.00  0.00    -0.325 N 
HETATM   13  H   UNL     1       7.668  31.217  57.668  1.00  0.00     0.169 HD
HETATM   14  O   UNL     1       4.645  30.314  57.281  1.00  0.00    -0.271 OA
BRANCH  12  15
HETATM   15  C   UNL     1       6.337  31.963  59.087  1.00  0.00     0.047 A 
HETATM   16  C   UNL     1       7.063  31.867  60.317  1.00  0.00     0.019 A 
HETATM   17  C   UNL     1       6.667  32.666  61.418  1.00  0.00     0.069 A 
HETATM   18  C   UNL     1       8.191  31.038  60.538  1.00  0.00     0.017 A 
HETATM   19  N   UNL     1       7.297  32.657  62.607  1.00  0.00    -0.260 NA
HETATM   20  C   UNL     1       5.583  33.516  61.284  1.00  0.00     0.032 A 
HETATM   21  C   UNL     1       8.364  31.851  62.760  1.00  0.00     0.117 A 
HETATM   22  C   UNL     1       8.847  31.031  61.766  1.00  0.00     0.020 A 
HETATM   23  C   UNL     1       4.870  33.610  60.093  1.00  0.00     0.005 A 
HETATM   24  C   UNL     1       5.248  32.838  59.000  1.00  0.00     0.030 A 
ENDBRANCH  12  15
ENDBRANCH  10  11
ENDBRANCH   6  10
BRANCH   2  25
HETATM   25  C   UNL     1       6.695  24.743  55.569  1.00  0.00    -0.020 A 
HETATM   26  C   UNL     1       7.064  23.448  55.981  1.00  0.00     0.022 A 
HETATM   27  C   UNL     1       7.532  22.483  55.069  1.00  0.00    -0.025 A 
HETATM   28  C   UNL     1       7.647  22.818  53.703  1.00  0.00    -0.026 A 
HETATM   29  C   UNL     1       7.888  21.189  55.486  1.00  0.00     0.012 A 
HETATM   30  C   UNL     1       7.301  24.110  53.288  1.00  0.00     0.013 A 
HETATM   31  C   UNL     1       8.107  21.855  52.791  1.00  0.00     0.012 A 
HETATM   32  C   UNL     1       6.837  25.057  54.207  1.00  0.00     0.011 A 
HETATM   33  C   UNL     1       8.452  20.574  53.222  1.00  0.00     0.001 A 
HETATM   34  C   UNL     1       8.344  20.241  54.569  1.00  0.00     0.001 A 
ENDBRANCH   2  25
TORSDOF 4
ENDMDL
MODEL 3
REMARK VINA RESULT:     -11.7      1.919      3.380
REMARK  4 active torsions:
REMARK  status: ('A' for Active; 'I' for Inactive)
REMARK    1  A    between atoms: C_2  and  C_3 
REMARK    2  A    between atoms: N_16  and  C_17 
REMARK    3  A    between atoms: C_17  and  C_18 
REMARK       I    between atoms: C_18  and  N_19 
REMARK    4  A    between atoms: N_19  and  C_20 
ROOT
HETATM    1  C   UNL     1       8.104  27.237  53.453  1.00  0.00     0.054 C 
HETATM    2  C   UNL     1       6.964  26.391  54.029  1.00  0.00     0.140 A 
HETATM    3  N   UNL     1       5.744  26.701  53.312  1.00  0.00    -0.321 N 
HETATM    4  C   UNL     1       4.826  27.373  54.080  1.00  0.00     0.326 A 
HETATM    5  O   UNL     1       3.755  27.771  53.658  1.00  0.00    -0.247 OA
HETATM    6  N   UNL     1       5.329  27.518  55.332  1.00  0.00    -0.259 N 
HETATM    7  C   UNL     1       6.562  26.940  55.420  1.00  0.00     0.261 A 
HETATM    8  O   UNL     1       7.222  26.879  56.453  1.00  0.00    -0.270 OA
HETATM    9  H   UNL     1       5.577  26.528  52.330  1.00  0.00     0.165 HD
ENDROOT
BRANCH   6  10
HETATM   10  C   UNL     1       4.634  28.175  56.419  1.00  0.00     0.240 C 
BRANCH  10  11
HETATM   11  C   UNL     1       5.328  29.485  56.796  1.00  0.00     0.240 C 
HETATM   12  N   UNL     1       6.295  29.335  57.780  1.00  0.00    -0.325 N 
HETATM   13  H   UNL     1       6.521  28.379  58.041  1.00  0.00     0.169 HD
HETATM   14  O   UNL     1       5.097  30.515  56.167  1.00  0.00    -0.271 OA
BRANCH  12  15
HETATM   15  C   UNL     1       7.065  30.360  58.392  1.00  0.00     0.047 A 
HETATM   16  C   UNL     1       8.467  30.455  58.122  1.00  0.00     0.019 A 
HETATM   17  C   UNL     1       9.228  31.464  58.762  1.00  0.00     0.069 A 
HETATM   18  C   UNL     1       9.186  29.622  57.230  1.00  0.00     0.017 A 
HETATM   19  N   UNL     1      10.546  31.642  58.560  1.00  0.00    -0.260 NA
HETATM   20  C   UNL     1       8.601  32.332  59.640  1.00  0.00     0.032 A 
HETATM   21  C   UNL     1      11.178  30.822  57.699  1.00  0.00     0.117 A 
HETATM   22  C   UNL     1      10.549  29.807  57.015  1.00  0.00     0.020 A 
HETATM   23  C   UNL     1       7.239  32.242  59.910  1.00  0.00     0.005 A 
HETATM   24  C   UNL     1       6.476  31.260  59.286  1.00  0.00     0.030 A 
ENDBRANCH  12  15
ENDBRANCH  10  11
ENDBRANCH   6  10
BRANCH   2  25
HETATM   25  C   UNL     1       7.282  24.901  54.067  1.00  0.00    -0.020 A 
HETATM   26  C   UNL     1       7.622  24.233  55.259  1.00  0.00     0.022 A 
HETATM   27  C   UNL     1       7.896  22.852  55.286  1.00  0.00    -0.025 A 
HETATM   28  C   UNL     1       7.838  22.111  54.086  1.00  0.00    -0.026 A 
HETATM   29  C   UNL     1       8.224  22.191  56.482  1.00  0.00     0.012 A 
HETATM   30  C   UNL     1       7.520  22.771  52.894  1.00  0.00     0.013 A 
HETATM   31  C   UNL     1       8.104  20.733  54.112  1.00  0.00     0.012 A 
HETATM   32  C   UNL     1       7.250  24.144  52.885  1.00  0.00     0.011 A 
HETATM   33  C   UNL     1       8.424  20.091  55.308  1.00  0.00     0.001 A 
HETATM   34  C   UNL     1       8.486  20.820  56.493  1.00  0.00     0.001 A 
ENDBRANCH   2  25
TORSDOF 4
ENDMDL
MODEL 4
REMARK VINA RESULT:     -11.3      1.791      3.307
REMARK  4 active torsions:
REMARK  status: ('A' for Active; 'I' for Inactive)
REMARK    1  A    between atoms: C_2  and  C_3 
REMARK    2  A    between atoms: N_16  and  C_17 
REMARK    3  A    between atoms: C_17  and  C_18 
REMARK       I    between atoms: C_18  and  N_19 
REMARK    4  A    between atoms: N_19  and  C_20 
ROOT
HETATM    1  C   UNL     1       8.300  26.879  57.041  1.00  0.00     0.054 C 
HETATM    2  C   UNL     1       7.493  26.247  55.902  1.00  0.00     0.140 A 
HETATM    3  N   UNL     1       7.718  27.010  54.692  1.00  0.00    -0.321 N 
HETATM    4  C   UNL     1       6.608  27.707  54.282  1.00  0.00     0.326 A 
HETATM    5  O   UNL     1       6.595  28.449  53.316  1.00  0.00    -0.247 OA
HETATM    6  N   UNL     1       5.587  27.437  55.134  1.00  0.00    -0.259 N 
HETATM    7  C   UNL     1       5.989  26.558  56.098  1.00  0.00     0.261 A 
HETATM    8  O   UNL     1       5.251  26.103  56.966  1.00  0.00    -0.270 OA
HETATM    9  H   UNL     1       8.602  27.108  54.211  1.00  0.00     0.165 HD
ENDROOT
BRANCH   6  10
HETATM   10  C   UNL     1       4.255  27.992  55.012  1.00  0.00     0.240 C 
BRANCH  10  11
HETATM   11  C   UNL     1       4.175  29.367  55.678  1.00  0.00     0.240 C 
HETATM   12  N   UNL     1       4.890  29.448  56.865  1.00  0.00    -0.325 N 
HETATM   13  H   UNL     1       5.478  28.649  57.087  1.00  0.00     0.169 HD
HETATM   14  O   UNL     1       3.620  30.303  55.109  1.00  0.00    -0.271 OA
BRANCH  12  15
HETATM   15  C   UNL     1       4.963  30.555  57.751  1.00  0.00     0.047 A 
HETATM   16  C   UNL     1       6.227  30.959  58.284  1.00  0.00     0.019 A 
HETATM   17  C   UNL     1       6.281  32.049  59.189  1.00  0.00     0.069 A 
HETATM   18  C   UNL     1       7.475  30.369  57.965  1.00  0.00     0.017 A 
HETATM   19  N   UNL     1       7.423  32.511  59.729  1.00  0.00    -0.260 NA
HETATM   20  C   UNL     1       5.108  32.693  59.544  1.00  0.00     0.032 A 
HETATM   21  C   UNL     1       8.580  31.912  59.389  1.00  0.00     0.117 A 
HETATM   22  C   UNL     1       8.659  30.848  58.520  1.00  0.00     0.020 A 
HETATM   23  C   UNL     1       3.875  32.302  59.032  1.00  0.00     0.005 A 
HETATM   24  C   UNL     1       3.805  31.239  58.139  1.00  0.00     0.030 A 
ENDBRANCH  12  15
ENDBRANCH  10  11
ENDBRANCH   6  10
BRANCH   2  25
HETATM   25  C   UNL     1       7.756  24.756  55.736  1.00  0.00    -0.020 A 
HETATM   26  C   UNL     1       7.695  24.114  54.484  1.00  0.00     0.022 A 
HETATM   27  C   UNL     1       7.959  22.738  54.339  1.00  0.00    -0.025 A 
HETATM   28  C   UNL     1       8.284  21.972  55.479  1.00  0.00    -0.026 A 
HETATM   29  C   UNL     1       7.907  22.108  53.084  1.00  0.00     0.012 A 
HETATM   30  C   UNL     1       8.327  22.597  56.730  1.00  0.00     0.013 A 
HETATM   31  C   UNL     1       8.553  20.601  55.336  1.00  0.00     0.012 A 
HETATM   32  C   UNL     1       8.064  23.965  56.856  1.00  0.00     0.011 A 
HETATM   33  C   UNL     1       8.501  19.992  54.082  1.00  0.00     0.001 A 
HETATM   34  C   UNL     1       8.177  20.744  52.957  1.00  0.00     0.001 A 
ENDBRANCH   2  25
TORSDOF 4
ENDMDL
MODEL 5
REMARK VINA RESULT:     -11.2      2.475      8.396
REMARK  4 active torsions:
REMARK  status: ('A' for Active; 'I' for Inactive)
REMARK    1  A    between atoms: C_2  and  C_3 
REMARK    2  A    between atoms: N_16  and  C_17 
REMARK    3  A    between atoms: C_17  and  C_18 
REMARK       I    between atoms: C_18  and  N_19 
REMARK    4  A    between atoms: N_19  and  C_20 
ROOT
HETATM    1  C   UNL     1       3.291  30.782  56.950  1.00  0.00     0.054 C 
HETATM    2  C   UNL     1       4.529  30.333  56.166  1.00  0.00     0.140 A 
HETATM    3  N   UNL     1       4.567  31.045  54.906  1.00  0.00    -0.321 N 
HETATM    4  C   UNL     1       4.332  30.234  53.823  1.00  0.00     0.326 A 
HETATM    5  O   UNL     1       4.271  30.640  52.676  1.00  0.00    -0.247 OA
HETATM    6  N   UNL     1       4.167  28.961  54.262  1.00  0.00    -0.259 N 
HETATM    7  C   UNL     1       4.305  28.902  55.619  1.00  0.00     0.261 A 
HETATM    8  O   UNL     1       4.257  27.865  56.272  1.00  0.00    -0.270 OA
HETATM    9  H   UNL     1       4.675  32.044  54.795  1.00  0.00     0.165 HD
ENDROOT
BRANCH   6  10
HETATM   10  C   UNL     1       3.906  27.828  53.399  1.00  0.00     0.240 C 
BRANCH  10  11
HETATM   11  C   UNL     1       5.171  26.992  53.200  1.00  0.00     0.240 C 
HETATM   12  N   UNL     1       5.191  25.830  53.960  1.00  0.00    -0.325 N 
HETATM   13  H   UNL     1       4.330  25.604  54.450  1.00  0.00     0.169 HD
HETATM   14  O   UNL     1       5.997  27.305  52.346  1.00  0.00    -0.271 OA
BRANCH  12  15
HETATM   15  C   UNL     1       6.243  24.881  54.052  1.00  0.00     0.047 A 
HETATM   16  C   UNL     1       7.087  24.862  55.207  1.00  0.00     0.019 A 
HETATM   17  C   UNL     1       8.151  23.928  55.272  1.00  0.00     0.069 A 
HETATM   18  C   UNL     1       6.942  25.701  56.339  1.00  0.00     0.017 A 
HETATM   19  N   UNL     1       8.986  23.824  56.322  1.00  0.00    -0.260 NA
HETATM   20  C   UNL     1       8.356  23.059  54.214  1.00  0.00     0.032 A 
HETATM   21  C   UNL     1       8.800  24.647  57.372  1.00  0.00     0.117 A 
HETATM   22  C   UNL     1       7.802  25.593  57.429  1.00  0.00     0.020 A 
HETATM   23  C   UNL     1       7.541  23.076  53.086  1.00  0.00     0.005 A 
HETATM   24  C   UNL     1       6.490  23.982  53.008  1.00  0.00     0.030 A 
ENDBRANCH  12  15
ENDBRANCH  10  11
ENDBRANCH   6  10
BRANCH   2  25
HETATM   25  C   UNL     1       5.820  30.448  56.966  1.00  0.00    -0.020 A 
HETATM   26  C   UNL     1       5.957  31.330  58.056  1.00  0.00     0.022 A 
HETATM   27  C   UNL     1       7.150  31.414  58.800  1.00  0.00    -0.025 A 
HETATM   28  C   UNL     1       8.247  30.602  58.443  1.00  0.00    -0.026 A 
HETATM   29  C   UNL     1       7.274  32.289  59.893  1.00  0.00     0.012 A 
HETATM   30  C   UNL     1       8.127  29.737  57.349  1.00  0.00     0.013 A 
HETATM   31  C   UNL     1       9.435  30.680  59.187  1.00  0.00     0.012 A 
HETATM   32  C   UNL     1       6.935  29.665  56.621  1.00  0.00     0.011 A 
HETATM   33  C   UNL     1       9.540  31.550  60.272  1.00  0.00     0.001 A 
HETATM   34  C   UNL     1       8.461  32.355  60.624  1.00  0.00     0.001 A 
ENDBRANCH   2  25
TORSDOF 4
ENDMDL
MODEL 6
REMARK VINA RESULT:     -11.1      1.560      2.664
REMARK  4 active torsions:
REMARK  status: ('A' for Active; 'I' for Inactive)
REMARK    1  A    between atoms: C_2  and  C_3 
REMARK    2  A    between atoms: N_16  and  C_17 
REMARK    3  A    between atoms: C_17  and  C_18 
REMARK       I    between atoms: C_18  and  N_19 
REMARK    4  A    between atoms: N_19  and  C_20 
ROOT
HETATM    1  C   UNL     1       7.721  28.382  54.417  1.00  0.00     0.054 C 
HETATM    2  C   UNL     1       7.429  27.660  55.736  1.00  0.00     0.140 A 
HETATM    3  N   UNL     1       6.167  28.139  56.261  1.00  0.00    -0.321 N 
HETATM    4  C   UNL     1       6.309  28.890  57.402  1.00  0.00     0.326 A 
HETATM    5  O   UNL     1       5.380  29.428  57.977  1.00  0.00    -0.247 OA
HETATM    6  N   UNL     1       7.624  28.931  57.733  1.00  0.00    -0.259 N 
HETATM    7  C   UNL     1       8.364  28.206  56.844  1.00  0.00     0.261 A 
HETATM    8  O   UNL     1       9.574  28.031  56.936  1.00  0.00    -0.270 OA
HETATM    9  H   UNL     1       5.263  28.021  55.824  1.00  0.00     0.165 HD
ENDROOT
BRANCH   6  10
HETATM   10  C   UNL     1       8.154  29.630  58.886  1.00  0.00     0.240 C 
BRANCH  10  11
HETATM   11  C   UNL     1       7.504  31.006  59.034  1.00  0.00     0.240 C 
HETATM   12  N   UNL     1       6.979  31.236  60.298  1.00  0.00    -0.325 N 
HETATM   13  H   UNL     1       7.194  30.537  61.004  1.00  0.00     0.169 HD
HETATM   14  O   UNL     1       7.579  31.831  58.127  1.00  0.00    -0.271 OA
BRANCH  12  15
HETATM   15  C   UNL     1       6.258  32.379  60.735  1.00  0.00     0.047 A 
HETATM   16  C   UNL     1       6.509  32.926  62.033  1.00  0.00     0.019 A 
HETATM   17  C   UNL     1       5.762  34.050  62.467  1.00  0.00     0.069 A 
HETATM   18  C   UNL     1       7.481  32.450  62.947  1.00  0.00     0.017 A 
HETATM   19  N   UNL     1       5.937  34.643  63.661  1.00  0.00    -0.260 NA
HETATM   20  C   UNL     1       4.800  34.589  61.629  1.00  0.00     0.032 A 
HETATM   21  C   UNL     1       6.877  34.149  64.490  1.00  0.00     0.117 A 
HETATM   22  C   UNL     1       7.668  33.065  64.183  1.00  0.00     0.020 A 
HETATM   23  C   UNL     1       4.549  34.058  60.367  1.00  0.00     0.005 A 
HETATM   24  C   UNL     1       5.277  32.959  59.924  1.00  0.00     0.030 A 
ENDBRANCH  12  15
ENDBRANCH  10  11
ENDBRANCH   6  10
BRANCH   2  25
HETATM   25  C   UNL     1       7.500  26.143  55.620  1.00  0.00    -0.020 A 
HETATM   26  C   UNL     1       7.598  25.486  54.378  1.00  0.00     0.022 A 
HETATM   27  C   UNL     1       7.682  24.083  54.283  1.00  0.00    -0.025 A 
HETATM   28  C   UNL     1       7.658  23.306  55.461  1.00  0.00    -0.026 A 
HETATM   29  C   UNL     1       7.792  23.436  53.040  1.00  0.00     0.012 A 
HETATM   30  C   UNL     1       7.540  23.950  56.698  1.00  0.00     0.013 A 
HETATM   31  C   UNL     1       7.748  21.908  55.369  1.00  0.00     0.012 A 
HETATM   32  C   UNL     1       7.459  25.345  56.775  1.00  0.00     0.011 A 
HETATM   33  C   UNL     1       7.860  21.282  54.128  1.00  0.00     0.001 A 
HETATM   34  C   UNL     1       7.881  22.045  52.964  1.00  0.00     0.001 A 
ENDBRANCH   2  25
TORSDOF 4
ENDMDL
MODEL 7
REMARK VINA RESULT:     -10.8      4.893      8.746
REMARK  4 active torsions:
REMARK  status: ('A' for Active; 'I' for Inactive)
REMARK    1  A    between atoms: C_2  and  C_3 
REMARK    2  A    between atoms: N_16  and  C_17 
REMARK    3  A    between atoms: C_17  and  C_18 
REMARK       I    between atoms: C_18  and  N_19 
REMARK    4  A    between atoms: N_19  and  C_20 
ROOT
HETATM    1  C   UNL     1       7.194  25.202  51.635  1.00  0.00     0.054 C 
HETATM    2  C   UNL     1       6.318  26.350  52.146  1.00  0.00     0.140 A 
HETATM    3  N   UNL     1       7.176  27.408  52.637  1.00  0.00    -0.321 N 
HETATM    4  C   UNL     1       7.116  27.559  54.000  1.00  0.00     0.326 A 
HETATM    5  O   UNL     1       7.794  28.358  54.621  1.00  0.00    -0.247 OA
HETATM    6  N   UNL     1       6.217  26.673  54.496  1.00  0.00    -0.259 N 
HETATM    7  C   UNL     1       5.660  25.942  53.487  1.00  0.00     0.261 A 
HETATM    8  O   UNL     1       4.778  25.105  53.648  1.00  0.00    -0.270 OA
HETATM    9  H   UNL     1       7.821  27.951  52.080  1.00  0.00     0.165 HD
ENDROOT
BRANCH   6  10
HETATM   10  C   UNL     1       5.886  26.546  55.901  1.00  0.00     0.240 C 
BRANCH  10  11
HETATM   11  C   UNL     1       6.125  25.117  56.390  1.00  0.00     0.240 C 
HETATM   12  N   UNL     1       7.300  24.557  55.906  1.00  0.00    -0.325 N 
HETATM   13  H   UNL     1       7.919  25.186  55.402  1.00  0.00     0.169 HD
HETATM   14  O   UNL     1       5.380  24.611  57.225  1.00  0.00    -0.271 OA
BRANCH  12  15
HETATM   15  C   UNL     1       7.773  23.235  56.118  1.00  0.00     0.047 A 
HETATM   16  C   UNL     1       7.890  22.334  55.013  1.00  0.00     0.019 A 
HETATM   17  C   UNL     1       8.337  21.010  55.244  1.00  0.00     0.069 A 
HETATM   18  C   UNL     1       7.615  22.658  53.662  1.00  0.00     0.017 A 
HETATM   19  N   UNL     1       8.494  20.097  54.268  1.00  0.00    -0.260 NA
HETATM   20  C   UNL     1       8.643  20.612  56.535  1.00  0.00     0.032 A 
HETATM   21  C   UNL     1       8.218  20.461  53.001  1.00  0.00     0.117 A 
HETATM   22  C   UNL     1       7.781  21.717  52.649  1.00  0.00     0.020 A 
HETATM   23  C   UNL     1       8.526  21.483  57.614  1.00  0.00     0.005 A 
HETATM   24  C   UNL     1       8.095  22.788  57.405  1.00  0.00     0.030 A 
ENDBRANCH  12  15
ENDBRANCH  10  11
ENDBRANCH   6  10
BRANCH   2  25
HETATM   25  C   UNL     1       5.294  26.825  51.123  1.00  0.00    -0.020 A 
HETATM   26  C   UNL     1       4.907  26.038  50.021  1.00  0.00     0.022 A 
HETATM   27  C   UNL     1       3.946  26.480  49.092  1.00  0.00    -0.025 A 
HETATM   28  C   UNL     1       3.355  27.751  49.257  1.00  0.00    -0.026 A 
HETATM   29  C   UNL     1       3.557  25.683  48.001  1.00  0.00     0.012 A 
HETATM   30  C   UNL     1       3.748  28.548  50.339  1.00  0.00     0.013 A 
HETATM   31  C   UNL     1       2.392  28.191  48.336  1.00  0.00     0.012 A 
HETATM   32  C   UNL     1       4.704  28.093  51.254  1.00  0.00     0.011 A 
HETATM   33  C   UNL     1       2.014  27.386  47.261  1.00  0.00     0.001 A 
HETATM   34  C   UNL     1       2.598  26.133  47.093  1.00  0.00     0.001 A 
ENDBRANCH   2  25
TORSDOF 4
ENDMDL
MODEL 8
REMARK VINA RESULT:     -10.7      2.422      9.124
REMARK  4 active torsions:
REMARK  status: ('A' for Active; 'I' for Inactive)
REMARK    1  A    between atoms: C_2  and  C_3 
REMARK    2  A    between atoms: N_16  and  C_17 
REMARK    3  A    between atoms: C_17  and  C_18 
REMARK       I    between atoms: C_18  and  N_19 
REMARK    4  A    between atoms: N_19  and  C_20 
ROOT
HETATM    1  C   UNL     1       3.729  29.310  55.963  1.00  0.00     0.054 C 
HETATM    2  C   UNL     1       5.177  29.015  55.561  1.00  0.00     0.140 A 
HETATM    3  N   UNL     1       5.432  29.610  54.265  1.00  0.00    -0.321 N 
HETATM    4  C   UNL     1       5.603  28.679  53.271  1.00  0.00     0.326 A 
HETATM    5  O   UNL     1       5.779  28.965  52.100  1.00  0.00    -0.247 OA
HETATM    6  N   UNL     1       5.519  27.439  53.818  1.00  0.00    -0.259 N 
HETATM    7  C   UNL     1       5.312  27.525  55.164  1.00  0.00     0.261 A 
HETATM    8  O   UNL     1       5.250  26.556  55.914  1.00  0.00    -0.270 OA
HETATM    9  H   UNL     1       5.419  30.599  54.057  1.00  0.00     0.165 HD
ENDROOT
BRANCH   6  10
HETATM   10  C   UNL     1       5.656  26.207  53.070  1.00  0.00     0.240 C 
BRANCH  10  11
HETATM   11  C   UNL     1       6.812  25.365  53.613  1.00  0.00     0.240 C 
HETATM   12  N   UNL     1       6.400  24.333  54.446  1.00  0.00    -0.325 N 
HETATM   13  H   UNL     1       5.398  24.174  54.496  1.00  0.00     0.169 HD
HETATM   14  O   UNL     1       7.959  25.555  53.218  1.00  0.00    -0.271 OA
BRANCH  12  15
HETATM   15  C   UNL     1       7.225  23.422  55.157  1.00  0.00     0.047 A 
HETATM   16  C   UNL     1       7.728  22.255  54.500  1.00  0.00     0.019 A 
HETATM   17  C   UNL     1       8.526  21.339  55.230  1.00  0.00     0.069 A 
HETATM   18  C   UNL     1       7.516  21.928  53.138  1.00  0.00     0.017 A 
HETATM   19  N   UNL     1       9.056  20.225  54.696  1.00  0.00    -0.260 NA
HETATM   20  C   UNL     1       8.795  21.589  56.565  1.00  0.00     0.032 A 
HETATM   21  C   UNL     1       8.823  19.965  53.395  1.00  0.00     0.117 A 
HETATM   22  C   UNL     1       8.067  20.777  52.581  1.00  0.00     0.020 A 
HETATM   23  C   UNL     1       8.305  22.720  57.210  1.00  0.00     0.005 A 
HETATM   24  C   UNL     1       7.525  23.632  56.507  1.00  0.00     0.030 A 
ENDBRANCH  12  15
ENDBRANCH  10  11
ENDBRANCH   6  10
BRANCH   2  25
HETATM   25  C   UNL     1       6.190  29.422  56.624  1.00  0.00    -0.020 A 
HETATM   26  C   UNL     1       5.993  30.532  57.469  1.00  0.00     0.022 A 
HETATM   27  C   UNL     1       6.927  30.887  58.460  1.00  0.00    -0.025 A 
HETATM   28  C   UNL     1       8.102  30.120  58.612  1.00  0.00    -0.026 A 
HETATM   29  C   UNL     1       6.718  31.990  59.307  1.00  0.00     0.012 A 
HETATM   30  C   UNL     1       8.316  29.028  57.763  1.00  0.00     0.013 A 
HETATM   31  C   UNL     1       9.032  30.469  59.604  1.00  0.00     0.012 A 
HETATM   32  C   UNL     1       7.377  28.687  56.784  1.00  0.00     0.011 A 
HETATM   33  C   UNL     1       8.806  31.564  60.439  1.00  0.00     0.001 A 
HETATM   34  C   UNL     1       7.650  32.325  60.289  1.00  0.00     0.001 A 
ENDBRANCH   2  25
TORSDOF 4
ENDMDL
MODEL 9
REMARK VINA RESULT:     -10.7      1.714      2.877
REMARK  4 active torsions:
REMARK  status: ('A' for Active; 'I' for Inactive)
REMARK    1  A    between atoms: C_2  and  C_3 
REMARK    2  A    between atoms: N_16  and  C_17 
REMARK    3  A    between atoms: C_17  and  C_18 
REMARK       I    between atoms: C_18  and  N_19 
REMARK    4  A    between atoms: N_19  and  C_20 
ROOT
HETATM    1  C   UNL     1       7.449  25.893  58.134  1.00  0.00     0.054 C 
HETATM    2  C   UNL     1       7.462  26.377  56.681  1.00  0.00     0.140 A 
HETATM    3  N   UNL     1       8.493  27.384  56.533  1.00  0.00    -0.321 N 
HETATM    4  C   UNL     1       7.989  28.642  56.314  1.00  0.00     0.326 A 
HETATM    5  O   UNL     1       8.681  29.638  56.210  1.00  0.00    -0.247 OA
HETATM    6  N   UNL     1       6.635  28.563  56.259  1.00  0.00    -0.259 N 
HETATM    7  C   UNL     1       6.225  27.272  56.422  1.00  0.00     0.261 A 
HETATM    8  O   UNL     1       5.054  26.908  56.364  1.00  0.00    -0.270 OA
HETATM    9  H   UNL     1       9.486  27.233  56.648  1.00  0.00     0.165 HD
ENDROOT
BRANCH   6  10
HETATM   10  C   UNL     1       5.761  29.696  56.036  1.00  0.00     0.240 C 
BRANCH  10  11
HETATM   11  C   UNL     1       5.321  30.315  57.363  1.00  0.00     0.240 C 
HETATM   12  N   UNL     1       6.175  31.311  57.818  1.00  0.00    -0.325 N 
HETATM   13  H   UNL     1       6.904  31.601  57.173  1.00  0.00     0.169 HD
HETATM   14  O   UNL     1       4.245  30.007  57.868  1.00  0.00    -0.271 OA
BRANCH  12  15
HETATM   15  C   UNL     1       6.084  32.029  59.040  1.00  0.00     0.047 A 
HETATM   16  C   UNL     1       5.144  33.100  59.169  1.00  0.00     0.019 A 
HETATM   17  C   UNL     1       5.085  33.826  60.384  1.00  0.00     0.069 A 
HETATM   18  C   UNL     1       4.221  33.502  58.172  1.00  0.00     0.017 A 
HETATM   19  N   UNL     1       4.225  34.836  60.606  1.00  0.00    -0.260 NA
HETATM   20  C   UNL     1       5.943  33.489  61.418  1.00  0.00     0.032 A 
HETATM   21  C   UNL     1       3.369  35.175  59.623  1.00  0.00     0.117 A 
HETATM   22  C   UNL     1       3.327  34.544  58.400  1.00  0.00     0.020 A 
HETATM   23  C   UNL     1       6.862  32.452  61.297  1.00  0.00     0.005 A 
HETATM   24  C   UNL     1       6.930  31.725  60.113  1.00  0.00     0.030 A 
ENDBRANCH  12  15
ENDBRANCH  10  11
ENDBRANCH   6  10
BRANCH   2  25
HETATM   25  C   UNL     1       7.574  25.242  55.671  1.00  0.00    -0.020 A 
HETATM   26  C   UNL     1       7.684  23.893  56.061  1.00  0.00     0.022 A 
HETATM   27  C   UNL     1       7.768  22.851  55.119  1.00  0.00    -0.025 A 
HETATM   28  C   UNL     1       7.752  23.159  53.741  1.00  0.00    -0.026 A 
HETATM   29  C   UNL     1       7.867  21.507  55.516  1.00  0.00     0.012 A 
HETATM   30  C   UNL     1       7.662  24.499  53.345  1.00  0.00     0.013 A 
HETATM   31  C   UNL     1       7.829  22.121  52.800  1.00  0.00     0.012 A 
HETATM   32  C   UNL     1       7.579  25.523  54.294  1.00  0.00     0.011 A 
HETATM   33  C   UNL     1       7.922  20.791  53.212  1.00  0.00     0.001 A 
HETATM   34  C   UNL     1       7.942  20.484  54.569  1.00  0.00     0.001 A 
ENDBRANCH   2  25
TORSDOF 4
ENDMDL
MODEL 10
REMARK VINA RESULT:     -10.7      4.196      8.240
REMARK  4 active torsions:
REMARK  status: ('A' for Active; 'I' for Inactive)
REMARK    1  A    between atoms: C_2  and  C_3 
REMARK    2  A    between atoms: N_16  and  C_17 
REMARK    3  A    between atoms: C_17  and  C_18 
REMARK       I    between atoms: C_18  and  N_19 
REMARK    4  A    between atoms: N_19  and  C_20 
ROOT
HETATM    1  C   UNL     1       4.874  29.401  54.541  1.00  0.00     0.054 C 
HETATM    2  C   UNL     1       5.411  27.980  54.349  1.00  0.00     0.140 A 
HETATM    3  N   UNL     1       4.839  27.123  55.368  1.00  0.00    -0.321 N 
HETATM    4  C   UNL     1       5.761  26.699  56.293  1.00  0.00     0.326 A 
HETATM    5  O   UNL     1       5.481  26.012  57.259  1.00  0.00    -0.247 OA
HETATM    6  N   UNL     1       6.979  27.188  55.948  1.00  0.00    -0.259 N 
HETATM    7  C   UNL     1       6.892  27.920  54.799  1.00  0.00     0.261 A 
HETATM    8  O   UNL     1       7.853  28.433  54.235  1.00  0.00    -0.270 OA
HETATM    9  H   UNL     1       3.859  26.899  55.468  1.00  0.00     0.165 HD
ENDROOT
BRANCH   6  10
HETATM   10  C   UNL     1       8.197  26.942  56.692  1.00  0.00     0.240 C 
BRANCH  10  11
HETATM   11  C   UNL     1       8.285  25.478  57.123  1.00  0.00     0.240 C 
HETATM   12  N   UNL     1       8.265  24.586  56.059  1.00  0.00    -0.325 N 
HETATM   13  H   UNL     1       8.325  24.998  55.131  1.00  0.00     0.169 HD
HETATM   14  O   UNL     1       8.478  25.186  58.300  1.00  0.00    -0.271 OA
BRANCH  12  15
HETATM   15  C   UNL     1       8.265  23.168  56.125  1.00  0.00     0.047 A 
HETATM   16  C   UNL     1       8.174  22.398  54.923  1.00  0.00     0.019 A 
HETATM   17  C   UNL     1       8.146  20.984  55.006  1.00  0.00     0.069 A 
HETATM   18  C   UNL     1       8.130  22.933  53.611  1.00  0.00     0.017 A 
HETATM   19  N   UNL     1       8.078  20.177  53.933  1.00  0.00    -0.260 NA
HETATM   20  C   UNL     1       8.200  20.377  56.250  1.00  0.00     0.032 A 
HETATM   21  C   UNL     1       8.040  20.740  52.710  1.00  0.00     0.117 A 
HETATM   22  C   UNL     1       8.064  22.100  52.498  1.00  0.00     0.020 A 
HETATM   23  C   UNL     1       8.284  21.121  57.423  1.00  0.00     0.005 A 
HETATM   24  C   UNL     1       8.318  22.509  57.359  1.00  0.00     0.030 A 
ENDBRANCH  12  15
ENDBRANCH  10  11
ENDBRANCH   6  10
BRANCH   2  25
HETATM   25  C   UNL     1       5.217  27.450  52.934  1.00  0.00    -0.020 A 
HETATM   26  C   UNL     1       5.154  28.300  51.813  1.00  0.00     0.022 A 
HETATM   27  C   UNL     1       4.993  27.797  50.507  1.00  0.00    -0.025 A 
HETATM   28  C   UNL     1       4.882  26.404  50.309  1.00  0.00    -0.026 A 
HETATM   29  C   UNL     1       4.942  28.651  49.392  1.00  0.00     0.012 A 
HETATM   30  C   UNL     1       4.924  25.554  51.420  1.00  0.00     0.013 A 
HETATM   31  C   UNL     1       4.729  25.901  49.008  1.00  0.00     0.012 A 
HETATM   32  C   UNL     1       5.085  26.069  52.711  1.00  0.00     0.011 A 
HETATM   33  C   UNL     1       4.684  26.763  47.911  1.00  0.00     0.001 A 
HETATM   34  C   UNL     1       4.790  28.137  48.104  1.00  0.00     0.001 A 
ENDBRANCH   2  25
TORSDOF 4
ENDMDL
