MODEL 1
REMARK VINA RESULT:     -10.1      0.000      0.000
REMARK  9 active torsions:
REMARK  status: ('A' for Active; 'I' for Inactive)
REMARK    1  A    between atoms: C_2  and  O_3 
REMARK    2  A    between atoms: O_3  and  C_4 
REMARK    3  A    between atoms: C_7  and  C_8 
REMARK       I    between atoms: C_8  and  N_9 
REMARK    4  A    between atoms: N_9  and  C_10 
REMARK    5  A    between atoms: C_10  and  N_11 
REMARK    6  A    between atoms: N_11  and  C_12 
REMARK    7  A    between atoms: C_15  and  N_16 
REMARK    8  A    between atoms: N_19  and  C_21 
REMARK    9  A    between atoms: C_21  and  C_22 
ROOT
HETATM    1  C   UNL     1       6.570  31.524  59.005  1.00  0.00     0.034 A 
HETATM    2  C   UNL     1       5.825  31.159  57.891  1.00  0.00     0.032 A 
HETATM    3  C   UNL     1       6.140  30.004  57.171  1.00  0.00     0.031 A 
HETATM    4  C   UNL     1       7.211  29.174  57.525  1.00  0.00     0.030 A 
HETATM    5  C   UNL     1       8.013  29.611  58.589  1.00  0.00     0.031 A 
HETATM    6  C   UNL     1       7.705  30.778  59.313  1.00  0.00     0.032 A 
ENDROOT
BRANCH   1   7
HETATM    7  N   UNL     1       6.238  32.628  59.817  1.00  0.00    -0.333 N 
HETATM    8  H   UNL     1       7.013  33.230  60.105  1.00  0.00     0.168 HD
BRANCH   7   9
HETATM    9  C   UNL     1       5.064  32.878  60.490  1.00  0.00     0.179 C 
HETATM   10  S   UNL     1       3.488  32.857  59.918  1.00  0.00    -0.040 SA
BRANCH   9  11
HETATM   11  N   UNL     1       5.192  33.150  61.836  1.00  0.00    -0.299 N 
HETATM   12  C   UNL     1       5.977  32.543  62.807  1.00  0.00     0.257 C 
HETATM   13  O   UNL     1       6.603  31.504  62.632  1.00  0.00    -0.267 OA
HETATM   14  H   UNL     1       4.579  33.898  62.130  1.00  0.00     0.171 HD
BRANCH  12  15
HETATM   15  C   UNL     1       5.911  33.207  64.141  1.00  0.00     0.032 A 
HETATM   16  C   UNL     1       7.097  33.492  64.819  1.00  0.00     0.020 A 
HETATM   17  C   UNL     1       7.045  33.995  66.124  1.00  0.00     0.038 A 
HETATM   18  C   UNL     1       5.817  34.210  66.757  1.00  0.00     0.068 A 
HETATM   19  C   UNL     1       4.634  33.997  66.049  1.00  0.00     0.038 A 
HETATM   20  C   UNL     1       4.678  33.500  64.744  1.00  0.00     0.020 A 
BRANCH  18  21
HETATM   21  O   UNL     1       5.890  34.639  68.053  1.00  0.00    -0.352 OA
BRANCH  21  22
HETATM   22  C   UNL     1       7.185  34.583  68.657  1.00  0.00     0.171 C 
HETATM   23  C   UNL     1       7.023  34.771  70.154  1.00  0.00     0.034 C 
ENDBRANCH  21  22
ENDBRANCH  18  21
ENDBRANCH  12  15
ENDBRANCH   9  11
ENDBRANCH   7   9
ENDBRANCH   1   7
BRANCH   4  24
HETATM   24  N   UNL     1       7.448  28.006  56.827  1.00  0.00    -0.378 N 
HETATM   25  C   UNL     1       6.746  27.645  55.594  1.00  0.00     0.150 C 
HETATM   26  C   UNL     1       6.290  26.167  55.687  1.00  0.00     0.255 C 
HETATM   27  N   UNL     1       7.440  25.234  56.084  1.00  0.00    -0.064 N 
HETATM   28  H   UNL     1       8.124  25.240  55.314  1.00  0.00     0.280 HD
HETATM   29  C   UNL     1       8.179  25.730  57.328  1.00  0.00     0.255 C 
HETATM   30  C   UNL     1       8.627  27.187  57.141  1.00  0.00     0.150 C 
BRANCH  27  31
HETATM   31  C   UNL     1       6.991  23.805  56.264  1.00  0.00     0.276 C 
BRANCH  31  32
HETATM   32  C   UNL     1       7.439  22.889  55.166  1.00  0.00     0.006 A 
HETATM   33  C   UNL     1       7.753  21.561  55.465  1.00  0.00     0.124 A 
HETATM   34  F   UNL     1       7.695  21.154  56.742  1.00  0.00    -0.206 F 
HETATM   35  C   UNL     1       8.147  20.665  54.479  1.00  0.00     0.043 A 
HETATM   36  C   UNL     1       8.237  21.102  53.160  1.00  0.00     0.003 A 
HETATM   37  C   UNL     1       7.932  22.427  52.841  1.00  0.00     0.001 A 
HETATM   38  C   UNL     1       7.532  23.319  53.836  1.00  0.00     0.012 A 
ENDBRANCH  31  32
ENDBRANCH  27  31
ENDBRANCH   4  24
TORSDOF 9
ENDMDL
MODEL 2
REMARK VINA RESULT:     -10.0      1.054      1.332
REMARK  9 active torsions:
REMARK  status: ('A' for Active; 'I' for Inactive)
REMARK    1  A    between atoms: C_2  and  O_3 
REMARK    2  A    between atoms: O_3  and  C_4 
REMARK    3  A    between atoms: C_7  and  C_8 
REMARK       I    between atoms: C_8  and  N_9 
REMARK    4  A    between atoms: N_9  and  C_10 
REMARK    5  A    between atoms: C_10  and  N_11 
REMARK    6  A    between atoms: N_11  and  C_12 
REMARK    7  A    between atoms: C_15  and  N_16 
REMARK    8  A    between atoms: N_19  and  C_21 
REMARK    9  A    between atoms: C_21  and  C_22 
ROOT
HETATM    1  C   UNL     1       6.665  31.470  58.937  1.00  0.00     0.034 A 
HETATM    2  C   UNL     1       5.997  31.162  57.759  1.00  0.00     0.032 A 
HETATM    3  C   UNL     1       6.369  30.051  56.999  1.00  0.00     0.031 A 
HETATM    4  C   UNL     1       7.424  29.210  57.374  1.00  0.00     0.030 A 
HETATM    5  C   UNL     1       8.152  29.594  58.510  1.00  0.00     0.031 A 
HETATM    6  C   UNL     1       7.787  30.716  59.276  1.00  0.00     0.032 A 
ENDROOT
BRANCH   1   7
HETATM    7  N   UNL     1       6.271  32.525  59.785  1.00  0.00    -0.333 N 
HETATM    8  H   UNL     1       7.007  33.169  60.082  1.00  0.00     0.168 HD
BRANCH   7   9
HETATM    9  C   UNL     1       5.091  32.675  60.479  1.00  0.00     0.179 C 
HETATM   10  S   UNL     1       3.513  32.503  59.939  1.00  0.00    -0.040 SA
BRANCH   9  11
HETATM   11  N   UNL     1       5.219  32.974  61.819  1.00  0.00    -0.299 N 
HETATM   12  C   UNL     1       6.130  32.516  62.762  1.00  0.00     0.257 C 
HETATM   13  O   UNL     1       6.917  31.598  62.565  1.00  0.00    -0.267 OA
HETATM   14  H   UNL     1       4.498  33.609  62.134  1.00  0.00     0.171 HD
BRANCH  12  15
HETATM   15  C   UNL     1       5.999  33.169  64.096  1.00  0.00     0.032 A 
HETATM   16  C   UNL     1       7.151  33.441  64.837  1.00  0.00     0.020 A 
HETATM   17  C   UNL     1       7.035  33.932  66.142  1.00  0.00     0.038 A 
HETATM   18  C   UNL     1       5.777  34.149  66.713  1.00  0.00     0.068 A 
HETATM   19  C   UNL     1       4.631  33.950  65.944  1.00  0.00     0.038 A 
HETATM   20  C   UNL     1       4.739  33.464  64.638  1.00  0.00     0.020 A 
BRANCH  18  21
HETATM   21  O   UNL     1       5.786  34.566  68.015  1.00  0.00    -0.352 OA
BRANCH  21  22
HETATM   22  C   UNL     1       7.076  34.705  68.618  1.00  0.00     0.171 C 
HETATM   23  C   UNL     1       6.896  34.777  70.122  1.00  0.00     0.034 C 
ENDBRANCH  21  22
ENDBRANCH  18  21
ENDBRANCH  12  15
ENDBRANCH   9  11
ENDBRANCH   7   9
ENDBRANCH   1   7
BRANCH   4  24
HETATM   24  N   UNL     1       7.717  28.085  56.630  1.00  0.00    -0.378 N 
HETATM   25  C   UNL     1       7.975  28.114  55.189  1.00  0.00     0.150 C 
HETATM   26  C   UNL     1       7.174  26.975  54.510  1.00  0.00     0.255 C 
HETATM   27  N   UNL     1       7.409  25.620  55.191  1.00  0.00    -0.064 N 
HETATM   28  H   UNL     1       8.394  25.364  55.038  1.00  0.00     0.280 HD
HETATM   29  C   UNL     1       7.208  25.697  56.705  1.00  0.00     0.255 C 
HETATM   30  C   UNL     1       8.062  26.825  57.304  1.00  0.00     0.150 C 
BRANCH  27  31
HETATM   31  C   UNL     1       6.568  24.519  54.596  1.00  0.00     0.276 C 
BRANCH  31  32
HETATM   32  C   UNL     1       7.274  23.200  54.512  1.00  0.00     0.006 A 
HETATM   33  C   UNL     1       7.846  22.802  53.300  1.00  0.00     0.124 A 
HETATM   34  F   UNL     1       7.701  23.594  52.227  1.00  0.00    -0.206 F 
HETATM   35  C   UNL     1       8.534  21.603  53.178  1.00  0.00     0.043 A 
HETATM   36  C   UNL     1       8.654  20.771  54.288  1.00  0.00     0.003 A 
HETATM   37  C   UNL     1       8.085  21.147  55.507  1.00  0.00     0.001 A 
HETATM   38  C   UNL     1       7.400  22.357  55.623  1.00  0.00     0.012 A 
ENDBRANCH  31  32
ENDBRANCH  27  31
ENDBRANCH   4  24
TORSDOF 9
ENDMDL
MODEL 3
REMARK VINA RESULT:      -9.9      2.110      3.133
REMARK  9 active torsions:
REMARK  status: ('A' for Active; 'I' for Inactive)
REMARK    1  A    between atoms: C_2  and  O_3 
REMARK    2  A    between atoms: O_3  and  C_4 
REMARK    3  A    between atoms: C_7  and  C_8 
REMARK       I    between atoms: C_8  and  N_9 
REMARK    4  A    between atoms: N_9  and  C_10 
REMARK    5  A    between atoms: C_10  and  N_11 
REMARK    6  A    between atoms: N_11  and  C_12 
REMARK    7  A    between atoms: C_15  and  N_16 
REMARK    8  A    between atoms: N_19  and  C_21 
REMARK    9  A    between atoms: C_21  and  C_22 
ROOT
HETATM    1  C   UNL     1       6.347  29.731  57.469  1.00  0.00     0.034 A 
HETATM    2  C   UNL     1       6.988  28.510  57.642  1.00  0.00     0.032 A 
HETATM    3  C   UNL     1       6.935  27.531  56.648  1.00  0.00     0.031 A 
HETATM    4  C   UNL     1       6.236  27.723  55.449  1.00  0.00     0.030 A 
HETATM    5  C   UNL     1       5.512  28.918  55.335  1.00  0.00     0.031 A 
HETATM    6  C   UNL     1       5.555  29.905  56.336  1.00  0.00     0.032 A 
ENDROOT
BRANCH   1   7
HETATM    7  N   UNL     1       6.445  30.783  58.402  1.00  0.00    -0.333 N 
HETATM    8  H   UNL     1       5.702  31.485  58.377  1.00  0.00     0.168 HD
BRANCH   7   9
HETATM    9  C   UNL     1       7.525  31.149  59.175  1.00  0.00     0.179 C 
HETATM   10  S   UNL     1       9.153  31.177  58.779  1.00  0.00    -0.040 SA
BRANCH   9  11
HETATM   11  N   UNL     1       7.227  31.591  60.447  1.00  0.00    -0.299 N 
HETATM   12  C   UNL     1       7.821  31.295  61.667  1.00  0.00     0.257 C 
HETATM   13  O   UNL     1       8.661  30.418  61.825  1.00  0.00    -0.267 OA
HETATM   14  H   UNL     1       6.423  32.205  60.454  1.00  0.00     0.171 HD
BRANCH  12  15
HETATM   15  C   UNL     1       7.267  32.070  62.814  1.00  0.00     0.032 A 
HETATM   16  C   UNL     1       5.886  32.093  63.017  1.00  0.00     0.020 A 
HETATM   17  C   UNL     1       5.345  32.920  64.009  1.00  0.00     0.038 A 
HETATM   18  C   UNL     1       6.175  33.726  64.795  1.00  0.00     0.068 A 
HETATM   19  C   UNL     1       7.558  33.643  64.642  1.00  0.00     0.038 A 
HETATM   20  C   UNL     1       8.105  32.816  63.656  1.00  0.00     0.020 A 
BRANCH  18  21
HETATM   21  O   UNL     1       5.531  34.541  65.684  1.00  0.00    -0.352 OA
BRANCH  21  22
HETATM   22  C   UNL     1       4.335  34.012  66.263  1.00  0.00     0.171 C 
HETATM   23  C   UNL     1       4.475  34.056  67.773  1.00  0.00     0.034 C 
ENDBRANCH  21  22
ENDBRANCH  18  21
ENDBRANCH  12  15
ENDBRANCH   9  11
ENDBRANCH   7   9
ENDBRANCH   1   7
BRANCH   4  24
HETATM   24  N   UNL     1       6.263  26.756  54.464  1.00  0.00    -0.378 N 
HETATM   25  C   UNL     1       5.338  25.622  54.419  1.00  0.00     0.150 C 
HETATM   26  C   UNL     1       6.140  24.326  54.137  1.00  0.00     0.255 C 
HETATM   27  N   UNL     1       7.058  24.472  52.917  1.00  0.00    -0.064 N 
HETATM   28  H   UNL     1       6.458  24.584  52.088  1.00  0.00     0.280 HD
HETATM   29  C   UNL     1       7.927  25.729  52.999  1.00  0.00     0.255 C 
HETATM   30  C   UNL     1       7.055  26.969  53.244  1.00  0.00     0.150 C 
BRANCH  27  31
HETATM   31  C   UNL     1       7.910  23.249  52.684  1.00  0.00     0.276 C 
BRANCH  31  32
HETATM   32  C   UNL     1       8.133  22.426  53.916  1.00  0.00     0.006 A 
HETATM   33  C   UNL     1       7.891  21.050  53.876  1.00  0.00     0.124 A 
HETATM   34  F   UNL     1       7.413  20.510  52.745  1.00  0.00    -0.206 F 
HETATM   35  C   UNL     1       8.109  20.240  54.982  1.00  0.00     0.043 A 
HETATM   36  C   UNL     1       8.574  20.811  56.163  1.00  0.00     0.003 A 
HETATM   37  C   UNL     1       8.818  22.185  56.226  1.00  0.00     0.001 A 
HETATM   38  C   UNL     1       8.602  22.992  55.108  1.00  0.00     0.012 A 
ENDBRANCH  31  32
ENDBRANCH  27  31
ENDBRANCH   4  24
TORSDOF 9
ENDMDL
MODEL 4
REMARK VINA RESULT:      -9.7      1.082      1.370
REMARK  9 active torsions:
REMARK  status: ('A' for Active; 'I' for Inactive)
REMARK    1  A    between atoms: C_2  and  O_3 
REMARK    2  A    between atoms: O_3  and  C_4 
REMARK    3  A    between atoms: C_7  and  C_8 
REMARK       I    between atoms: C_8  and  N_9 
REMARK    4  A    between atoms: N_9  and  C_10 
REMARK    5  A    between atoms: C_10  and  N_11 
REMARK    6  A    between atoms: N_11  and  C_12 
REMARK    7  A    between atoms: C_15  and  N_16 
REMARK    8  A    between atoms: N_19  and  C_21 
REMARK    9  A    between atoms: C_21  and  C_22 
ROOT
HETATM    1  C   UNL     1       5.745  32.224  59.140  1.00  0.00     0.034 A 
HETATM    2  C   UNL     1       7.003  31.649  59.267  1.00  0.00     0.032 A 
HETATM    3  C   UNL     1       7.328  30.486  58.567  1.00  0.00     0.031 A 
HETATM    4  C   UNL     1       6.414  29.844  57.721  1.00  0.00     0.030 A 
HETATM    5  C   UNL     1       5.119  30.380  57.684  1.00  0.00     0.031 A 
HETATM    6  C   UNL     1       4.783  31.548  58.393  1.00  0.00     0.032 A 
ENDROOT
BRANCH   1   7
HETATM    7  N   UNL     1       5.398  33.445  59.754  1.00  0.00    -0.333 N 
HETATM    8  H   UNL     1       6.098  34.188  59.717  1.00  0.00     0.168 HD
BRANCH   7   9
HETATM    9  C   UNL     1       4.357  33.708  60.617  1.00  0.00     0.179 C 
HETATM   10  S   UNL     1       2.721  33.866  60.289  1.00  0.00    -0.040 SA
BRANCH   9  11
HETATM   11  N   UNL     1       4.698  33.823  61.948  1.00  0.00    -0.299 N 
HETATM   12  C   UNL     1       4.807  32.855  62.938  1.00  0.00     0.257 C 
HETATM   13  O   UNL     1       4.444  31.693  62.803  1.00  0.00    -0.267 OA
HETATM   14  H   UNL     1       4.860  34.785  62.214  1.00  0.00     0.171 HD
BRANCH  12  15
HETATM   15  C   UNL     1       5.311  33.375  64.241  1.00  0.00     0.032 A 
HETATM   16  C   UNL     1       6.689  33.475  64.448  1.00  0.00     0.020 A 
HETATM   17  C   UNL     1       7.175  33.838  65.709  1.00  0.00     0.038 A 
HETATM   18  C   UNL     1       6.295  34.098  66.765  1.00  0.00     0.068 A 
HETATM   19  C   UNL     1       4.920  34.072  66.534  1.00  0.00     0.038 A 
HETATM   20  C   UNL     1       4.428  33.716  65.276  1.00  0.00     0.020 A 
BRANCH  18  21
HETATM   21  O   UNL     1       6.885  34.377  67.966  1.00  0.00    -0.352 OA
BRANCH  21  22
HETATM   22  C   UNL     1       6.060  34.207  69.121  1.00  0.00     0.171 C 
HETATM   23  C   UNL     1       6.567  35.132  70.211  1.00  0.00     0.034 C 
ENDBRANCH  21  22
ENDBRANCH  18  21
ENDBRANCH  12  15
ENDBRANCH   9  11
ENDBRANCH   7   9
ENDBRANCH   1   7
BRANCH   4  24
HETATM   24  N   UNL     1       6.796  28.734  56.995  1.00  0.00    -0.378 N 
HETATM   25  C   UNL     1       6.364  28.479  55.620  1.00  0.00     0.150 C 
HETATM   26  C   UNL     1       5.908  27.003  55.500  1.00  0.00     0.255 C 
HETATM   27  N   UNL     1       6.960  26.029  56.048  1.00  0.00    -0.064 N 
HETATM   28  H   UNL     1       7.786  26.090  55.437  1.00  0.00     0.280 HD
HETATM   29  C   UNL     1       7.425  26.418  57.452  1.00  0.00     0.255 C 
HETATM   30  C   UNL     1       7.892  27.881  57.477  1.00  0.00     0.150 C 
BRANCH  27  31
HETATM   31  C   UNL     1       6.492  24.595  56.018  1.00  0.00     0.276 C 
BRANCH  31  32
HETATM   32  C   UNL     1       7.342  23.702  55.166  1.00  0.00     0.006 A 
HETATM   33  C   UNL     1       8.396  22.994  55.750  1.00  0.00     0.124 A 
HETATM   34  F   UNL     1       8.651  23.175  57.055  1.00  0.00    -0.206 F 
HETATM   35  C   UNL     1       9.194  22.133  55.010  1.00  0.00     0.043 A 
HETATM   36  C   UNL     1       8.944  21.974  53.649  1.00  0.00     0.003 A 
HETATM   37  C   UNL     1       7.899  22.676  53.045  1.00  0.00     0.001 A 
HETATM   38  C   UNL     1       7.097  23.535  53.797  1.00  0.00     0.012 A 
ENDBRANCH  31  32
ENDBRANCH  27  31
ENDBRANCH   4  24
TORSDOF 9
ENDMDL
MODEL 5
REMARK VINA RESULT:      -9.4      2.004      2.561
REMARK  9 active torsions:
REMARK  status: ('A' for Active; 'I' for Inactive)
REMARK    1  A    between atoms: C_2  and  O_3 
REMARK    2  A    between atoms: O_3  and  C_4 
REMARK    3  A    between atoms: C_7  and  C_8 
REMARK       I    between atoms: C_8  and  N_9 
REMARK    4  A    between atoms: N_9  and  C_10 
REMARK    5  A    between atoms: C_10  and  N_11 
REMARK    6  A    between atoms: N_11  and  C_12 
REMARK    7  A    between atoms: C_15  and  N_16 
REMARK    8  A    between atoms: N_19  and  C_21 
REMARK    9  A    between atoms: C_21  and  C_22 
ROOT
HETATM    1  C   UNL     1       7.526  31.051  58.780  1.00  0.00     0.034 A 
HETATM    2  C   UNL     1       8.479  30.243  58.174  1.00  0.00     0.032 A 
HETATM    3  C   UNL     1       8.169  29.518  57.021  1.00  0.00     0.031 A 
HETATM    4  C   UNL     1       6.899  29.560  56.433  1.00  0.00     0.030 A 
HETATM    5  C   UNL     1       5.922  30.299  57.114  1.00  0.00     0.031 A 
HETATM    6  C   UNL     1       6.225  31.026  58.280  1.00  0.00     0.032 A 
ENDROOT
BRANCH   1   7
HETATM    7  N   UNL     1       7.814  31.872  59.890  1.00  0.00    -0.333 N 
HETATM    8  H   UNL     1       7.814  32.880  59.723  1.00  0.00     0.168 HD
BRANCH   7   9
HETATM    9  C   UNL     1       8.344  31.513  61.109  1.00  0.00     0.179 C 
HETATM   10  S   UNL     1       9.623  30.485  61.449  1.00  0.00    -0.040 SA
BRANCH   9  11
HETATM   11  N   UNL     1       7.769  32.111  62.211  1.00  0.00    -0.299 N 
HETATM   12  C   UNL     1       6.462  32.526  62.432  1.00  0.00     0.257 C 
HETATM   13  O   UNL     1       5.598  32.563  61.563  1.00  0.00    -0.267 OA
HETATM   14  H   UNL     1       8.445  32.285  62.942  1.00  0.00     0.171 HD
BRANCH  12  15
HETATM   15  C   UNL     1       6.213  33.036  63.811  1.00  0.00     0.032 A 
HETATM   16  C   UNL     1       4.900  33.256  64.229  1.00  0.00     0.020 A 
HETATM   17  C   UNL     1       4.660  33.856  65.471  1.00  0.00     0.038 A 
HETATM   18  C   UNL     1       5.723  34.240  66.294  1.00  0.00     0.068 A 
HETATM   19  C   UNL     1       7.031  33.949  65.908  1.00  0.00     0.038 A 
HETATM   20  C   UNL     1       7.277  33.346  64.671  1.00  0.00     0.020 A 
BRANCH  18  21
HETATM   21  O   UNL     1       5.370  34.877  67.452  1.00  0.00    -0.352 OA
BRANCH  21  22
HETATM   22  C   UNL     1       5.991  34.394  68.645  1.00  0.00     0.171 C 
HETATM   23  C   UNL     1       6.901  35.481  69.185  1.00  0.00     0.034 C 
ENDBRANCH  21  22
ENDBRANCH  18  21
ENDBRANCH  12  15
ENDBRANCH   9  11
ENDBRANCH   7   9
ENDBRANCH   1   7
BRANCH   4  24
HETATM   24  N   UNL     1       6.653  28.880  55.257  1.00  0.00    -0.378 N 
HETATM   25  C   UNL     1       5.371  28.924  54.551  1.00  0.00     0.150 C 
HETATM   26  C   UNL     1       4.966  27.483  54.149  1.00  0.00     0.255 C 
HETATM   27  N   UNL     1       6.096  26.753  53.412  1.00  0.00    -0.064 N 
HETATM   28  H   UNL     1       6.243  27.235  52.514  1.00  0.00     0.280 HD
HETATM   29  C   UNL     1       7.422  26.832  54.171  1.00  0.00     0.255 C 
HETATM   30  C   UNL     1       7.766  28.292  54.500  1.00  0.00     0.150 C 
BRANCH  27  31
HETATM   31  C   UNL     1       5.748  25.320  53.092  1.00  0.00     0.276 C 
BRANCH  31  32
HETATM   32  C   UNL     1       6.712  24.325  53.661  1.00  0.00     0.006 A 
HETATM   33  C   UNL     1       6.648  24.006  55.021  1.00  0.00     0.124 A 
HETATM   34  F   UNL     1       5.755  24.643  55.793  1.00  0.00    -0.206 F 
HETATM   35  C   UNL     1       7.501  23.070  55.591  1.00  0.00     0.043 A 
HETATM   36  C   UNL     1       8.447  22.435  54.790  1.00  0.00     0.003 A 
HETATM   37  C   UNL     1       8.531  22.743  53.431  1.00  0.00     0.001 A 
HETATM   38  C   UNL     1       7.667  23.681  52.865  1.00  0.00     0.012 A 
ENDBRANCH  31  32
ENDBRANCH  27  31
ENDBRANCH   4  24
TORSDOF 9
ENDMDL
MODEL 6
REMARK VINA RESULT:      -9.1      2.435      3.375
REMARK  9 active torsions:
REMARK  status: ('A' for Active; 'I' for Inactive)
REMARK    1  A    between atoms: C_2  and  O_3 
REMARK    2  A    between atoms: O_3  and  C_4 
REMARK    3  A    between atoms: C_7  and  C_8 
REMARK       I    between atoms: C_8  and  N_9 
REMARK    4  A    between atoms: N_9  and  C_10 
REMARK    5  A    between atoms: C_10  and  N_11 
REMARK    6  A    between atoms: N_11  and  C_12 
REMARK    7  A    between atoms: C_15  and  N_16 
REMARK    8  A    between atoms: N_19  and  C_21 
REMARK    9  A    between atoms: C_21  and  C_22 
ROOT
HETATM    1  C   UNL     1       3.897  31.089  56.863  1.00  0.00     0.034 A 
HETATM    2  C   UNL     1       3.558  30.480  55.661  1.00  0.00     0.032 A 
HETATM    3  C   UNL     1       4.028  29.201  55.353  1.00  0.00     0.031 A 
HETATM    4  C   UNL     1       4.859  28.483  56.223  1.00  0.00     0.030 A 
HETATM    5  C   UNL     1       5.273  29.152  57.383  1.00  0.00     0.031 A 
HETATM    6  C   UNL     1       4.809  30.443  57.695  1.00  0.00     0.032 A 
ENDROOT
BRANCH   1   7
HETATM    7  N   UNL     1       3.376  32.337  57.259  1.00  0.00    -0.333 N 
HETATM    8  H   UNL     1       2.362  32.449  57.194  1.00  0.00     0.168 HD
BRANCH   7   9
HETATM    9  C   UNL     1       4.049  33.517  57.482  1.00  0.00     0.179 C 
HETATM   10  S   UNL     1       4.663  34.615  56.374  1.00  0.00    -0.040 SA
BRANCH   9  11
HETATM   11  N   UNL     1       4.213  33.871  58.805  1.00  0.00    -0.299 N 
HETATM   12  C   UNL     1       3.271  34.135  59.791  1.00  0.00     0.257 C 
HETATM   13  O   UNL     1       2.070  34.249  59.579  1.00  0.00    -0.267 OA
HETATM   14  H   UNL     1       5.188  33.973  59.051  1.00  0.00     0.171 HD
BRANCH  12  15
HETATM   15  C   UNL     1       3.858  34.382  61.139  1.00  0.00     0.032 A 
HETATM   16  C   UNL     1       4.735  35.455  61.314  1.00  0.00     0.020 A 
HETATM   17  C   UNL     1       5.392  35.620  62.539  1.00  0.00     0.038 A 
HETATM   18  C   UNL     1       5.183  34.718  63.587  1.00  0.00     0.068 A 
HETATM   19  C   UNL     1       4.250  33.693  63.435  1.00  0.00     0.038 A 
HETATM   20  C   UNL     1       3.586  33.525  62.216  1.00  0.00     0.020 A 
BRANCH  18  21
HETATM   21  O   UNL     1       5.930  34.940  64.711  1.00  0.00    -0.352 OA
BRANCH  21  22
HETATM   22  C   UNL     1       6.453  33.774  65.353  1.00  0.00     0.171 C 
HETATM   23  C   UNL     1       7.606  33.246  64.520  1.00  0.00     0.034 C 
ENDBRANCH  21  22
ENDBRANCH  18  21
ENDBRANCH  12  15
ENDBRANCH   9  11
ENDBRANCH   7   9
ENDBRANCH   1   7
BRANCH   4  24
HETATM   24  N   UNL     1       5.248  27.196  55.910  1.00  0.00    -0.378 N 
HETATM   25  C   UNL     1       5.079  26.058  56.816  1.00  0.00     0.150 C 
HETATM   26  C   UNL     1       6.395  25.241  56.852  1.00  0.00     0.255 C 
HETATM   27  N   UNL     1       6.893  24.890  55.445  1.00  0.00    -0.064 N 
HETATM   28  H   UNL     1       6.208  24.247  55.025  1.00  0.00     0.280 HD
HETATM   29  C   UNL     1       6.955  26.118  54.535  1.00  0.00     0.255 C 
HETATM   30  C   UNL     1       5.605  26.849  54.527  1.00  0.00     0.150 C 
BRANCH  27  31
HETATM   31  C   UNL     1       8.220  24.171  55.462  1.00  0.00     0.276 C 
BRANCH  31  32
HETATM   32  C   UNL     1       8.161  22.783  54.900  1.00  0.00     0.006 A 
HETATM   33  C   UNL     1       8.202  22.600  53.515  1.00  0.00     0.124 A 
HETATM   34  F   UNL     1       8.240  23.681  52.722  1.00  0.00    -0.206 F 
HETATM   35  C   UNL     1       8.178  21.334  52.946  1.00  0.00     0.043 A 
HETATM   36  C   UNL     1       8.106  20.217  53.775  1.00  0.00     0.003 A 
HETATM   37  C   UNL     1       8.059  20.378  55.161  1.00  0.00     0.001 A 
HETATM   38  C   UNL     1       8.088  21.654  55.725  1.00  0.00     0.012 A 
ENDBRANCH  31  32
ENDBRANCH  27  31
ENDBRANCH   4  24
TORSDOF 9
ENDMDL
MODEL 7
REMARK VINA RESULT:      -9.1      1.870      2.534
REMARK  9 active torsions:
REMARK  status: ('A' for Active; 'I' for Inactive)
REMARK    1  A    between atoms: C_2  and  O_3 
REMARK    2  A    between atoms: O_3  and  C_4 
REMARK    3  A    between atoms: C_7  and  C_8 
REMARK       I    between atoms: C_8  and  N_9 
REMARK    4  A    between atoms: N_9  and  C_10 
REMARK    5  A    between atoms: C_10  and  N_11 
REMARK    6  A    between atoms: N_11  and  C_12 
REMARK    7  A    between atoms: C_15  and  N_16 
REMARK    8  A    between atoms: N_19  and  C_21 
REMARK    9  A    between atoms: C_21  and  C_22 
ROOT
HETATM    1  C   UNL     1       4.333  31.060  57.494  1.00  0.00     0.034 A 
HETATM    2  C   UNL     1       5.668  30.874  57.831  1.00  0.00     0.032 A 
HETATM    3  C   UNL     1       6.361  29.743  57.393  1.00  0.00     0.031 A 
HETATM    4  C   UNL     1       5.753  28.751  56.613  1.00  0.00     0.030 A 
HETATM    5  C   UNL     1       4.381  28.905  56.369  1.00  0.00     0.031 A 
HETATM    6  C   UNL     1       3.675  30.038  56.813  1.00  0.00     0.032 A 
ENDROOT
BRANCH   1   7
HETATM    7  N   UNL     1       3.616  32.226  57.834  1.00  0.00    -0.333 N 
HETATM    8  H   UNL     1       2.631  32.249  57.561  1.00  0.00     0.168 HD
BRANCH   7   9
HETATM    9  C   UNL     1       4.103  33.443  58.254  1.00  0.00     0.179 C 
HETATM   10  S   UNL     1       4.610  34.755  57.341  1.00  0.00    -0.040 SA
BRANCH   9  11
HETATM   11  N   UNL     1       4.148  33.630  59.619  1.00  0.00    -0.299 N 
HETATM   12  C   UNL     1       3.124  33.683  60.556  1.00  0.00     0.257 C 
HETATM   13  O   UNL     1       1.934  33.726  60.270  1.00  0.00    -0.267 OA
HETATM   14  H   UNL     1       5.092  33.777  59.949  1.00  0.00     0.171 HD
BRANCH  12  15
HETATM   15  C   UNL     1       3.599  33.796  61.965  1.00  0.00     0.032 A 
HETATM   16  C   UNL     1       4.841  33.261  62.310  1.00  0.00     0.020 A 
HETATM   17  C   UNL     1       5.240  33.245  63.652  1.00  0.00     0.038 A 
HETATM   18  C   UNL     1       4.404  33.756  64.650  1.00  0.00     0.068 A 
HETATM   19  C   UNL     1       3.198  34.359  64.294  1.00  0.00     0.038 A 
HETATM   20  C   UNL     1       2.796  34.382  62.955  1.00  0.00     0.020 A 
BRANCH  18  21
HETATM   21  O   UNL     1       4.869  33.625  65.930  1.00  0.00    -0.352 OA
BRANCH  21  22
HETATM   22  C   UNL     1       4.180  34.386  66.925  1.00  0.00     0.171 C 
HETATM   23  C   UNL     1       4.968  35.656  67.186  1.00  0.00     0.034 C 
ENDBRANCH  21  22
ENDBRANCH  18  21
ENDBRANCH  12  15
ENDBRANCH   9  11
ENDBRANCH   7   9
ENDBRANCH   1   7
BRANCH   4  24
HETATM   24  N   UNL     1       6.491  27.682  56.147  1.00  0.00    -0.378 N 
HETATM   25  C   UNL     1       6.094  26.865  54.999  1.00  0.00     0.150 C 
HETATM   26  C   UNL     1       6.258  25.367  55.363  1.00  0.00     0.255 C 
HETATM   27  N   UNL     1       7.649  25.064  55.933  1.00  0.00    -0.064 N 
HETATM   28  H   UNL     1       8.334  25.218  55.180  1.00  0.00     0.280 HD
HETATM   29  C   UNL     1       8.025  26.019  57.068  1.00  0.00     0.255 C 
HETATM   30  C   UNL     1       7.869  27.478  56.615  1.00  0.00     0.150 C 
BRANCH  27  31
HETATM   31  C   UNL     1       7.793  23.628  56.374  1.00  0.00     0.276 C 
BRANCH  31  32
HETATM   32  C   UNL     1       7.907  22.658  55.238  1.00  0.00     0.006 A 
HETATM   33  C   UNL     1       7.911  21.285  55.505  1.00  0.00     0.124 A 
HETATM   34  F   UNL     1       7.867  20.875  56.781  1.00  0.00    -0.206 F 
HETATM   35  C   UNL     1       7.986  20.345  54.486  1.00  0.00     0.043 A 
HETATM   36  C   UNL     1       8.064  20.778  53.165  1.00  0.00     0.003 A 
HETATM   37  C   UNL     1       8.066  22.145  52.877  1.00  0.00     0.001 A 
HETATM   38  C   UNL     1       7.985  23.084  53.907  1.00  0.00     0.012 A 
ENDBRANCH  31  32
ENDBRANCH  27  31
ENDBRANCH   4  24
TORSDOF 9
ENDMDL
MODEL 8
REMARK VINA RESULT:      -9.1      4.152     12.799
REMARK  9 active torsions:
REMARK  status: ('A' for Active; 'I' for Inactive)
REMARK    1  A    between atoms: C_2  and  O_3 
REMARK    2  A    between atoms: O_3  and  C_4 
REMARK    3  A    between atoms: C_7  and  C_8 
REMARK       I    between atoms: C_8  and  N_9 
REMARK    4  A    between atoms: N_9  and  C_10 
REMARK    5  A    between atoms: C_10  and  N_11 
REMARK    6  A    between atoms: N_11  and  C_12 
REMARK    7  A    between atoms: C_15  and  N_16 
REMARK    8  A    between atoms: N_19  and  C_21 
REMARK    9  A    between atoms: C_21  and  C_22 
ROOT
HETATM    1  C   UNL     1       7.597  30.645  57.985  1.00  0.00     0.034 A 
HETATM    2  C   UNL     1       8.271  30.699  59.199  1.00  0.00     0.032 A 
HETATM    3  C   UNL     1       7.685  31.305  60.313  1.00  0.00     0.031 A 
HETATM    4  C   UNL     1       6.412  31.888  60.261  1.00  0.00     0.030 A 
HETATM    5  C   UNL     1       5.790  31.914  59.005  1.00  0.00     0.031 A 
HETATM    6  C   UNL     1       6.378  31.313  57.877  1.00  0.00     0.032 A 
ENDROOT
BRANCH   1   7
HETATM    7  N   UNL     1       8.105  29.967  56.859  1.00  0.00    -0.333 N 
HETATM    8  H   UNL     1       7.475  29.877  56.059  1.00  0.00     0.168 HD
BRANCH   7   9
HETATM    9  C   UNL     1       9.235  29.186  56.763  1.00  0.00     0.179 C 
HETATM   10  S   UNL     1      10.847  29.633  56.874  1.00  0.00    -0.040 SA
BRANCH   9  11
HETATM   11  N   UNL     1       9.015  27.836  56.588  1.00  0.00    -0.299 N 
HETATM   12  C   UNL     1       8.181  26.962  57.272  1.00  0.00     0.257 C 
HETATM   13  O   UNL     1       7.586  27.248  58.305  1.00  0.00    -0.267 OA
HETATM   14  H   UNL     1       9.594  27.451  55.854  1.00  0.00     0.171 HD
BRANCH  12  15
HETATM   15  C   UNL     1       8.148  25.584  56.702  1.00  0.00     0.032 A 
HETATM   16  C   UNL     1       7.552  25.376  55.457  1.00  0.00     0.020 A 
HETATM   17  C   UNL     1       7.399  24.073  54.971  1.00  0.00     0.038 A 
HETATM   18  C   UNL     1       7.835  22.977  55.723  1.00  0.00     0.068 A 
HETATM   19  C   UNL     1       8.499  23.192  56.930  1.00  0.00     0.038 A 
HETATM   20  C   UNL     1       8.659  24.491  57.419  1.00  0.00     0.020 A 
BRANCH  18  21
HETATM   21  O   UNL     1       7.573  21.749  55.179  1.00  0.00    -0.352 OA
BRANCH  21  22
HETATM   22  C   UNL     1       8.600  21.202  54.348  1.00  0.00     0.171 C 
HETATM   23  C   UNL     1       7.956  20.663  53.085  1.00  0.00     0.034 C 
ENDBRANCH  21  22
ENDBRANCH  18  21
ENDBRANCH  12  15
ENDBRANCH   9  11
ENDBRANCH   7   9
ENDBRANCH   1   7
BRANCH   4  24
HETATM   24  N   UNL     1       5.842  32.418  61.401  1.00  0.00    -0.378 N 
HETATM   25  C   UNL     1       4.780  33.425  61.380  1.00  0.00     0.150 C 
HETATM   26  C   UNL     1       5.126  34.545  62.394  1.00  0.00     0.255 C 
HETATM   27  N   UNL     1       5.468  33.982  63.779  1.00  0.00    -0.064 N 
HETATM   28  H   UNL     1       4.613  33.552  64.159  1.00  0.00     0.280 HD
HETATM   29  C   UNL     1       6.519  32.873  63.704  1.00  0.00     0.255 C 
HETATM   30  C   UNL     1       6.085  31.789  62.707  1.00  0.00     0.150 C 
BRANCH  27  31
HETATM   31  C   UNL     1       5.892  35.054  64.751  1.00  0.00     0.276 C 
BRANCH  31  32
HETATM   32  C   UNL     1       5.748  34.656  66.188  1.00  0.00     0.006 A 
HETATM   33  C   UNL     1       4.475  34.396  66.705  1.00  0.00     0.124 A 
HETATM   34  F   UNL     1       3.408  34.562  65.909  1.00  0.00    -0.206 F 
HETATM   35  C   UNL     1       4.291  33.997  68.022  1.00  0.00     0.043 A 
HETATM   36  C   UNL     1       5.400  33.857  68.852  1.00  0.00     0.003 A 
HETATM   37  C   UNL     1       6.680  34.117  68.357  1.00  0.00     0.001 A 
HETATM   38  C   UNL     1       6.857  34.512  67.031  1.00  0.00     0.012 A 
ENDBRANCH  31  32
ENDBRANCH  27  31
ENDBRANCH   4  24
TORSDOF 9
ENDMDL
MODEL 9
REMARK VINA RESULT:      -8.9      4.912     12.587
REMARK  9 active torsions:
REMARK  status: ('A' for Active; 'I' for Inactive)
REMARK    1  A    between atoms: C_2  and  O_3 
REMARK    2  A    between atoms: O_3  and  C_4 
REMARK    3  A    between atoms: C_7  and  C_8 
REMARK       I    between atoms: C_8  and  N_9 
REMARK    4  A    between atoms: N_9  and  C_10 
REMARK    5  A    between atoms: C_10  and  N_11 
REMARK    6  A    between atoms: N_11  and  C_12 
REMARK    7  A    between atoms: C_15  and  N_16 
REMARK    8  A    between atoms: N_19  and  C_21 
REMARK    9  A    between atoms: C_21  and  C_22 
ROOT
HETATM    1  C   UNL     1       4.261  28.776  55.240  1.00  0.00     0.034 A 
HETATM    2  C   UNL     1       4.992  28.488  56.386  1.00  0.00     0.032 A 
HETATM    3  C   UNL     1       5.240  29.478  57.340  1.00  0.00     0.031 A 
HETATM    4  C   UNL     1       4.780  30.792  57.187  1.00  0.00     0.030 A 
HETATM    5  C   UNL     1       4.133  31.089  55.979  1.00  0.00     0.031 A 
HETATM    6  C   UNL     1       3.887  30.098  55.011  1.00  0.00     0.032 A 
ENDROOT
BRANCH   1   7
HETATM    7  N   UNL     1       3.907  27.793  54.294  1.00  0.00    -0.333 N 
HETATM    8  H   UNL     1       3.113  27.196  54.533  1.00  0.00     0.168 HD
BRANCH   7   9
HETATM    9  C   UNL     1       4.626  27.347  53.207  1.00  0.00     0.179 C 
HETATM   10  S   UNL     1       4.619  27.910  51.628  1.00  0.00    -0.040 SA
BRANCH   9  11
HETATM   11  N   UNL     1       5.507  26.316  53.454  1.00  0.00    -0.299 N 
HETATM   12  C   UNL     1       6.855  26.341  53.788  1.00  0.00     0.257 C 
HETATM   13  O   UNL     1       7.549  27.351  53.761  1.00  0.00    -0.267 OA
HETATM   14  H   UNL     1       5.071  25.411  53.337  1.00  0.00     0.171 HD
BRANCH  12  15
HETATM   15  C   UNL     1       7.431  24.998  54.082  1.00  0.00     0.032 A 
HETATM   16  C   UNL     1       7.881  24.718  55.374  1.00  0.00     0.020 A 
HETATM   17  C   UNL     1       8.541  23.511  55.631  1.00  0.00     0.038 A 
HETATM   18  C   UNL     1       8.758  22.585  54.606  1.00  0.00     0.068 A 
HETATM   19  C   UNL     1       8.240  22.833  53.335  1.00  0.00     0.038 A 
HETATM   20  C   UNL     1       7.575  24.034  53.073  1.00  0.00     0.020 A 
BRANCH  18  21
HETATM   21  O   UNL     1       9.472  21.473  54.959  1.00  0.00    -0.352 OA
BRANCH  21  22
HETATM   22  C   UNL     1       9.074  20.836  56.176  1.00  0.00     0.171 C 
HETATM   23  C   UNL     1       7.830  20.014  55.901  1.00  0.00     0.034 C 
ENDBRANCH  21  22
ENDBRANCH  18  21
ENDBRANCH  12  15
ENDBRANCH   9  11
ENDBRANCH   7   9
ENDBRANCH   1   7
BRANCH   4  24
HETATM   24  N   UNL     1       4.990  31.724  58.184  1.00  0.00    -0.378 N 
HETATM   25  C   UNL     1       6.319  32.133  58.642  1.00  0.00     0.150 C 
HETATM   26  C   UNL     1       6.340  32.136  60.191  1.00  0.00     0.255 C 
HETATM   27  N   UNL     1       5.170  32.934  60.780  1.00  0.00    -0.064 N 
HETATM   28  H   UNL     1       5.307  33.921  60.523  1.00  0.00     0.280 HD
HETATM   29  C   UNL     1       3.827  32.509  60.184  1.00  0.00     0.255 C 
HETATM   30  C   UNL     1       3.879  32.567  58.650  1.00  0.00     0.150 C 
BRANCH  27  31
HETATM   31  C   UNL     1       5.128  32.873  62.287  1.00  0.00     0.276 C 
BRANCH  31  32
HETATM   32  C   UNL     1       5.117  34.219  62.945  1.00  0.00     0.006 A 
HETATM   33  C   UNL     1       4.908  34.308  64.324  1.00  0.00     0.124 A 
HETATM   34  F   UNL     1       4.670  33.183  65.015  1.00  0.00    -0.206 F 
HETATM   35  C   UNL     1       4.915  35.529  64.985  1.00  0.00     0.043 A 
HETATM   36  C   UNL     1       5.131  36.695  64.257  1.00  0.00     0.003 A 
HETATM   37  C   UNL     1       5.336  36.629  62.877  1.00  0.00     0.001 A 
HETATM   38  C   UNL     1       5.333  35.398  62.221  1.00  0.00     0.012 A 
ENDBRANCH  31  32
ENDBRANCH  27  31
ENDBRANCH   4  24
TORSDOF 9
ENDMDL
MODEL 10
REMARK VINA RESULT:      -8.7      7.301      9.531
REMARK  9 active torsions:
REMARK  status: ('A' for Active; 'I' for Inactive)
REMARK    1  A    between atoms: C_2  and  O_3 
REMARK    2  A    between atoms: O_3  and  C_4 
REMARK    3  A    between atoms: C_7  and  C_8 
REMARK       I    between atoms: C_8  and  N_9 
REMARK    4  A    between atoms: N_9  and  C_10 
REMARK    5  A    between atoms: C_10  and  N_11 
REMARK    6  A    between atoms: N_11  and  C_12 
REMARK    7  A    between atoms: C_15  and  N_16 
REMARK    8  A    between atoms: N_19  and  C_21 
REMARK    9  A    between atoms: C_21  and  C_22 
ROOT
HETATM    1  C   UNL     1       3.219  31.260  54.140  1.00  0.00     0.034 A 
HETATM    2  C   UNL     1       3.556  30.701  55.366  1.00  0.00     0.032 A 
HETATM    3  C   UNL     1       4.045  29.395  55.443  1.00  0.00     0.031 A 
HETATM    4  C   UNL     1       4.208  28.592  54.307  1.00  0.00     0.030 A 
HETATM    5  C   UNL     1       3.767  29.136  53.092  1.00  0.00     0.031 A 
HETATM    6  C   UNL     1       3.267  30.448  53.009  1.00  0.00     0.032 A 
ENDROOT
BRANCH   1   7
HETATM    7  N   UNL     1       2.808  32.602  54.000  1.00  0.00    -0.333 N 
HETATM    8  H   UNL     1       3.086  33.243  54.745  1.00  0.00     0.168 HD
BRANCH   7   9
HETATM    9  C   UNL     1       1.873  33.129  53.137  1.00  0.00     0.179 C 
HETATM   10  S   UNL     1       2.099  33.865  51.648  1.00  0.00    -0.040 SA
BRANCH   9  11
HETATM   11  N   UNL     1       0.558  33.003  53.532  1.00  0.00    -0.299 N 
HETATM   12  C   UNL     1      -0.057  33.321  54.736  1.00  0.00     0.257 C 
HETATM   13  O   UNL     1       0.550  33.640  55.752  1.00  0.00    -0.267 OA
HETATM   14  H   UNL     1      -0.014  32.584  52.811  1.00  0.00     0.171 HD
BRANCH  12  15
HETATM   15  C   UNL     1      -1.536  33.133  54.729  1.00  0.00     0.032 A 
HETATM   16  C   UNL     1      -2.177  32.818  53.529  1.00  0.00     0.020 A 
HETATM   17  C   UNL     1      -3.575  32.767  53.483  1.00  0.00     0.038 A 
HETATM   18  C   UNL     1      -4.335  33.034  54.626  1.00  0.00     0.068 A 
HETATM   19  C   UNL     1      -3.691  33.273  55.840  1.00  0.00     0.038 A 
HETATM   20  C   UNL     1      -2.295  33.319  55.894  1.00  0.00     0.020 A 
BRANCH  18  21
HETATM   21  O   UNL     1      -5.691  33.022  54.446  1.00  0.00    -0.352 OA
BRANCH  21  22
HETATM   22  C   UNL     1      -6.178  32.148  53.424  1.00  0.00     0.171 C 
HETATM   23  C   UNL     1      -7.119  32.933  52.531  1.00  0.00     0.034 C 
ENDBRANCH  21  22
ENDBRANCH  18  21
ENDBRANCH  12  15
ENDBRANCH   9  11
ENDBRANCH   7   9
ENDBRANCH   1   7
BRANCH   4  24
HETATM   24  N   UNL     1       4.756  27.330  54.418  1.00  0.00    -0.378 N 
HETATM   25  C   UNL     1       5.226  26.761  55.683  1.00  0.00     0.150 C 
HETATM   26  C   UNL     1       6.617  26.116  55.461  1.00  0.00     0.255 C 
HETATM   27  N   UNL     1       6.619  25.152  54.268  1.00  0.00    -0.064 N 
HETATM   28  H   UNL     1       6.008  24.359  54.508  1.00  0.00     0.280 HD
HETATM   29  C   UNL     1       6.030  25.793  53.011  1.00  0.00     0.255 C 
HETATM   30  C   UNL     1       4.640  26.376  53.307  1.00  0.00     0.150 C 
BRANCH  27  31
HETATM   31  C   UNL     1       7.988  24.583  53.986  1.00  0.00     0.276 C 
BRANCH  31  32
HETATM   32  C   UNL     1       8.055  23.091  54.097  1.00  0.00     0.006 A 
HETATM   33  C   UNL     1       8.147  22.499  55.360  1.00  0.00     0.124 A 
HETATM   34  F   UNL     1       8.225  23.290  56.440  1.00  0.00    -0.206 F 
HETATM   35  C   UNL     1       8.184  21.120  55.518  1.00  0.00     0.043 A 
HETATM   36  C   UNL     1       8.134  20.305  54.390  1.00  0.00     0.003 A 
HETATM   37  C   UNL     1       8.048  20.876  53.119  1.00  0.00     0.001 A 
HETATM   38  C   UNL     1       8.005  22.263  52.969  1.00  0.00     0.012 A 
ENDBRANCH  31  32
ENDBRANCH  27  31
ENDBRANCH   4  24
TORSDOF 9
ENDMDL
