MODEL 1
REMARK VINA RESULT:      -9.0      0.000      0.000
REMARK  8 active torsions:
REMARK  status: ('A' for Active; 'I' for Inactive)
REMARK    1  A    between atoms: C_2  and  C_3 
REMARK    2  A    between atoms: C_3  and  N_4 
REMARK    3  A    between atoms: N_4  and  C_5 
REMARK    4  A    between atoms: C_7  and  N_8 
REMARK    5  A    between atoms: N_8  and  C_9 
REMARK    6  A    between atoms: C_9  and  C_10 
REMARK    7  A    between atoms: C_10  and  C_11 
REMARK    8  A    between atoms: C_13  and  O_14 
ROOT
HETATM    1  C   UNL     1       7.586  24.203  53.928  1.00  0.00     0.119 A 
HETATM    2  N   UNL     1       7.375  25.104  54.907  1.00  0.00    -0.207 NA
HETATM    3  C   UNL     1       7.380  24.661  56.169  1.00  0.00     0.181 A 
HETATM    4  N   UNL     1       7.554  23.386  56.499  1.00  0.00    -0.330 N 
HETATM    5  H   UNL     1       7.466  23.146  57.477  1.00  0.00     0.168 HD
HETATM    6  C   UNL     1       7.796  22.457  55.569  1.00  0.00     0.048 A 
HETATM    7  C   UNL     1       7.836  22.842  54.214  1.00  0.00     0.031 A 
HETATM    8  C   UNL     1       8.015  21.125  55.946  1.00  0.00     0.030 A 
HETATM    9  C   UNL     1       8.293  20.160  54.979  1.00  0.00     0.002 A 
HETATM   10  C   UNL     1       8.354  20.521  53.637  1.00  0.00     0.001 A 
HETATM   11  C   UNL     1       8.129  21.846  53.253  1.00  0.00     0.017 A 
ENDROOT
BRANCH   3  12
HETATM   12  N   UNL     1       7.130  25.589  57.173  1.00  0.00    -0.262 NA
HETATM   13  H   UNL     1       6.249  26.034  56.896  1.00  0.00     0.130 HD
BRANCH  12  14
HETATM   14  C   UNL     1       8.186  26.588  57.363  1.00  0.00     0.100 C 
BRANCH  14  15
HETATM   15  C   UNL     1       7.576  27.960  57.677  1.00  0.00     0.053 C 
BRANCH  15  16
HETATM   16  C   UNL     1       8.638  29.030  57.730  1.00  0.00    -0.054 A 
HETATM   17  C   UNL     1       8.456  30.186  58.509  1.00  0.00     0.044 A 
HETATM   18  C   UNL     1       9.422  31.195  58.518  1.00  0.00     0.068 A 
HETATM   19  C   UNL     1      10.577  31.043  57.749  1.00  0.00     0.037 A 
HETATM   20  C   UNL     1      10.774  29.896  56.983  1.00  0.00     0.003 A 
HETATM   21  C   UNL     1       9.808  28.892  56.971  1.00  0.00     0.007 A 
BRANCH  18  22
HETATM   22  O   UNL     1       9.355  32.369  59.214  1.00  0.00    -0.356 OA
HETATM   23  C   UNL     1       8.484  32.414  60.336  1.00  0.00     0.210 C 
ENDBRANCH  18  22
ENDBRANCH  15  16
ENDBRANCH  14  15
ENDBRANCH  12  14
ENDBRANCH   3  12
BRANCH   1  24
HETATM   24  N   UNL     1       7.611  24.641  52.597  1.00  0.00    -0.277 NA
HETATM   25  H   UNL     1       7.381  23.881  51.961  1.00  0.00     0.129 HD
BRANCH  24  26
HETATM   26  C   UNL     1       6.836  25.844  52.286  1.00  0.00     0.093 C 
BRANCH  26  27
HETATM   27  C   UNL     1       5.478  25.456  51.699  1.00  0.00     0.010 C 
HETATM   28  C   UNL     1       5.074  26.327  50.519  1.00  0.00     0.006 C 
ENDBRANCH  26  27
ENDBRANCH  24  26
ENDBRANCH   1  24
TORSDOF 8
ENDMDL
MODEL 2
REMARK VINA RESULT:      -8.3      4.459      7.708
REMARK  8 active torsions:
REMARK  status: ('A' for Active; 'I' for Inactive)
REMARK    1  A    between atoms: C_2  and  C_3 
REMARK    2  A    between atoms: C_3  and  N_4 
REMARK    3  A    between atoms: N_4  and  C_5 
REMARK    4  A    between atoms: C_7  and  N_8 
REMARK    5  A    between atoms: N_8  and  C_9 
REMARK    6  A    between atoms: C_9  and  C_10 
REMARK    7  A    between atoms: C_10  and  C_11 
REMARK    8  A    between atoms: C_13  and  O_14 
ROOT
HETATM    1  C   UNL     1       7.244  23.728  53.661  1.00  0.00     0.119 A 
HETATM    2  N   UNL     1       6.180  24.226  53.001  1.00  0.00    -0.207 NA
HETATM    3  C   UNL     1       5.424  25.129  53.635  1.00  0.00     0.181 A 
HETATM    4  N   UNL     1       5.652  25.534  54.880  1.00  0.00    -0.330 N 
HETATM    5  H   UNL     1       4.977  26.164  55.292  1.00  0.00     0.168 HD
HETATM    6  C   UNL     1       6.710  25.093  55.567  1.00  0.00     0.048 A 
HETATM    7  C   UNL     1       7.577  24.160  54.965  1.00  0.00     0.031 A 
HETATM    8  C   UNL     1       6.951  25.566  56.866  1.00  0.00     0.030 A 
HETATM    9  C   UNL     1       8.069  25.127  57.574  1.00  0.00     0.002 A 
HETATM   10  C   UNL     1       8.946  24.218  56.992  1.00  0.00     0.001 A 
HETATM   11  C   UNL     1       8.708  23.737  55.701  1.00  0.00     0.017 A 
ENDROOT
BRANCH   3  12
HETATM   12  N   UNL     1       4.310  25.616  52.962  1.00  0.00    -0.262 NA
HETATM   13  H   UNL     1       4.219  25.004  52.144  1.00  0.00     0.130 HD
BRANCH  12  14
HETATM   14  C   UNL     1       4.401  27.022  52.559  1.00  0.00     0.100 C 
BRANCH  14  15
HETATM   15  C   UNL     1       5.636  27.248  51.676  1.00  0.00     0.053 C 
BRANCH  15  16
HETATM   16  C   UNL     1       5.240  27.546  50.252  1.00  0.00    -0.054 A 
HETATM   17  C   UNL     1       4.679  26.546  49.437  1.00  0.00     0.044 A 
HETATM   18  C   UNL     1       4.357  26.814  48.105  1.00  0.00     0.068 A 
HETATM   19  C   UNL     1       4.592  28.089  47.588  1.00  0.00     0.037 A 
HETATM   20  C   UNL     1       5.135  29.092  48.388  1.00  0.00     0.003 A 
HETATM   21  C   UNL     1       5.460  28.822  49.716  1.00  0.00     0.007 A 
BRANCH  18  22
HETATM   22  O   UNL     1       3.827  25.928  47.210  1.00  0.00    -0.356 OA
HETATM   23  C   UNL     1       2.992  24.900  47.724  1.00  0.00     0.210 C 
ENDBRANCH  18  22
ENDBRANCH  15  16
ENDBRANCH  14  15
ENDBRANCH  12  14
ENDBRANCH   3  12
BRANCH   1  24
HETATM   24  N   UNL     1       8.070  22.799  53.013  1.00  0.00    -0.277 NA
HETATM   25  H   UNL     1       9.039  22.913  53.302  1.00  0.00     0.129 HD
BRANCH  24  26
HETATM   26  C   UNL     1       7.659  21.395  53.080  1.00  0.00     0.093 C 
BRANCH  26  27
HETATM   27  C   UNL     1       8.783  20.548  53.680  1.00  0.00     0.010 C 
HETATM   28  C   UNL     1       8.499  20.121  55.113  1.00  0.00     0.006 C 
ENDBRANCH  26  27
ENDBRANCH  24  26
ENDBRANCH   1  24
TORSDOF 8
ENDMDL
MODEL 3
REMARK VINA RESULT:      -8.3      3.694      7.578
REMARK  8 active torsions:
REMARK  status: ('A' for Active; 'I' for Inactive)
REMARK    1  A    between atoms: C_2  and  C_3 
REMARK    2  A    between atoms: C_3  and  N_4 
REMARK    3  A    between atoms: N_4  and  C_5 
REMARK    4  A    between atoms: C_7  and  N_8 
REMARK    5  A    between atoms: N_8  and  C_9 
REMARK    6  A    between atoms: C_9  and  C_10 
REMARK    7  A    between atoms: C_10  and  C_11 
REMARK    8  A    between atoms: C_13  and  O_14 
ROOT
HETATM    1  C   UNL     1       7.665  23.956  55.421  1.00  0.00     0.119 A 
HETATM    2  N   UNL     1       7.525  24.826  54.402  1.00  0.00    -0.207 NA
HETATM    3  C   UNL     1       7.759  24.376  53.165  1.00  0.00     0.181 A 
HETATM    4  N   UNL     1       8.146  23.134  52.897  1.00  0.00    -0.330 N 
HETATM    5  H   UNL     1       8.369  22.916  51.935  1.00  0.00     0.168 HD
HETATM    6  C   UNL     1       8.272  22.224  53.868  1.00  0.00     0.048 A 
HETATM    7  C   UNL     1       8.017  22.606  55.200  1.00  0.00     0.031 A 
HETATM    8  C   UNL     1       8.643  20.908  53.554  1.00  0.00     0.030 A 
HETATM    9  C   UNL     1       8.749  19.951  54.563  1.00  0.00     0.002 A 
HETATM   10  C   UNL     1       8.485  20.303  55.883  1.00  0.00     0.001 A 
HETATM   11  C   UNL     1       8.122  21.614  56.203  1.00  0.00     0.017 A 
ENDROOT
BRANCH   3  12
HETATM   12  N   UNL     1       7.645  25.286  52.121  1.00  0.00    -0.262 NA
HETATM   13  H   UNL     1       8.521  25.817  52.148  1.00  0.00     0.130 HD
BRANCH  12  14
HETATM   14  C   UNL     1       6.486  26.179  52.209  1.00  0.00     0.100 C 
BRANCH  14  15
HETATM   15  C   UNL     1       5.301  25.599  51.425  1.00  0.00     0.053 C 
BRANCH  15  16
HETATM   16  C   UNL     1       4.957  26.464  50.238  1.00  0.00    -0.054 A 
HETATM   17  C   UNL     1       4.240  25.938  49.149  1.00  0.00     0.044 A 
HETATM   18  C   UNL     1       3.965  26.730  48.032  1.00  0.00     0.068 A 
HETATM   19  C   UNL     1       4.403  28.055  48.008  1.00  0.00     0.037 A 
HETATM   20  C   UNL     1       5.104  28.592  49.087  1.00  0.00     0.003 A 
HETATM   21  C   UNL     1       5.382  27.799  50.199  1.00  0.00     0.007 A 
BRANCH  18  22
HETATM   22  O   UNL     1       3.297  26.334  46.908  1.00  0.00    -0.356 OA
HETATM   23  C   UNL     1       1.885  26.489  46.897  1.00  0.00     0.210 C 
ENDBRANCH  18  22
ENDBRANCH  15  16
ENDBRANCH  14  15
ENDBRANCH  12  14
ENDBRANCH   3  12
BRANCH   1  24
HETATM   24  N   UNL     1       7.402  24.392  56.727  1.00  0.00    -0.277 NA
HETATM   25  H   UNL     1       7.242  23.601  57.347  1.00  0.00     0.129 HD
BRANCH  24  26
HETATM   26  C   UNL     1       8.356  25.338  57.309  1.00  0.00     0.093 C 
BRANCH  26  27
HETATM   27  C   UNL     1       7.661  26.667  57.609  1.00  0.00     0.010 C 
HETATM   28  C   UNL     1       7.925  27.724  56.546  1.00  0.00     0.006 C 
ENDBRANCH  26  27
ENDBRANCH  24  26
ENDBRANCH   1  24
TORSDOF 8
ENDMDL
MODEL 4
REMARK VINA RESULT:      -8.2      3.108      7.906
REMARK  8 active torsions:
REMARK  status: ('A' for Active; 'I' for Inactive)
REMARK    1  A    between atoms: C_2  and  C_3 
REMARK    2  A    between atoms: C_3  and  N_4 
REMARK    3  A    between atoms: N_4  and  C_5 
REMARK    4  A    between atoms: C_7  and  N_8 
REMARK    5  A    between atoms: N_8  and  C_9 
REMARK    6  A    between atoms: C_9  and  C_10 
REMARK    7  A    between atoms: C_10  and  C_11 
REMARK    8  A    between atoms: C_13  and  O_14 
ROOT
HETATM    1  C   UNL     1       7.300  29.032  57.706  1.00  0.00     0.119 A 
HETATM    2  N   UNL     1       7.853  27.907  58.200  1.00  0.00    -0.207 NA
HETATM    3  C   UNL     1       7.433  26.739  57.702  1.00  0.00     0.181 A 
HETATM    4  N   UNL     1       6.487  26.634  56.775  1.00  0.00    -0.330 N 
HETATM    5  H   UNL     1       6.190  25.701  56.521  1.00  0.00     0.168 HD
HETATM    6  C   UNL     1       5.928  27.719  56.232  1.00  0.00     0.048 A 
HETATM    7  C   UNL     1       6.332  28.993  56.678  1.00  0.00     0.031 A 
HETATM    8  C   UNL     1       4.960  27.582  55.226  1.00  0.00     0.030 A 
HETATM    9  C   UNL     1       4.394  28.714  54.640  1.00  0.00     0.002 A 
HETATM   10  C   UNL     1       4.791  29.981  55.054  1.00  0.00     0.001 A 
HETATM   11  C   UNL     1       5.750  30.124  56.061  1.00  0.00     0.017 A 
ENDROOT
BRANCH   3  12
HETATM   12  N   UNL     1       7.983  25.581  58.237  1.00  0.00    -0.262 NA
HETATM   13  H   UNL     1       8.481  25.898  59.075  1.00  0.00     0.130 HD
BRANCH  12  14
HETATM   14  C   UNL     1       8.882  24.854  57.335  1.00  0.00     0.100 C 
BRANCH  14  15
HETATM   15  C   UNL     1       8.350  23.439  57.074  1.00  0.00     0.053 C 
BRANCH  15  16
HETATM   16  C   UNL     1       8.165  23.190  55.597  1.00  0.00    -0.054 A 
HETATM   17  C   UNL     1       7.225  23.928  54.856  1.00  0.00     0.044 A 
HETATM   18  C   UNL     1       7.025  23.662  53.499  1.00  0.00     0.068 A 
HETATM   19  C   UNL     1       7.773  22.659  52.882  1.00  0.00     0.037 A 
HETATM   20  C   UNL     1       8.717  21.929  53.603  1.00  0.00     0.003 A 
HETATM   21  C   UNL     1       8.912  22.192  54.957  1.00  0.00     0.007 A 
BRANCH  18  22
HETATM   22  O   UNL     1       6.134  24.292  52.678  1.00  0.00    -0.356 OA
HETATM   23  C   UNL     1       6.405  25.644  52.334  1.00  0.00     0.210 C 
ENDBRANCH  18  22
ENDBRANCH  15  16
ENDBRANCH  14  15
ENDBRANCH  12  14
ENDBRANCH   3  12
BRANCH   1  24
HETATM   24  N   UNL     1       7.739  30.272  58.191  1.00  0.00    -0.277 NA
HETATM   25  H   UNL     1       7.000  30.969  58.123  1.00  0.00     0.129 HD
BRANCH  24  26
HETATM   26  C   UNL     1       8.353  30.278  59.520  1.00  0.00     0.093 C 
BRANCH  26  27
HETATM   27  C   UNL     1       9.370  31.416  59.622  1.00  0.00     0.010 C 
HETATM   28  C   UNL     1       9.556  31.916  61.047  1.00  0.00     0.006 C 
ENDBRANCH  26  27
ENDBRANCH  24  26
ENDBRANCH   1  24
TORSDOF 8
ENDMDL
MODEL 5
REMARK VINA RESULT:      -8.0      3.507      8.705
REMARK  8 active torsions:
REMARK  status: ('A' for Active; 'I' for Inactive)
REMARK    1  A    between atoms: C_2  and  C_3 
REMARK    2  A    between atoms: C_3  and  N_4 
REMARK    3  A    between atoms: N_4  and  C_5 
REMARK    4  A    between atoms: C_7  and  N_8 
REMARK    5  A    between atoms: N_8  and  C_9 
REMARK    6  A    between atoms: C_9  and  C_10 
REMARK    7  A    between atoms: C_10  and  C_11 
REMARK    8  A    between atoms: C_13  and  O_14 
ROOT
HETATM    1  C   UNL     1       7.047  29.147  57.726  1.00  0.00     0.119 A 
HETATM    2  N   UNL     1       6.623  27.964  57.240  1.00  0.00    -0.207 NA
HETATM    3  C   UNL     1       5.325  27.846  56.942  1.00  0.00     0.181 A 
HETATM    4  N   UNL     1       4.437  28.818  57.126  1.00  0.00    -0.330 N 
HETATM    5  H   UNL     1       3.468  28.601  56.938  1.00  0.00     0.168 HD
HETATM    6  C   UNL     1       4.811  30.019  57.577  1.00  0.00     0.048 A 
HETATM    7  C   UNL     1       6.167  30.240  57.890  1.00  0.00     0.031 A 
HETATM    8  C   UNL     1       3.862  31.041  57.724  1.00  0.00     0.030 A 
HETATM    9  C   UNL     1       4.255  32.303  58.169  1.00  0.00     0.002 A 
HETATM   10  C   UNL     1       5.591  32.547  58.468  1.00  0.00     0.001 A 
HETATM   11  C   UNL     1       6.541  31.531  58.331  1.00  0.00     0.017 A 
ENDROOT
BRANCH   3  12
HETATM   12  N   UNL     1       4.886  26.614  56.472  1.00  0.00    -0.262 NA
HETATM   13  H   UNL     1       4.752  26.051  57.318  1.00  0.00     0.130 HD
BRANCH  12  14
HETATM   14  C   UNL     1       5.803  25.951  55.540  1.00  0.00     0.100 C 
BRANCH  14  15
HETATM   15  C   UNL     1       6.377  24.674  56.169  1.00  0.00     0.053 C 
BRANCH  15  16
HETATM   16  C   UNL     1       6.972  23.770  55.119  1.00  0.00    -0.054 A 
HETATM   17  C   UNL     1       7.565  22.546  55.476  1.00  0.00     0.044 A 
HETATM   18  C   UNL     1       8.157  21.734  54.506  1.00  0.00     0.068 A 
HETATM   19  C   UNL     1       8.149  22.145  53.172  1.00  0.00     0.037 A 
HETATM   20  C   UNL     1       7.553  23.350  52.804  1.00  0.00     0.003 A 
HETATM   21  C   UNL     1       6.968  24.162  53.773  1.00  0.00     0.007 A 
BRANCH  18  22
HETATM   22  O   UNL     1       8.778  20.537  54.726  1.00  0.00    -0.356 OA
HETATM   23  C   UNL     1       9.222  20.265  56.048  1.00  0.00     0.210 C 
ENDBRANCH  18  22
ENDBRANCH  15  16
ENDBRANCH  14  15
ENDBRANCH  12  14
ENDBRANCH   3  12
BRANCH   1  24
HETATM   24  N   UNL     1       8.407  29.310  58.024  1.00  0.00    -0.277 NA
HETATM   25  H   UNL     1       8.633  28.893  58.925  1.00  0.00     0.129 HD
BRANCH  24  26
HETATM   26  C   UNL     1       9.360  28.891  56.993  1.00  0.00     0.093 C 
BRANCH  26  27
HETATM   27  C   UNL     1      10.555  29.847  56.965  1.00  0.00     0.010 C 
HETATM   28  C   UNL     1      10.382  31.035  57.900  1.00  0.00     0.006 C 
ENDBRANCH  26  27
ENDBRANCH  24  26
ENDBRANCH   1  24
TORSDOF 8
ENDMDL
MODEL 6
REMARK VINA RESULT:      -7.9      3.458      8.510
REMARK  8 active torsions:
REMARK  status: ('A' for Active; 'I' for Inactive)
REMARK    1  A    between atoms: C_2  and  C_3 
REMARK    2  A    between atoms: C_3  and  N_4 
REMARK    3  A    between atoms: N_4  and  C_5 
REMARK    4  A    between atoms: C_7  and  N_8 
REMARK    5  A    between atoms: N_8  and  C_9 
REMARK    6  A    between atoms: C_9  and  C_10 
REMARK    7  A    between atoms: C_10  and  C_11 
REMARK    8  A    between atoms: C_13  and  O_14 
ROOT
HETATM    1  C   UNL     1       7.525  31.120  58.632  1.00  0.00     0.119 A 
HETATM    2  N   UNL     1       6.344  30.495  58.459  1.00  0.00    -0.207 NA
HETATM    3  C   UNL     1       6.332  29.386  57.713  1.00  0.00     0.181 A 
HETATM    4  N   UNL     1       7.411  28.890  57.118  1.00  0.00    -0.330 N 
HETATM    5  H   UNL     1       7.281  28.088  56.516  1.00  0.00     0.168 HD
HETATM    6  C   UNL     1       8.612  29.455  57.281  1.00  0.00     0.048 A 
HETATM    7  C   UNL     1       8.720  30.613  58.075  1.00  0.00     0.031 A 
HETATM    8  C   UNL     1       9.743  28.889  56.674  1.00  0.00     0.030 A 
HETATM    9  C   UNL     1      11.000  29.462  56.864  1.00  0.00     0.002 A 
HETATM   10  C   UNL     1      11.132  30.597  57.658  1.00  0.00     0.001 A 
HETATM   11  C   UNL     1      10.007  31.170  58.259  1.00  0.00     0.017 A 
ENDROOT
BRANCH   3  12
HETATM   12  N   UNL     1       5.106  28.763  57.512  1.00  0.00    -0.262 NA
HETATM   13  H   UNL     1       4.900  28.310  58.408  1.00  0.00     0.130 HD
BRANCH  12  14
HETATM   14  C   UNL     1       5.083  27.792  56.414  1.00  0.00     0.100 C 
BRANCH  14  15
HETATM   15  C   UNL     1       5.023  26.361  56.965  1.00  0.00     0.053 C 
BRANCH  15  16
HETATM   16  C   UNL     1       6.099  25.497  56.356  1.00  0.00    -0.054 A 
HETATM   17  C   UNL     1       5.963  24.992  55.051  1.00  0.00     0.044 A 
HETATM   18  C   UNL     1       6.941  24.154  54.510  1.00  0.00     0.068 A 
HETATM   19  C   UNL     1       8.062  23.827  55.275  1.00  0.00     0.037 A 
HETATM   20  C   UNL     1       8.214  24.332  56.565  1.00  0.00     0.003 A 
HETATM   21  C   UNL     1       7.235  25.163  57.106  1.00  0.00     0.007 A 
BRANCH  18  22
HETATM   22  O   UNL     1       6.917  23.586  53.268  1.00  0.00    -0.356 OA
HETATM   23  C   UNL     1       7.766  22.470  53.042  1.00  0.00     0.210 C 
ENDBRANCH  18  22
ENDBRANCH  15  16
ENDBRANCH  14  15
ENDBRANCH  12  14
ENDBRANCH   3  12
BRANCH   1  24
HETATM   24  N   UNL     1       7.572  32.272  59.429  1.00  0.00    -0.277 NA
HETATM   25  H   UNL     1       7.695  33.104  58.856  1.00  0.00     0.129 HD
BRANCH  24  26
HETATM   26  C   UNL     1       6.485  32.449  60.394  1.00  0.00     0.093 C 
BRANCH  26  27
HETATM   27  C   UNL     1       7.044  32.450  61.819  1.00  0.00     0.010 C 
HETATM   28  C   UNL     1       8.541  32.178  61.866  1.00  0.00     0.006 C 
ENDBRANCH  26  27
ENDBRANCH  24  26
ENDBRANCH   1  24
TORSDOF 8
ENDMDL
MODEL 7
REMARK VINA RESULT:      -7.9      3.641      8.925
REMARK  8 active torsions:
REMARK  status: ('A' for Active; 'I' for Inactive)
REMARK    1  A    between atoms: C_2  and  C_3 
REMARK    2  A    between atoms: C_3  and  N_4 
REMARK    3  A    between atoms: N_4  and  C_5 
REMARK    4  A    between atoms: C_7  and  N_8 
REMARK    5  A    between atoms: N_8  and  C_9 
REMARK    6  A    between atoms: C_9  and  C_10 
REMARK    7  A    between atoms: C_10  and  C_11 
REMARK    8  A    between atoms: C_13  and  O_14 
ROOT
HETATM    1  C   UNL     1       7.405  30.571  58.446  1.00  0.00     0.119 A 
HETATM    2  N   UNL     1       8.065  29.396  58.429  1.00  0.00    -0.207 NA
HETATM    3  C   UNL     1       7.455  28.350  57.862  1.00  0.00     0.181 A 
HETATM    4  N   UNL     1       6.233  28.405  57.343  1.00  0.00    -0.330 N 
HETATM    5  H   UNL     1       5.835  27.539  57.005  1.00  0.00     0.168 HD
HETATM    6  C   UNL     1       5.547  29.552  57.308  1.00  0.00     0.048 A 
HETATM    7  C   UNL     1       6.127  30.712  57.860  1.00  0.00     0.031 A 
HETATM    8  C   UNL     1       4.275  29.592  56.720  1.00  0.00     0.030 A 
HETATM    9  C   UNL     1       3.570  30.794  56.659  1.00  0.00     0.002 A 
HETATM   10  C   UNL     1       4.130  31.954  57.184  1.00  0.00     0.001 A 
HETATM   11  C   UNL     1       5.395  31.919  57.778  1.00  0.00     0.017 A 
ENDROOT
BRANCH   3  12
HETATM   12  N   UNL     1       8.127  27.134  57.875  1.00  0.00    -0.262 NA
HETATM   13  H   UNL     1       9.009  27.324  57.389  1.00  0.00     0.130 HD
BRANCH  12  14
HETATM   14  C   UNL     1       7.405  26.026  57.242  1.00  0.00     0.100 C 
BRANCH  14  15
HETATM   15  C   UNL     1       8.342  24.830  57.025  1.00  0.00     0.053 C 
BRANCH  15  16
HETATM   16  C   UNL     1       8.177  24.253  55.641  1.00  0.00    -0.054 A 
HETATM   17  C   UNL     1       8.667  22.971  55.334  1.00  0.00     0.044 A 
HETATM   18  C   UNL     1       8.553  22.460  54.039  1.00  0.00     0.068 A 
HETATM   19  C   UNL     1       7.941  23.232  53.050  1.00  0.00     0.037 A 
HETATM   20  C   UNL     1       7.440  24.499  53.346  1.00  0.00     0.003 A 
HETATM   21  C   UNL     1       7.559  25.009  54.636  1.00  0.00     0.007 A 
BRANCH  18  22
HETATM   22  O   UNL     1       9.003  21.243  53.611  1.00  0.00    -0.356 OA
HETATM   23  C   UNL     1       8.702  20.114  54.418  1.00  0.00     0.210 C 
ENDBRANCH  18  22
ENDBRANCH  15  16
ENDBRANCH  14  15
ENDBRANCH  12  14
ENDBRANCH   3  12
BRANCH   1  24
HETATM   24  N   UNL     1       8.029  31.691  59.012  1.00  0.00    -0.277 NA
HETATM   25  H   UNL     1       7.508  32.025  59.820  1.00  0.00     0.129 HD
BRANCH  24  26
HETATM   26  C   UNL     1       9.455  31.565  59.317  1.00  0.00     0.093 C 
BRANCH  26  27
HETATM   27  C   UNL     1       9.734  32.061  60.737  1.00  0.00     0.010 C 
HETATM   28  C   UNL     1       8.754  31.504  61.760  1.00  0.00     0.006 C 
ENDBRANCH  26  27
ENDBRANCH  24  26
ENDBRANCH   1  24
TORSDOF 8
ENDMDL
MODEL 8
REMARK VINA RESULT:      -7.8      2.793      4.184
REMARK  8 active torsions:
REMARK  status: ('A' for Active; 'I' for Inactive)
REMARK    1  A    between atoms: C_2  and  C_3 
REMARK    2  A    between atoms: C_3  and  N_4 
REMARK    3  A    between atoms: N_4  and  C_5 
REMARK    4  A    between atoms: C_7  and  N_8 
REMARK    5  A    between atoms: N_8  and  C_9 
REMARK    6  A    between atoms: C_9  and  C_10 
REMARK    7  A    between atoms: C_10  and  C_11 
REMARK    8  A    between atoms: C_13  and  O_14 
ROOT
HETATM    1  C   UNL     1       5.619  26.428  51.715  1.00  0.00     0.119 A 
HETATM    2  N   UNL     1       4.770  27.281  52.322  1.00  0.00    -0.207 NA
HETATM    3  C   UNL     1       4.570  27.126  53.635  1.00  0.00     0.181 A 
HETATM    4  N   UNL     1       5.139  26.167  54.357  1.00  0.00    -0.330 N 
HETATM    5  H   UNL     1       4.863  26.093  55.327  1.00  0.00     0.168 HD
HETATM    6  C   UNL     1       6.011  25.315  53.810  1.00  0.00     0.048 A 
HETATM    7  C   UNL     1       6.302  25.423  52.435  1.00  0.00     0.031 A 
HETATM    8  C   UNL     1       6.629  24.336  54.602  1.00  0.00     0.030 A 
HETATM    9  C   UNL     1       7.557  23.462  54.037  1.00  0.00     0.002 A 
HETATM   10  C   UNL     1       7.872  23.563  52.686  1.00  0.00     0.001 A 
HETATM   11  C   UNL     1       7.254  24.531  51.890  1.00  0.00     0.017 A 
ENDROOT
BRANCH   3  12
HETATM   12  N   UNL     1       3.670  27.988  54.250  1.00  0.00    -0.262 NA
HETATM   13  H   UNL     1       2.976  28.193  53.524  1.00  0.00     0.130 HD
BRANCH  12  14
HETATM   14  C   UNL     1       4.261  29.222  54.775  1.00  0.00     0.100 C 
BRANCH  14  15
HETATM   15  C   UNL     1       4.513  29.097  56.283  1.00  0.00     0.053 C 
BRANCH  15  16
HETATM   16  C   UNL     1       5.950  28.735  56.567  1.00  0.00    -0.054 A 
HETATM   17  C   UNL     1       6.269  27.576  57.296  1.00  0.00     0.044 A 
HETATM   18  C   UNL     1       7.599  27.271  57.596  1.00  0.00     0.068 A 
HETATM   19  C   UNL     1       8.612  28.126  57.160  1.00  0.00     0.037 A 
HETATM   20  C   UNL     1       8.309  29.271  56.426  1.00  0.00     0.003 A 
HETATM   21  C   UNL     1       6.982  29.577  56.131  1.00  0.00     0.007 A 
BRANCH  18  22
HETATM   22  O   UNL     1       8.036  26.190  58.309  1.00  0.00    -0.356 OA
HETATM   23  C   UNL     1       8.480  25.058  57.574  1.00  0.00     0.210 C 
ENDBRANCH  18  22
ENDBRANCH  15  16
ENDBRANCH  14  15
ENDBRANCH  12  14
ENDBRANCH   3  12
BRANCH   1  24
HETATM   24  N   UNL     1       5.868  26.581  50.344  1.00  0.00    -0.277 NA
HETATM   25  H   UNL     1       6.530  25.881  50.016  1.00  0.00     0.129 HD
BRANCH  24  26
HETATM   26  C   UNL     1       4.697  26.653  49.467  1.00  0.00     0.093 C 
BRANCH  26  27
HETATM   27  C   UNL     1       4.714  27.963  48.678  1.00  0.00     0.010 C 
HETATM   28  C   UNL     1       5.403  27.831  47.328  1.00  0.00     0.006 C 
ENDBRANCH  26  27
ENDBRANCH  24  26
ENDBRANCH   1  24
TORSDOF 8
ENDMDL
MODEL 9
REMARK VINA RESULT:      -7.7      3.564      7.980
REMARK  8 active torsions:
REMARK  status: ('A' for Active; 'I' for Inactive)
REMARK    1  A    between atoms: C_2  and  C_3 
REMARK    2  A    between atoms: C_3  and  N_4 
REMARK    3  A    between atoms: N_4  and  C_5 
REMARK    4  A    between atoms: C_7  and  N_8 
REMARK    5  A    between atoms: N_8  and  C_9 
REMARK    6  A    between atoms: C_9  and  C_10 
REMARK    7  A    between atoms: C_10  and  C_11 
REMARK    8  A    between atoms: C_13  and  O_14 
ROOT
HETATM    1  C   UNL     1       6.254  25.049  55.323  1.00  0.00     0.119 A 
HETATM    2  N   UNL     1       5.338  25.552  54.473  1.00  0.00    -0.207 NA
HETATM    3  C   UNL     1       5.340  25.094  53.217  1.00  0.00     0.181 A 
HETATM    4  N   UNL     1       6.209  24.197  52.764  1.00  0.00    -0.330 N 
HETATM    5  H   UNL     1       6.171  23.973  51.778  1.00  0.00     0.168 HD
HETATM    6  C   UNL     1       7.119  23.645  53.573  1.00  0.00     0.048 A 
HETATM    7  C   UNL     1       7.169  24.051  54.921  1.00  0.00     0.031 A 
HETATM    8  C   UNL     1       7.999  22.671  53.080  1.00  0.00     0.030 A 
HETATM    9  C   UNL     1       8.931  22.076  53.929  1.00  0.00     0.002 A 
HETATM   10  C   UNL     1       8.987  22.450  55.268  1.00  0.00     0.001 A 
HETATM   11  C   UNL     1       8.118  23.425  55.763  1.00  0.00     0.017 A 
ENDROOT
BRANCH   3  12
HETATM   12  N   UNL     1       4.414  25.639  52.336  1.00  0.00    -0.262 NA
HETATM   13  H   UNL     1       4.147  24.857  51.730  1.00  0.00     0.130 HD
BRANCH  12  14
HETATM   14  C   UNL     1       4.908  26.771  51.546  1.00  0.00     0.100 C 
BRANCH  14  15
HETATM   15  C   UNL     1       5.177  26.338  50.099  1.00  0.00     0.053 C 
BRANCH  15  16
HETATM   16  C   UNL     1       4.003  26.659  49.208  1.00  0.00    -0.054 A 
HETATM   17  C   UNL     1       3.260  27.838  49.393  1.00  0.00     0.044 A 
HETATM   18  C   UNL     1       2.145  28.108  48.596  1.00  0.00     0.068 A 
HETATM   19  C   UNL     1       1.777  27.196  47.605  1.00  0.00     0.037 A 
HETATM   20  C   UNL     1       2.513  26.030  47.403  1.00  0.00     0.003 A 
HETATM   21  C   UNL     1       3.621  25.760  48.202  1.00  0.00     0.007 A 
BRANCH  18  22
HETATM   22  O   UNL     1       1.335  29.203  48.688  1.00  0.00    -0.356 OA
HETATM   23  C   UNL     1       1.387  29.956  49.892  1.00  0.00     0.210 C 
ENDBRANCH  18  22
ENDBRANCH  15  16
ENDBRANCH  14  15
ENDBRANCH  12  14
ENDBRANCH   3  12
BRANCH   1  24
HETATM   24  N   UNL     1       6.261  25.492  56.653  1.00  0.00    -0.277 NA
HETATM   25  H   UNL     1       6.940  24.973  57.204  1.00  0.00     0.129 HD
BRANCH  24  26
HETATM   26  C   UNL     1       6.398  26.935  56.865  1.00  0.00     0.093 C 
BRANCH  26  27
HETATM   27  C   UNL     1       7.813  27.261  57.348  1.00  0.00     0.010 C 
HETATM   28  C   UNL     1       7.926  28.656  57.945  1.00  0.00     0.006 C 
ENDBRANCH  26  27
ENDBRANCH  24  26
ENDBRANCH   1  24
TORSDOF 8
ENDMDL
MODEL 10
REMARK VINA RESULT:      -7.7      1.953      3.242
REMARK  8 active torsions:
REMARK  status: ('A' for Active; 'I' for Inactive)
REMARK    1  A    between atoms: C_2  and  C_3 
REMARK    2  A    between atoms: C_3  and  N_4 
REMARK    3  A    between atoms: N_4  and  C_5 
REMARK    4  A    between atoms: C_7  and  N_8 
REMARK    5  A    between atoms: N_8  and  C_9 
REMARK    6  A    between atoms: C_9  and  C_10 
REMARK    7  A    between atoms: C_10  and  C_11 
REMARK    8  A    between atoms: C_13  and  O_14 
ROOT
HETATM    1  C   UNL     1       6.143  26.224  55.714  1.00  0.00     0.119 A 
HETATM    2  N   UNL     1       6.373  27.224  56.588  1.00  0.00    -0.207 NA
HETATM    3  C   UNL     1       7.405  27.089  57.428  1.00  0.00     0.181 A 
HETATM    4  N   UNL     1       8.190  26.018  57.460  1.00  0.00    -0.330 N 
HETATM    5  H   UNL     1       8.896  25.983  58.183  1.00  0.00     0.168 HD
HETATM    6  C   UNL     1       8.023  25.012  56.596  1.00  0.00     0.048 A 
HETATM    7  C   UNL     1       6.975  25.084  55.657  1.00  0.00     0.031 A 
HETATM    8  C   UNL     1       8.890  23.909  56.625  1.00  0.00     0.030 A 
HETATM    9  C   UNL     1       8.733  22.872  55.707  1.00  0.00     0.002 A 
HETATM   10  C   UNL     1       7.715  22.931  54.760  1.00  0.00     0.001 A 
HETATM   11  C   UNL     1       6.844  24.023  54.731  1.00  0.00     0.017 A 
ENDROOT
BRANCH   3  12
HETATM   12  N   UNL     1       7.618  28.108  58.348  1.00  0.00    -0.262 NA
HETATM   13  H   UNL     1       6.757  28.134  58.904  1.00  0.00     0.130 HD
BRANCH  12  14
HETATM   14  C   UNL     1       7.902  29.420  57.758  1.00  0.00     0.100 C 
BRANCH  14  15
HETATM   15  C   UNL     1       9.083  30.086  58.476  1.00  0.00     0.053 C 
BRANCH  15  16
HETATM   16  C   UNL     1       8.620  30.857  59.687  1.00  0.00    -0.054 A 
HETATM   17  C   UNL     1       7.432  31.607  59.651  1.00  0.00     0.044 A 
HETATM   18  C   UNL     1       7.032  32.356  60.760  1.00  0.00     0.068 A 
HETATM   19  C   UNL     1       7.821  32.349  61.911  1.00  0.00     0.037 A 
HETATM   20  C   UNL     1       8.995  31.599  61.963  1.00  0.00     0.003 A 
HETATM   21  C   UNL     1       9.396  30.857  60.855  1.00  0.00     0.007 A 
BRANCH  18  22
HETATM   22  O   UNL     1       5.914  33.137  60.844  1.00  0.00    -0.356 OA
HETATM   23  C   UNL     1       4.709  32.613  60.303  1.00  0.00     0.210 C 
ENDBRANCH  18  22
ENDBRANCH  15  16
ENDBRANCH  14  15
ENDBRANCH  12  14
ENDBRANCH   3  12
BRANCH   1  24
HETATM   24  N   UNL     1       5.084  26.348  54.805  1.00  0.00    -0.277 NA
HETATM   25  H   UNL     1       4.191  26.383  55.293  1.00  0.00     0.129 HD
BRANCH  24  26
HETATM   26  C   UNL     1       5.189  27.423  53.816  1.00  0.00     0.093 C 
BRANCH  26  27
HETATM   27  C   UNL     1       4.653  26.946  52.464  1.00  0.00     0.010 C 
HETATM   28  C   UNL     1       5.470  25.804  51.876  1.00  0.00     0.006 C 
ENDBRANCH  26  27
ENDBRANCH  24  26
ENDBRANCH   1  24
TORSDOF 8
ENDMDL
