MODEL 1
REMARK VINA RESULT:      -8.4      0.000      0.000
REMARK  5 active torsions:
REMARK  status: ('A' for Active; 'I' for Inactive)
REMARK    1  A    between atoms: C_3  and  N_4 
REMARK       I    between atoms: N_4  and  C_5 
REMARK       I    between atoms: C_5  and  N_6 
REMARK    2  A    between atoms: N_6  and  C_7 
REMARK    3  A    between atoms: C_7  and  C_8 
REMARK    4  A    between atoms: C_8  and  O_9 
REMARK    5  A    between atoms: O_9  and  C_10 
ROOT
HETATM    1  N   UNL     1       7.891  28.569  58.050  1.00  0.00    -0.307 N 
HETATM    2  C   UNL     1       6.890  28.455  57.127  1.00  0.00     0.320 C 
HETATM    3  N   UNL     1       6.461  27.179  56.892  1.00  0.00    -0.340 N 
HETATM    4  O   UNL     1       6.335  29.369  56.531  1.00  0.00    -0.247 OA
HETATM    5  H   UNL     1       7.856  27.852  58.756  1.00  0.00     0.170 HD
HETATM    6  H   UNL     1       5.811  27.151  56.112  1.00  0.00     0.164 HD
ENDROOT
BRANCH   3   7
HETATM    7  C   UNL     1       7.098  25.917  57.248  1.00  0.00     0.156 C 
BRANCH   7   8
HETATM    8  C   UNL     1       6.672  24.756  56.333  1.00  0.00     0.142 C 
HETATM    9  C   UNL     1       5.496  25.144  55.437  1.00  0.00     0.042 C 
BRANCH   8  10
HETATM   10  O   UNL     1       7.766  24.407  55.473  1.00  0.00    -0.343 OA
BRANCH  10  11
HETATM   11  C   UNL     1       7.795  23.144  54.947  1.00  0.00     0.086 A 
HETATM   12  C   UNL     1       7.875  23.027  53.551  1.00  0.00     0.044 A 
HETATM   13 BR   UNL     1       7.891  24.561  52.429  1.00  0.00    -0.048 Br
HETATM   14  C   UNL     1       7.933  21.771  52.941  1.00  0.00     0.022 A 
HETATM   15  C   UNL     1       7.923  20.618  53.723  1.00  0.00     0.002 A 
HETATM   16  C   UNL     1       7.867  20.722  55.110  1.00  0.00     0.003 A 
HETATM   17  C   UNL     1       7.813  21.978  55.721  1.00  0.00     0.038 A 
ENDBRANCH  10  11
ENDBRANCH   8  10
ENDBRANCH   7   8
ENDBRANCH   3   7
BRANCH   1  18
HETATM   18  C   UNL     1       8.611  29.734  58.414  1.00  0.00     0.059 A 
HETATM   19  C   UNL     1       9.771  30.236  57.807  1.00  0.00    -0.032 A 
HETATM   20  C   UNL     1      10.507  29.580  56.674  1.00  0.00     0.050 C 
HETATM   21  C   UNL     1      10.311  31.438  58.300  1.00  0.00     0.028 A 
HETATM   22  C   UNL     1       9.734  32.056  59.397  1.00  0.00     0.117 A 
HETATM   23  N   UNL     1       8.663  31.566  60.044  1.00  0.00    -0.271 NA
HETATM   24  C   UNL     1       8.135  30.427  59.536  1.00  0.00     0.146 A 
ENDBRANCH   1  18
TORSDOF 5
ENDMDL
MODEL 2
REMARK VINA RESULT:      -8.3      2.141      3.401
REMARK  5 active torsions:
REMARK  status: ('A' for Active; 'I' for Inactive)
REMARK    1  A    between atoms: C_3  and  N_4 
REMARK       I    between atoms: N_4  and  C_5 
REMARK       I    between atoms: C_5  and  N_6 
REMARK    2  A    between atoms: N_6  and  C_7 
REMARK    3  A    between atoms: C_7  and  C_8 
REMARK    4  A    between atoms: C_8  and  O_9 
REMARK    5  A    between atoms: O_9  and  C_10 
ROOT
HETATM    1  N   UNL     1       6.441  26.738  55.685  1.00  0.00    -0.307 N 
HETATM    2  C   UNL     1       5.524  25.765  55.965  1.00  0.00     0.320 C 
HETATM    3  N   UNL     1       5.187  24.965  54.910  1.00  0.00    -0.340 N 
HETATM    4  O   UNL     1       5.013  25.530  57.052  1.00  0.00    -0.247 OA
HETATM    5  H   UNL     1       7.085  26.471  54.958  1.00  0.00     0.170 HD
HETATM    6  H   UNL     1       4.415  24.351  55.149  1.00  0.00     0.164 HD
ENDROOT
BRANCH   3   7
HETATM    7  C   UNL     1       5.429  25.173  53.487  1.00  0.00     0.156 C 
BRANCH   7   8
HETATM    8  C   UNL     1       6.664  24.412  52.975  1.00  0.00     0.142 C 
HETATM    9  C   UNL     1       7.499  25.266  52.022  1.00  0.00     0.042 C 
BRANCH   8  10
HETATM   10  O   UNL     1       7.503  24.069  54.087  1.00  0.00    -0.343 OA
BRANCH  10  11
HETATM   11  C   UNL     1       7.891  22.764  54.225  1.00  0.00     0.086 A 
HETATM   12  C   UNL     1       8.336  22.353  55.490  1.00  0.00     0.044 A 
HETATM   13 BR   UNL     1       8.445  23.571  56.945  1.00  0.00    -0.048 Br
HETATM   14  C   UNL     1       8.727  21.030  55.715  1.00  0.00     0.022 A 
HETATM   15  C   UNL     1       8.665  20.102  54.679  1.00  0.00     0.002 A 
HETATM   16  C   UNL     1       8.202  20.493  53.424  1.00  0.00     0.003 A 
HETATM   17  C   UNL     1       7.808  21.815  53.199  1.00  0.00     0.038 A 
ENDBRANCH  10  11
ENDBRANCH   8  10
ENDBRANCH   7   8
ENDBRANCH   3   7
BRANCH   1  18
HETATM   18  C   UNL     1       6.894  27.778  56.535  1.00  0.00     0.059 A 
HETATM   19  C   UNL     1       6.170  28.905  56.950  1.00  0.00    -0.032 A 
HETATM   20  C   UNL     1       4.776  29.249  56.511  1.00  0.00     0.050 C 
HETATM   21  C   UNL     1       6.794  29.806  57.834  1.00  0.00     0.028 A 
HETATM   22  C   UNL     1       8.110  29.598  58.216  1.00  0.00     0.117 A 
HETATM   23  N   UNL     1       8.852  28.565  57.784  1.00  0.00    -0.271 NA
HETATM   24  C   UNL     1       8.226  27.690  56.961  1.00  0.00     0.146 A 
ENDBRANCH   1  18
TORSDOF 5
ENDMDL
MODEL 3
REMARK VINA RESULT:      -8.3      2.874      8.094
REMARK  5 active torsions:
REMARK  status: ('A' for Active; 'I' for Inactive)
REMARK    1  A    between atoms: C_3  and  N_4 
REMARK       I    between atoms: N_4  and  C_5 
REMARK       I    between atoms: C_5  and  N_6 
REMARK    2  A    between atoms: N_6  and  C_7 
REMARK    3  A    between atoms: C_7  and  C_8 
REMARK    4  A    between atoms: C_8  and  O_9 
REMARK    5  A    between atoms: O_9  and  C_10 
ROOT
HETATM    1  N   UNL     1       7.238  24.099  55.953  1.00  0.00    -0.307 N 
HETATM    2  C   UNL     1       8.092  24.746  56.802  1.00  0.00     0.320 C 
HETATM    3  N   UNL     1       7.572  25.850  57.416  1.00  0.00    -0.340 N 
HETATM    4  O   UNL     1       9.238  24.417  57.080  1.00  0.00    -0.247 OA
HETATM    5  H   UNL     1       6.274  24.184  56.229  1.00  0.00     0.170 HD
HETATM    6  H   UNL     1       8.289  26.353  57.931  1.00  0.00     0.164 HD
ENDROOT
BRANCH   3   7
HETATM    7  C   UNL     1       6.368  26.602  57.085  1.00  0.00     0.156 C 
BRANCH   7   8
HETATM    8  C   UNL     1       6.616  28.119  57.004  1.00  0.00     0.142 C 
HETATM    9  C   UNL     1       5.312  28.911  57.102  1.00  0.00     0.042 C 
BRANCH   8  10
HETATM   10  O   UNL     1       7.443  28.522  58.104  1.00  0.00    -0.343 OA
BRANCH  10  11
HETATM   11  C   UNL     1       8.601  29.198  57.828  1.00  0.00     0.086 A 
HETATM   12  C   UNL     1       8.815  30.412  58.497  1.00  0.00     0.044 A 
HETATM   13 BR   UNL     1       7.528  31.118  59.704  1.00  0.00    -0.048 Br
HETATM   14  C   UNL     1       9.985  31.147  58.285  1.00  0.00     0.022 A 
HETATM   15  C   UNL     1      10.957  30.670  57.409  1.00  0.00     0.002 A 
HETATM   16  C   UNL     1      10.765  29.455  56.756  1.00  0.00     0.003 A 
HETATM   17  C   UNL     1       9.597  28.717  56.970  1.00  0.00     0.038 A 
ENDBRANCH  10  11
ENDBRANCH   8  10
ENDBRANCH   7   8
ENDBRANCH   3   7
BRANCH   1  18
HETATM   18  C   UNL     1       7.524  23.006  55.098  1.00  0.00     0.059 A 
HETATM   19  C   UNL     1       7.714  23.047  53.709  1.00  0.00    -0.032 A 
HETATM   20  C   UNL     1       7.586  24.275  52.853  1.00  0.00     0.050 C 
HETATM   21  C   UNL     1       8.030  21.845  53.047  1.00  0.00     0.028 A 
HETATM   22  C   UNL     1       8.082  20.658  53.759  1.00  0.00     0.117 A 
HETATM   23  N   UNL     1       7.840  20.574  55.077  1.00  0.00    -0.271 NA
HETATM   24  C   UNL     1       7.570  21.744  55.705  1.00  0.00     0.146 A 
ENDBRANCH   1  18
TORSDOF 5
ENDMDL
MODEL 4
REMARK VINA RESULT:      -8.0      3.107      7.836
REMARK  5 active torsions:
REMARK  status: ('A' for Active; 'I' for Inactive)
REMARK    1  A    between atoms: C_3  and  N_4 
REMARK       I    between atoms: N_4  and  C_5 
REMARK       I    between atoms: C_5  and  N_6 
REMARK    2  A    between atoms: N_6  and  C_7 
REMARK    3  A    between atoms: C_7  and  C_8 
REMARK    4  A    between atoms: C_8  and  O_9 
REMARK    5  A    between atoms: O_9  and  C_10 
ROOT
HETATM    1  N   UNL     1       6.695  25.219  55.094  1.00  0.00    -0.307 N 
HETATM    2  C   UNL     1       5.500  25.769  54.722  1.00  0.00     0.320 C 
HETATM    3  N   UNL     1       5.112  26.857  55.451  1.00  0.00    -0.340 N 
HETATM    4  O   UNL     1       4.781  25.407  53.800  1.00  0.00    -0.247 OA
HETATM    5  H   UNL     1       7.336  25.897  55.473  1.00  0.00     0.170 HD
HETATM    6  H   UNL     1       4.165  27.139  55.211  1.00  0.00     0.164 HD
ENDROOT
BRANCH   3   7
HETATM    7  C   UNL     1       5.620  27.333  56.732  1.00  0.00     0.156 C 
BRANCH   7   8
HETATM    8  C   UNL     1       6.330  28.693  56.624  1.00  0.00     0.142 C 
HETATM    9  C   UNL     1       5.331  29.843  56.491  1.00  0.00     0.042 C 
BRANCH   8  10
HETATM   10  O   UNL     1       7.090  28.927  57.817  1.00  0.00    -0.343 OA
BRANCH  10  11
HETATM   11  C   UNL     1       8.354  29.437  57.689  1.00  0.00     0.086 A 
HETATM   12  C   UNL     1       8.645  30.623  58.378  1.00  0.00     0.044 A 
HETATM   13 BR   UNL     1       7.324  31.516  59.413  1.00  0.00    -0.048 Br
HETATM   14  C   UNL     1       9.919  31.192  58.315  1.00  0.00     0.022 A 
HETATM   15  C   UNL     1      10.920  30.574  57.569  1.00  0.00     0.002 A 
HETATM   16  C   UNL     1      10.649  29.384  56.898  1.00  0.00     0.003 A 
HETATM   17  C   UNL     1       9.375  28.812  56.964  1.00  0.00     0.038 A 
ENDBRANCH  10  11
ENDBRANCH   8  10
ENDBRANCH   7   8
ENDBRANCH   3   7
BRANCH   1  18
HETATM   18  C   UNL     1       7.295  24.032  54.606  1.00  0.00     0.059 A 
HETATM   19  C   UNL     1       7.854  23.827  53.337  1.00  0.00    -0.032 A 
HETATM   20  C   UNL     1       7.863  24.833  52.223  1.00  0.00     0.050 C 
HETATM   21  C   UNL     1       8.440  22.576  53.064  1.00  0.00     0.028 A 
HETATM   22  C   UNL     1       8.394  21.570  54.015  1.00  0.00     0.117 A 
HETATM   23  N   UNL     1       7.807  21.712  55.215  1.00  0.00    -0.271 NA
HETATM   24  C   UNL     1       7.278  22.931  55.474  1.00  0.00     0.146 A 
ENDBRANCH   1  18
TORSDOF 5
ENDMDL
MODEL 5
REMARK VINA RESULT:      -7.7      6.152      8.706
REMARK  5 active torsions:
REMARK  status: ('A' for Active; 'I' for Inactive)
REMARK    1  A    between atoms: C_3  and  N_4 
REMARK       I    between atoms: N_4  and  C_5 
REMARK       I    between atoms: C_5  and  N_6 
REMARK    2  A    between atoms: N_6  and  C_7 
REMARK    3  A    between atoms: C_7  and  C_8 
REMARK    4  A    between atoms: C_8  and  O_9 
REMARK    5  A    between atoms: O_9  and  C_10 
ROOT
HETATM    1  N   UNL     1       3.773  26.706  49.495  1.00  0.00    -0.307 N 
HETATM    2  C   UNL     1       5.018  27.211  49.743  1.00  0.00     0.320 C 
HETATM    3  N   UNL     1       5.733  26.545  50.698  1.00  0.00    -0.340 N 
HETATM    4  O   UNL     1       5.549  28.160  49.182  1.00  0.00    -0.247 OA
HETATM    5  H   UNL     1       3.717  25.711  49.643  1.00  0.00     0.170 HD
HETATM    6  H   UNL     1       6.591  27.041  50.924  1.00  0.00     0.164 HD
ENDROOT
BRANCH   3   7
HETATM    7  C   UNL     1       5.268  25.578  51.684  1.00  0.00     0.156 C 
BRANCH   7   8
HETATM    8  C   UNL     1       5.832  25.844  53.091  1.00  0.00     0.142 C 
HETATM    9  C   UNL     1       5.069  26.961  53.803  1.00  0.00     0.042 C 
BRANCH   8  10
HETATM   10  O   UNL     1       5.693  24.659  53.888  1.00  0.00    -0.343 OA
BRANCH  10  11
HETATM   11  C   UNL     1       6.816  23.922  54.149  1.00  0.00     0.086 A 
HETATM   12  C   UNL     1       7.324  23.960  55.455  1.00  0.00     0.044 A 
HETATM   13 BR   UNL     1       6.517  25.032  56.801  1.00  0.00    -0.048 Br
HETATM   14  C   UNL     1       8.454  23.215  55.805  1.00  0.00     0.022 A 
HETATM   15  C   UNL     1       9.080  22.415  54.852  1.00  0.00     0.002 A 
HETATM   16  C   UNL     1       8.570  22.351  53.557  1.00  0.00     0.003 A 
HETATM   17  C   UNL     1       7.438  23.093  53.208  1.00  0.00     0.038 A 
ENDBRANCH  10  11
ENDBRANCH   8  10
ENDBRANCH   7   8
ENDBRANCH   3   7
BRANCH   1  18
HETATM   18  C   UNL     1       2.767  27.244  48.654  1.00  0.00     0.059 A 
HETATM   19  C   UNL     1       2.258  26.678  47.476  1.00  0.00    -0.032 A 
HETATM   20  C   UNL     1       2.740  25.400  46.851  1.00  0.00     0.050 C 
HETATM   21  C   UNL     1       1.226  27.360  46.804  1.00  0.00     0.028 A 
HETATM   22  C   UNL     1       0.788  28.586  47.276  1.00  0.00     0.117 A 
HETATM   23  N   UNL     1       1.300  29.187  48.362  1.00  0.00    -0.271 NA
HETATM   24  C   UNL     1       2.269  28.503  49.016  1.00  0.00     0.146 A 
ENDBRANCH   1  18
TORSDOF 5
ENDMDL
MODEL 6
REMARK VINA RESULT:      -7.6      3.530      7.543
REMARK  5 active torsions:
REMARK  status: ('A' for Active; 'I' for Inactive)
REMARK    1  A    between atoms: C_3  and  N_4 
REMARK       I    between atoms: N_4  and  C_5 
REMARK       I    between atoms: C_5  and  N_6 
REMARK    2  A    between atoms: N_6  and  C_7 
REMARK    3  A    between atoms: C_7  and  C_8 
REMARK    4  A    between atoms: C_8  and  O_9 
REMARK    5  A    between atoms: O_9  and  C_10 
ROOT
HETATM    1  N   UNL     1       7.031  24.100  53.853  1.00  0.00    -0.307 N 
HETATM    2  C   UNL     1       7.377  24.980  52.867  1.00  0.00     0.320 C 
HETATM    3  N   UNL     1       6.538  26.049  52.724  1.00  0.00    -0.340 N 
HETATM    4  O   UNL     1       8.360  24.917  52.140  1.00  0.00    -0.247 OA
HETATM    5  H   UNL     1       6.552  24.542  54.621  1.00  0.00     0.170 HD
HETATM    6  H   UNL     1       6.776  26.592  51.899  1.00  0.00     0.164 HD
ENDROOT
BRANCH   3   7
HETATM    7  C   UNL     1       5.193  26.237  53.254  1.00  0.00     0.156 C 
BRANCH   7   8
HETATM    8  C   UNL     1       4.927  27.684  53.703  1.00  0.00     0.142 C 
HETATM    9  C   UNL     1       3.568  28.186  53.215  1.00  0.00     0.042 C 
BRANCH   8  10
HETATM   10  O   UNL     1       4.911  27.738  55.137  1.00  0.00    -0.343 OA
BRANCH  10  11
HETATM   11  C   UNL     1       6.107  27.861  55.791  1.00  0.00     0.086 A 
HETATM   12  C   UNL     1       6.460  26.841  56.687  1.00  0.00     0.044 A 
HETATM   13 BR   UNL     1       5.303  25.369  57.019  1.00  0.00    -0.048 Br
HETATM   14  C   UNL     1       7.676  26.884  57.375  1.00  0.00     0.022 A 
HETATM   15  C   UNL     1       8.556  27.943  57.165  1.00  0.00     0.002 A 
HETATM   16  C   UNL     1       8.226  28.950  56.261  1.00  0.00     0.003 A 
HETATM   17  C   UNL     1       7.012  28.905  55.570  1.00  0.00     0.038 A 
ENDBRANCH  10  11
ENDBRANCH   8  10
ENDBRANCH   7   8
ENDBRANCH   3   7
BRANCH   1  18
HETATM   18  C   UNL     1       7.634  22.855  54.159  1.00  0.00     0.059 A 
HETATM   19  C   UNL     1       8.313  22.511  55.337  1.00  0.00    -0.032 A 
HETATM   20  C   UNL     1       8.578  23.441  56.486  1.00  0.00     0.050 C 
HETATM   21  C   UNL     1       8.807  21.198  55.459  1.00  0.00     0.028 A 
HETATM   22  C   UNL     1       8.673  20.309  54.405  1.00  0.00     0.117 A 
HETATM   23  N   UNL     1       8.088  20.627  53.238  1.00  0.00    -0.271 NA
HETATM   24  C   UNL     1       7.588  21.883  53.150  1.00  0.00     0.146 A 
ENDBRANCH   1  18
TORSDOF 5
ENDMDL
MODEL 7
REMARK VINA RESULT:      -7.6      3.465      5.604
REMARK  5 active torsions:
REMARK  status: ('A' for Active; 'I' for Inactive)
REMARK    1  A    between atoms: C_3  and  N_4 
REMARK       I    between atoms: N_4  and  C_5 
REMARK       I    between atoms: C_5  and  N_6 
REMARK    2  A    between atoms: N_6  and  C_7 
REMARK    3  A    between atoms: C_7  and  C_8 
REMARK    4  A    between atoms: C_8  and  O_9 
REMARK    5  A    between atoms: O_9  and  C_10 
ROOT
HETATM    1  N   UNL     1       5.806  26.708  54.156  1.00  0.00    -0.307 N 
HETATM    2  C   UNL     1       5.136  27.134  55.268  1.00  0.00     0.320 C 
HETATM    3  N   UNL     1       5.457  26.481  56.424  1.00  0.00    -0.340 N 
HETATM    4  O   UNL     1       4.319  28.044  55.328  1.00  0.00    -0.247 OA
HETATM    5  H   UNL     1       6.728  26.361  54.364  1.00  0.00     0.170 HD
HETATM    6  H   UNL     1       4.839  26.755  57.183  1.00  0.00     0.164 HD
ENDROOT
BRANCH   3   7
HETATM    7  C   UNL     1       6.175  25.224  56.599  1.00  0.00     0.156 C 
BRANCH   7   8
HETATM    8  C   UNL     1       7.675  25.344  56.279  1.00  0.00     0.142 C 
HETATM    9  C   UNL     1       8.411  26.181  57.326  1.00  0.00     0.042 C 
BRANCH   8  10
HETATM   10  O   UNL     1       8.266  24.037  56.286  1.00  0.00    -0.343 OA
BRANCH  10  11
HETATM   11  C   UNL     1       8.163  23.276  55.154  1.00  0.00     0.086 A 
HETATM   12  C   UNL     1       8.153  21.882  55.312  1.00  0.00     0.044 A 
HETATM   13 BR   UNL     1       8.326  21.078  57.025  1.00  0.00    -0.048 Br
HETATM   14  C   UNL     1       8.027  21.038  54.205  1.00  0.00     0.022 A 
HETATM   15  C   UNL     1       7.898  21.582  52.928  1.00  0.00     0.002 A 
HETATM   16  C   UNL     1       7.883  22.964  52.762  1.00  0.00     0.003 A 
HETATM   17  C   UNL     1       8.005  23.809  53.869  1.00  0.00     0.038 A 
ENDBRANCH  10  11
ENDBRANCH   8  10
ENDBRANCH   7   8
ENDBRANCH   3   7
BRANCH   1  18
HETATM   18  C   UNL     1       5.605  27.110  52.812  1.00  0.00     0.059 A 
HETATM   19  C   UNL     1       5.151  26.313  51.751  1.00  0.00    -0.032 A 
HETATM   20  C   UNL     1       4.846  24.846  51.839  1.00  0.00     0.050 C 
HETATM   21  C   UNL     1       4.981  26.920  50.492  1.00  0.00     0.028 A 
HETATM   22  C   UNL     1       5.322  28.251  50.315  1.00  0.00     0.117 A 
HETATM   23  N   UNL     1       5.822  29.023  51.294  1.00  0.00    -0.271 NA
HETATM   24  C   UNL     1       5.948  28.434  52.506  1.00  0.00     0.146 A 
ENDBRANCH   1  18
TORSDOF 5
ENDMDL
MODEL 8
REMARK VINA RESULT:      -7.6      1.685      2.161
REMARK  5 active torsions:
REMARK  status: ('A' for Active; 'I' for Inactive)
REMARK    1  A    between atoms: C_3  and  N_4 
REMARK       I    between atoms: N_4  and  C_5 
REMARK       I    between atoms: C_5  and  N_6 
REMARK    2  A    between atoms: N_6  and  C_7 
REMARK    3  A    between atoms: C_7  and  C_8 
REMARK    4  A    between atoms: C_8  and  O_9 
REMARK    5  A    between atoms: O_9  and  C_10 
ROOT
HETATM    1  N   UNL     1       7.205  28.690  57.735  1.00  0.00    -0.307 N 
HETATM    2  C   UNL     1       8.379  28.263  57.182  1.00  0.00     0.320 C 
HETATM    3  N   UNL     1       8.511  26.908  57.078  1.00  0.00    -0.340 N 
HETATM    4  O   UNL     1       9.285  28.965  56.753  1.00  0.00    -0.247 OA
HETATM    5  H   UNL     1       6.436  28.066  57.552  1.00  0.00     0.170 HD
HETATM    6  H   UNL     1       9.449  26.654  56.779  1.00  0.00     0.164 HD
ENDROOT
BRANCH   3   7
HETATM    7  C   UNL     1       7.734  25.858  57.725  1.00  0.00     0.156 C 
BRANCH   7   8
HETATM    8  C   UNL     1       6.932  25.007  56.726  1.00  0.00     0.142 C 
HETATM    9  C   UNL     1       5.677  25.736  56.243  1.00  0.00     0.042 C 
BRANCH   8  10
HETATM   10  O   UNL     1       7.742  24.745  55.571  1.00  0.00    -0.343 OA
BRANCH  10  11
HETATM   11  C   UNL     1       7.733  23.479  55.050  1.00  0.00     0.086 A 
HETATM   12  C   UNL     1       7.828  23.354  53.657  1.00  0.00     0.044 A 
HETATM   13 BR   UNL     1       7.915  24.881  52.528  1.00  0.00    -0.048 Br
HETATM   14  C   UNL     1       7.849  22.093  53.053  1.00  0.00     0.022 A 
HETATM   15  C   UNL     1       7.787  20.945  53.839  1.00  0.00     0.002 A 
HETATM   16  C   UNL     1       7.716  21.057  55.225  1.00  0.00     0.003 A 
HETATM   17  C   UNL     1       7.698  22.317  55.830  1.00  0.00     0.038 A 
ENDBRANCH  10  11
ENDBRANCH   8  10
ENDBRANCH   7   8
ENDBRANCH   3   7
BRANCH   1  18
HETATM   18  C   UNL     1       6.833  30.015  58.074  1.00  0.00     0.059 A 
HETATM   19  C   UNL     1       7.428  30.838  59.040  1.00  0.00    -0.032 A 
HETATM   20  C   UNL     1       8.551  30.433  59.951  1.00  0.00     0.050 C 
HETATM   21  C   UNL     1       6.930  32.146  59.195  1.00  0.00     0.028 A 
HETATM   22  C   UNL     1       5.839  32.563  58.449  1.00  0.00     0.117 A 
HETATM   23  N   UNL     1       5.205  31.777  57.563  1.00  0.00    -0.271 NA
HETATM   24  C   UNL     1       5.718  30.533  57.402  1.00  0.00     0.146 A 
ENDBRANCH   1  18
TORSDOF 5
ENDMDL
MODEL 9
REMARK VINA RESULT:      -7.6      2.805      4.258
REMARK  5 active torsions:
REMARK  status: ('A' for Active; 'I' for Inactive)
REMARK    1  A    between atoms: C_3  and  N_4 
REMARK       I    between atoms: N_4  and  C_5 
REMARK       I    between atoms: C_5  and  N_6 
REMARK    2  A    between atoms: N_6  and  C_7 
REMARK    3  A    between atoms: C_7  and  C_8 
REMARK    4  A    between atoms: C_8  and  O_9 
REMARK    5  A    between atoms: O_9  and  C_10 
ROOT
HETATM    1  N   UNL     1       7.146  31.258  59.916  1.00  0.00    -0.307 N 
HETATM    2  C   UNL     1       8.039  31.342  58.886  1.00  0.00     0.320 C 
HETATM    3  N   UNL     1       7.789  30.508  57.833  1.00  0.00    -0.340 N 
HETATM    4  O   UNL     1       8.998  32.098  58.807  1.00  0.00    -0.247 OA
HETATM    5  H   UNL     1       6.220  31.004  59.612  1.00  0.00     0.170 HD
HETATM    6  H   UNL     1       8.552  30.527  57.163  1.00  0.00     0.164 HD
ENDROOT
BRANCH   3   7
HETATM    7  C   UNL     1       6.903  29.352  57.769  1.00  0.00     0.156 C 
BRANCH   7   8
HETATM    8  C   UNL     1       7.110  28.512  56.497  1.00  0.00     0.142 C 
HETATM    9  C   UNL     1       8.469  28.788  55.852  1.00  0.00     0.042 C 
BRANCH   8  10
HETATM   10  O   UNL     1       7.076  27.120  56.839  1.00  0.00    -0.343 OA
BRANCH  10  11
HETATM   11  C   UNL     1       6.834  26.215  55.840  1.00  0.00     0.086 A 
HETATM   12  C   UNL     1       7.518  24.992  55.897  1.00  0.00     0.044 A 
HETATM   13 BR   UNL     1       8.770  24.620  57.278  1.00  0.00    -0.048 Br
HETATM   14  C   UNL     1       7.306  24.009  54.927  1.00  0.00     0.022 A 
HETATM   15  C   UNL     1       6.398  24.236  53.895  1.00  0.00     0.002 A 
HETATM   16  C   UNL     1       5.696  25.438  53.841  1.00  0.00     0.003 A 
HETATM   17  C   UNL     1       5.905  26.420  54.813  1.00  0.00     0.038 A 
ENDBRANCH  10  11
ENDBRANCH   8  10
ENDBRANCH   7   8
ENDBRANCH   3   7
BRANCH   1  18
HETATM   18  C   UNL     1       7.206  31.906  61.175  1.00  0.00     0.059 A 
HETATM   19  C   UNL     1       8.087  31.624  62.229  1.00  0.00    -0.032 A 
HETATM   20  C   UNL     1       9.107  30.522  62.234  1.00  0.00     0.050 C 
HETATM   21  C   UNL     1       8.008  32.417  63.390  1.00  0.00     0.028 A 
HETATM   22  C   UNL     1       7.035  33.398  63.491  1.00  0.00     0.117 A 
HETATM   23  N   UNL     1       6.134  33.648  62.527  1.00  0.00    -0.271 NA
HETATM   24  C   UNL     1       6.245  32.900  61.404  1.00  0.00     0.146 A 
ENDBRANCH   1  18
TORSDOF 5
ENDMDL
MODEL 10
REMARK VINA RESULT:      -7.4      3.180      8.455
REMARK  5 active torsions:
REMARK  status: ('A' for Active; 'I' for Inactive)
REMARK    1  A    between atoms: C_3  and  N_4 
REMARK       I    between atoms: N_4  and  C_5 
REMARK       I    between atoms: C_5  and  N_6 
REMARK    2  A    between atoms: N_6  and  C_7 
REMARK    3  A    between atoms: C_7  and  C_8 
REMARK    4  A    between atoms: C_8  and  O_9 
REMARK    5  A    between atoms: O_9  and  C_10 
ROOT
HETATM    1  N   UNL     1       6.316  26.272  55.608  1.00  0.00    -0.307 N 
HETATM    2  C   UNL     1       5.526  26.294  56.722  1.00  0.00     0.320 C 
HETATM    3  N   UNL     1       5.295  27.535  57.244  1.00  0.00    -0.340 N 
HETATM    4  O   UNL     1       4.994  25.333  57.263  1.00  0.00    -0.247 OA
HETATM    5  H   UNL     1       6.228  27.106  55.050  1.00  0.00     0.170 HD
HETATM    6  H   UNL     1       4.811  27.472  58.136  1.00  0.00     0.164 HD
ENDROOT
BRANCH   3   7
HETATM    7  C   UNL     1       5.990  28.787  56.975  1.00  0.00     0.156 C 
BRANCH   7   8
HETATM    8  C   UNL     1       7.218  28.993  57.879  1.00  0.00     0.142 C 
HETATM    9  C   UNL     1       8.460  28.305  57.311  1.00  0.00     0.042 C 
BRANCH   8  10
HETATM   10  O   UNL     1       7.511  30.395  57.967  1.00  0.00    -0.343 OA
BRANCH  10  11
HETATM   11  C   UNL     1       7.819  30.914  59.195  1.00  0.00     0.086 A 
HETATM   12  C   UNL     1       6.948  31.876  59.726  1.00  0.00     0.044 A 
HETATM   13 BR   UNL     1       5.424  32.474  58.760  1.00  0.00    -0.048 Br
HETATM   14  C   UNL     1       7.183  32.436  60.985  1.00  0.00     0.022 A 
HETATM   15  C   UNL     1       8.287  32.029  61.731  1.00  0.00     0.002 A 
HETATM   16  C   UNL     1       9.147  31.058  61.223  1.00  0.00     0.003 A 
HETATM   17  C   UNL     1       8.910  30.496  59.965  1.00  0.00     0.038 A 
ENDBRANCH  10  11
ENDBRANCH   8  10
ENDBRANCH   7   8
ENDBRANCH   3   7
BRANCH   1  18
HETATM   18  C   UNL     1       6.818  25.140  54.919  1.00  0.00     0.059 A 
HETATM   19  C   UNL     1       6.291  24.553  53.759  1.00  0.00    -0.032 A 
HETATM   20  C   UNL     1       5.039  24.995  53.058  1.00  0.00     0.050 C 
HETATM   21  C   UNL     1       6.969  23.449  53.208  1.00  0.00     0.028 A 
HETATM   22  C   UNL     1       8.084  22.934  53.847  1.00  0.00     0.117 A 
HETATM   23  N   UNL     1       8.575  23.430  54.995  1.00  0.00    -0.271 NA
HETATM   24  C   UNL     1       7.932  24.512  55.494  1.00  0.00     0.146 A 
ENDBRANCH   1  18
TORSDOF 5
ENDMDL
