MODEL 1
REMARK VINA RESULT:      -9.8      0.000      0.000
REMARK  5 active torsions:
REMARK  status: ('A' for Active; 'I' for Inactive)
REMARK    1  A    between atoms: C_2  and  C_3 
REMARK    2  A    between atoms: C_14  and  C_17 
REMARK       I    between atoms: C_17  and  N_19 
REMARK    3  A    between atoms: N_19  and  C_20 
REMARK    4  A    between atoms: C_20  and  C_22 
REMARK    5  A    between atoms: C_26  and  O_27 
ROOT
HETATM    1  C   UNL     1       8.974  29.626  58.323  1.00  0.00     0.162 C 
HETATM    2  O   UNL     1       8.721  30.066  59.670  1.00  0.00    -0.339 OA
HETATM    3  C   UNL     1       7.747  31.015  59.812  1.00  0.00     0.098 A 
HETATM    4  C   UNL     1       7.804  31.821  60.941  1.00  0.00     0.153 A 
HETATM    5  N   UNL     1       6.914  32.800  61.216  1.00  0.00    -0.270 NA
HETATM    6  C   UNL     1       5.918  32.967  60.324  1.00  0.00     0.117 A 
HETATM    7  C   UNL     1       5.767  32.196  59.179  1.00  0.00     0.034 A 
HETATM    8  C   UNL     1       6.692  31.180  58.907  1.00  0.00     0.011 A 
HETATM    9  C   UNL     1       6.613  30.285  57.744  1.00  0.00    -0.014 A 
HETATM   10  C   UNL     1       5.488  30.160  56.917  1.00  0.00     0.014 A 
HETATM   11  C   UNL     1       5.491  29.290  55.819  1.00  0.00     0.018 A 
HETATM   12  C   UNL     1       6.617  28.517  55.516  1.00  0.00     0.032 A 
HETATM   13  C   UNL     1       7.738  28.620  56.345  1.00  0.00     0.027 A 
HETATM   14  C   UNL     1       7.736  29.493  57.453  1.00  0.00    -0.017 A 
ENDROOT
BRANCH  12  15
HETATM   15  C   UNL     1       6.559  27.646  54.299  1.00  0.00     0.252 C 
HETATM   16  O   UNL     1       6.860  28.107  53.202  1.00  0.00    -0.268 OA
HETATM   17  N   UNL     1       6.184  26.332  54.468  1.00  0.00    -0.349 N 
HETATM   18  H   UNL     1       5.905  25.973  55.365  1.00  0.00     0.163 HD
BRANCH  17  19
HETATM   19  C   UNL     1       6.180  25.382  53.365  1.00  0.00     0.114 C 
HETATM   20  C   UNL     1       4.750  25.097  52.901  1.00  0.00     0.037 C 
BRANCH  19  21
HETATM   21  C   UNL     1       6.975  24.156  53.791  1.00  0.00    -0.033 A 
HETATM   22  C   UNL     1       7.532  23.340  52.791  1.00  0.00     0.009 A 
HETATM   23  C   UNL     1       8.322  22.241  53.123  1.00  0.00     0.003 A 
HETATM   24  C   UNL     1       8.569  21.946  54.462  1.00  0.00     0.037 A 
HETATM   25  C   UNL     1       8.031  22.741  55.475  1.00  0.00     0.068 A 
HETATM   26  C   UNL     1       7.246  23.848  55.137  1.00  0.00     0.046 A 
BRANCH  25  27
HETATM   27  O   UNL     1       8.357  22.343  56.742  1.00  0.00    -0.356 OA
HETATM   28  C   UNL     1       8.429  20.942  56.979  1.00  0.00     0.210 C 
ENDBRANCH  25  27
ENDBRANCH  19  21
ENDBRANCH  17  19
ENDBRANCH  12  15
BRANCH   1  29
HETATM   29  C   UNL     1      10.031  30.528  57.662  1.00  0.00     0.033 C 
HETATM   30  C   UNL     1      11.193  29.729  57.085  1.00  0.00     0.008 C 
ENDBRANCH   1  29
TORSDOF 5
ENDMDL
MODEL 2
REMARK VINA RESULT:      -9.6      1.191      2.526
REMARK  5 active torsions:
REMARK  status: ('A' for Active; 'I' for Inactive)
REMARK    1  A    between atoms: C_2  and  C_3 
REMARK    2  A    between atoms: C_14  and  C_17 
REMARK       I    between atoms: C_17  and  N_19 
REMARK    3  A    between atoms: N_19  and  C_20 
REMARK    4  A    between atoms: C_20  and  C_22 
REMARK    5  A    between atoms: C_26  and  O_27 
ROOT
HETATM    1  C   UNL     1       5.729  31.455  57.658  1.00  0.00     0.162 C 
HETATM    2  O   UNL     1       6.281  32.451  58.539  1.00  0.00    -0.339 OA
HETATM    3  C   UNL     1       7.123  31.984  59.509  1.00  0.00     0.098 A 
HETATM    4  C   UNL     1       7.272  32.761  60.650  1.00  0.00     0.153 A 
HETATM    5  N   UNL     1       8.069  32.430  61.691  1.00  0.00    -0.270 NA
HETATM    6  C   UNL     1       8.752  31.275  61.573  1.00  0.00     0.117 A 
HETATM    7  C   UNL     1       8.684  30.443  60.462  1.00  0.00     0.034 A 
HETATM    8  C   UNL     1       7.860  30.800  59.386  1.00  0.00     0.011 A 
HETATM    9  C   UNL     1       7.734  30.014  58.151  1.00  0.00    -0.014 A 
HETATM   10  C   UNL     1       8.597  28.971  57.786  1.00  0.00     0.014 A 
HETATM   11  C   UNL     1       8.407  28.260  56.594  1.00  0.00     0.018 A 
HETATM   12  C   UNL     1       7.351  28.571  55.730  1.00  0.00     0.032 A 
HETATM   13  C   UNL     1       6.496  29.622  56.076  1.00  0.00     0.027 A 
HETATM   14  C   UNL     1       6.688  30.342  57.274  1.00  0.00    -0.017 A 
ENDROOT
BRANCH  12  15
HETATM   15  C   UNL     1       7.188  27.735  54.498  1.00  0.00     0.252 C 
HETATM   16  O   UNL     1       7.677  28.109  53.436  1.00  0.00    -0.268 OA
HETATM   17  N   UNL     1       6.502  26.547  54.616  1.00  0.00    -0.349 N 
HETATM   18  H   UNL     1       6.075  26.266  55.482  1.00  0.00     0.163 HD
BRANCH  17  19
HETATM   19  C   UNL     1       6.363  25.621  53.501  1.00  0.00     0.114 C 
HETATM   20  C   UNL     1       4.892  25.454  53.116  1.00  0.00     0.037 C 
BRANCH  19  21
HETATM   21  C   UNL     1       7.086  24.332  53.862  1.00  0.00    -0.033 A 
HETATM   22  C   UNL     1       7.575  23.525  52.819  1.00  0.00     0.009 A 
HETATM   23  C   UNL     1       8.299  22.366  53.091  1.00  0.00     0.003 A 
HETATM   24  C   UNL     1       8.547  22.000  54.412  1.00  0.00     0.037 A 
HETATM   25  C   UNL     1       8.076  22.783  55.466  1.00  0.00     0.068 A 
HETATM   26  C   UNL     1       7.358  23.950  55.189  1.00  0.00     0.046 A 
BRANCH  25  27
HETATM   27  O   UNL     1       8.396  22.312  56.710  1.00  0.00    -0.356 OA
HETATM   28  C   UNL     1       8.425  20.900  56.876  1.00  0.00     0.210 C 
ENDBRANCH  25  27
ENDBRANCH  19  21
ENDBRANCH  17  19
ENDBRANCH  12  15
BRANCH   1  29
HETATM   29  C   UNL     1       4.422  30.893  58.247  1.00  0.00     0.033 C 
HETATM   30  C   UNL     1       3.294  30.859  57.225  1.00  0.00     0.008 C 
ENDBRANCH   1  29
TORSDOF 5
ENDMDL
MODEL 3
REMARK VINA RESULT:      -9.5      4.766      8.767
REMARK  5 active torsions:
REMARK  status: ('A' for Active; 'I' for Inactive)
REMARK    1  A    between atoms: C_2  and  C_3 
REMARK    2  A    between atoms: C_14  and  C_17 
REMARK       I    between atoms: C_17  and  N_19 
REMARK    3  A    between atoms: N_19  and  C_20 
REMARK    4  A    between atoms: C_20  and  C_22 
REMARK    5  A    between atoms: C_26  and  O_27 
ROOT
HETATM    1  C   UNL     1       7.427  24.917  55.965  1.00  0.00     0.162 C 
HETATM    2  O   UNL     1       8.471  23.988  56.313  1.00  0.00    -0.339 OA
HETATM    3  C   UNL     1       8.496  22.826  55.593  1.00  0.00     0.098 A 
HETATM    4  C   UNL     1       9.104  21.726  56.183  1.00  0.00     0.153 A 
HETATM    5  N   UNL     1       9.205  20.513  55.594  1.00  0.00    -0.270 NA
HETATM    6  C   UNL     1       8.682  20.407  54.357  1.00  0.00     0.117 A 
HETATM    7  C   UNL     1       8.075  21.456  53.680  1.00  0.00     0.034 A 
HETATM    8  C   UNL     1       7.982  22.710  54.296  1.00  0.00     0.011 A 
HETATM    9  C   UNL     1       7.389  23.897  53.663  1.00  0.00    -0.014 A 
HETATM   10  C   UNL     1       7.084  23.995  52.299  1.00  0.00     0.014 A 
HETATM   11  C   UNL     1       6.510  25.159  51.769  1.00  0.00     0.018 A 
HETATM   12  C   UNL     1       6.226  26.258  52.585  1.00  0.00     0.032 A 
HETATM   13  C   UNL     1       6.543  26.177  53.945  1.00  0.00     0.027 A 
HETATM   14  C   UNL     1       7.124  25.008  54.479  1.00  0.00    -0.017 A 
ENDROOT
BRANCH  12  15
HETATM   15  C   UNL     1       5.571  27.447  51.953  1.00  0.00     0.252 C 
HETATM   16  O   UNL     1       6.043  28.567  52.121  1.00  0.00    -0.268 OA
HETATM   17  N   UNL     1       4.457  27.226  51.173  1.00  0.00    -0.349 N 
HETATM   18  H   UNL     1       4.058  26.308  51.070  1.00  0.00     0.163 HD
BRANCH  17  19
HETATM   19  C   UNL     1       3.799  28.300  50.444  1.00  0.00     0.114 C 
HETATM   20  C   UNL     1       2.823  29.053  51.352  1.00  0.00     0.037 C 
BRANCH  19  21
HETATM   21  C   UNL     1       3.182  27.710  49.184  1.00  0.00    -0.033 A 
HETATM   22  C   UNL     1       3.967  26.848  48.397  1.00  0.00     0.009 A 
HETATM   23  C   UNL     1       3.435  26.230  47.267  1.00  0.00     0.003 A 
HETATM   24  C   UNL     1       2.109  26.462  46.911  1.00  0.00     0.037 A 
HETATM   25  C   UNL     1       1.307  27.311  47.676  1.00  0.00     0.068 A 
HETATM   26  C   UNL     1       1.842  27.923  48.814  1.00  0.00     0.046 A 
BRANCH  25  27
HETATM   27  O   UNL     1       0.025  27.446  47.218  1.00  0.00    -0.356 OA
HETATM   28  C   UNL     1      -0.152  27.507  45.808  1.00  0.00     0.210 C 
ENDBRANCH  25  27
ENDBRANCH  19  21
ENDBRANCH  17  19
ENDBRANCH  12  15
BRANCH   1  29
HETATM   29  C   UNL     1       6.157  24.614  56.781  1.00  0.00     0.033 C 
HETATM   30  C   UNL     1       5.330  25.865  57.049  1.00  0.00     0.008 C 
ENDBRANCH   1  29
TORSDOF 5
ENDMDL
MODEL 4
REMARK VINA RESULT:      -9.4      2.776      5.452
REMARK  5 active torsions:
REMARK  status: ('A' for Active; 'I' for Inactive)
REMARK    1  A    between atoms: C_2  and  C_3 
REMARK    2  A    between atoms: C_14  and  C_17 
REMARK       I    between atoms: C_17  and  N_19 
REMARK    3  A    between atoms: N_19  and  C_20 
REMARK    4  A    between atoms: C_20  and  C_22 
REMARK    5  A    between atoms: C_26  and  O_27 
ROOT
HETATM    1  C   UNL     1       5.458  33.285  60.922  1.00  0.00     0.162 C 
HETATM    2  O   UNL     1       5.308  34.369  61.857  1.00  0.00    -0.339 OA
HETATM    3  C   UNL     1       5.843  34.162  63.098  1.00  0.00     0.098 A 
HETATM    4  C   UNL     1       5.314  34.899  64.150  1.00  0.00     0.153 A 
HETATM    5  N   UNL     1       5.741  34.802  65.429  1.00  0.00    -0.270 NA
HETATM    6  C   UNL     1       6.748  33.937  65.657  1.00  0.00     0.117 A 
HETATM    7  C   UNL     1       7.353  33.174  64.667  1.00  0.00     0.034 A 
HETATM    8  C   UNL     1       6.908  33.287  63.343  1.00  0.00     0.011 A 
HETATM    9  C   UNL     1       7.493  32.553  62.212  1.00  0.00    -0.014 A 
HETATM   10  C   UNL     1       8.712  31.862  62.264  1.00  0.00     0.014 A 
HETATM   11  C   UNL     1       9.202  31.177  61.145  1.00  0.00     0.018 A 
HETATM   12  C   UNL     1       8.491  31.164  59.940  1.00  0.00     0.032 A 
HETATM   13  C   UNL     1       7.284  31.866  59.872  1.00  0.00     0.027 A 
HETATM   14  C   UNL     1       6.791  32.559  60.997  1.00  0.00    -0.017 A 
ENDROOT
BRANCH  12  15
HETATM   15  C   UNL     1       9.059  30.371  58.804  1.00  0.00     0.252 C 
HETATM   16  O   UNL     1      10.219  30.554  58.450  1.00  0.00    -0.268 OA
HETATM   17  N   UNL     1       8.246  29.434  58.207  1.00  0.00    -0.349 N 
HETATM   18  H   UNL     1       7.285  29.315  58.481  1.00  0.00     0.163 HD
BRANCH  17  19
HETATM   19  C   UNL     1       8.727  28.551  57.154  1.00  0.00     0.114 C 
HETATM   20  C   UNL     1       8.823  29.298  55.822  1.00  0.00     0.037 C 
BRANCH  19  21
HETATM   21  C   UNL     1       7.846  27.310  57.135  1.00  0.00    -0.033 A 
HETATM   22  C   UNL     1       6.453  27.481  57.043  1.00  0.00     0.009 A 
HETATM   23  C   UNL     1       5.602  26.381  56.959  1.00  0.00     0.003 A 
HETATM   24  C   UNL     1       6.134  25.093  56.961  1.00  0.00     0.037 A 
HETATM   25  C   UNL     1       7.513  24.895  57.049  1.00  0.00     0.068 A 
HETATM   26  C   UNL     1       8.364  26.002  57.124  1.00  0.00     0.046 A 
BRANCH  25  27
HETATM   27  O   UNL     1       7.899  23.583  57.034  1.00  0.00    -0.356 OA
HETATM   28  C   UNL     1       8.727  23.168  55.954  1.00  0.00     0.210 C 
ENDBRANCH  25  27
ENDBRANCH  19  21
ENDBRANCH  17  19
ENDBRANCH  12  15
BRANCH   1  29
HETATM   29  C   UNL     1       4.277  32.306  61.054  1.00  0.00     0.033 C 
HETATM   30  C   UNL     1       3.556  32.089  59.730  1.00  0.00     0.008 C 
ENDBRANCH   1  29
TORSDOF 5
ENDMDL
MODEL 5
REMARK VINA RESULT:      -9.1      2.876      5.571
REMARK  5 active torsions:
REMARK  status: ('A' for Active; 'I' for Inactive)
REMARK    1  A    between atoms: C_2  and  C_3 
REMARK    2  A    between atoms: C_14  and  C_17 
REMARK       I    between atoms: C_17  and  N_19 
REMARK    3  A    between atoms: N_19  and  C_20 
REMARK    4  A    between atoms: C_20  and  C_22 
REMARK    5  A    between atoms: C_26  and  O_27 
ROOT
HETATM    1  C   UNL     1       5.630  33.254  60.705  1.00  0.00     0.162 C 
HETATM    2  O   UNL     1       5.462  34.319  61.659  1.00  0.00    -0.339 OA
HETATM    3  C   UNL     1       5.988  34.092  62.901  1.00  0.00     0.098 A 
HETATM    4  C   UNL     1       5.444  34.803  63.962  1.00  0.00     0.153 A 
HETATM    5  N   UNL     1       5.860  34.685  65.243  1.00  0.00    -0.270 NA
HETATM    6  C   UNL     1       6.872  33.824  65.462  1.00  0.00     0.117 A 
HETATM    7  C   UNL     1       7.493  33.085  64.463  1.00  0.00     0.034 A 
HETATM    8  C   UNL     1       7.058  33.221  63.138  1.00  0.00     0.011 A 
HETATM    9  C   UNL     1       7.660  32.514  61.998  1.00  0.00    -0.014 A 
HETATM   10  C   UNL     1       8.884  31.832  62.048  1.00  0.00     0.014 A 
HETATM   11  C   UNL     1       9.389  31.173  60.919  1.00  0.00     0.018 A 
HETATM   12  C   UNL     1       8.689  31.178  59.708  1.00  0.00     0.032 A 
HETATM   13  C   UNL     1       7.476  31.871  59.644  1.00  0.00     0.027 A 
HETATM   14  C   UNL     1       6.968  32.538  60.777  1.00  0.00    -0.017 A 
ENDROOT
BRANCH  12  15
HETATM   15  C   UNL     1       9.273  30.412  58.562  1.00  0.00     0.252 C 
HETATM   16  O   UNL     1      10.420  30.645  58.191  1.00  0.00    -0.268 OA
HETATM   17  N   UNL     1       8.492  29.442  57.974  1.00  0.00    -0.349 N 
HETATM   18  H   UNL     1       7.542  29.282  58.262  1.00  0.00     0.163 HD
BRANCH  17  19
HETATM   19  C   UNL     1       8.996  28.583  56.912  1.00  0.00     0.114 C 
HETATM   20  C   UNL     1       9.411  29.412  55.695  1.00  0.00     0.037 C 
BRANCH  19  21
HETATM   21  C   UNL     1       7.953  27.510  56.636  1.00  0.00    -0.033 A 
HETATM   22  C   UNL     1       7.792  26.477  57.576  1.00  0.00     0.009 A 
HETATM   23  C   UNL     1       6.810  25.502  57.406  1.00  0.00     0.003 A 
HETATM   24  C   UNL     1       5.972  25.550  56.294  1.00  0.00     0.037 A 
HETATM   25  C   UNL     1       6.109  26.567  55.347  1.00  0.00     0.068 A 
HETATM   26  C   UNL     1       7.089  27.547  55.526  1.00  0.00     0.046 A 
BRANCH  25  27
HETATM   27  O   UNL     1       5.219  26.499  54.310  1.00  0.00    -0.356 OA
HETATM   28  C   UNL     1       5.156  25.271  53.595  1.00  0.00     0.210 C 
ENDBRANCH  25  27
ENDBRANCH  19  21
ENDBRANCH  17  19
ENDBRANCH  12  15
BRANCH   1  29
HETATM   29  C   UNL     1       4.456  32.263  60.806  1.00  0.00     0.033 C 
HETATM   30  C   UNL     1       3.738  32.079  59.476  1.00  0.00     0.008 C 
ENDBRANCH   1  29
TORSDOF 5
ENDMDL
MODEL 6
REMARK VINA RESULT:      -8.9      2.394      8.948
REMARK  5 active torsions:
REMARK  status: ('A' for Active; 'I' for Inactive)
REMARK    1  A    between atoms: C_2  and  C_3 
REMARK    2  A    between atoms: C_14  and  C_17 
REMARK       I    between atoms: C_17  and  N_19 
REMARK    3  A    between atoms: N_19  and  C_20 
REMARK    4  A    between atoms: C_20  and  C_22 
REMARK    5  A    between atoms: C_26  and  O_27 
ROOT
HETATM    1  C   UNL     1       5.955  25.386  53.643  1.00  0.00     0.162 C 
HETATM    2  O   UNL     1       6.106  23.969  53.434  1.00  0.00    -0.339 OA
HETATM    3  C   UNL     1       7.229  23.406  53.973  1.00  0.00     0.098 A 
HETATM    4  C   UNL     1       7.684  22.224  53.403  1.00  0.00     0.153 A 
HETATM    5  N   UNL     1       8.779  21.553  53.828  1.00  0.00    -0.270 NA
HETATM    6  C   UNL     1       9.435  22.088  54.876  1.00  0.00     0.117 A 
HETATM    7  C   UNL     1       9.044  23.252  55.523  1.00  0.00     0.034 A 
HETATM    8  C   UNL     1       7.904  23.936  55.079  1.00  0.00     0.011 A 
HETATM    9  C   UNL     1       7.381  25.158  55.706  1.00  0.00    -0.014 A 
HETATM   10  C   UNL     1       7.789  25.641  56.957  1.00  0.00     0.014 A 
HETATM   11  C   UNL     1       7.250  26.821  57.487  1.00  0.00     0.018 A 
HETATM   12  C   UNL     1       6.286  27.552  56.784  1.00  0.00     0.032 A 
HETATM   13  C   UNL     1       5.860  27.069  55.543  1.00  0.00     0.027 A 
HETATM   14  C   UNL     1       6.398  25.879  55.010  1.00  0.00    -0.017 A 
ENDROOT
BRANCH  12  15
HETATM   15  C   UNL     1       5.793  28.827  57.395  1.00  0.00     0.252 C 
HETATM   16  O   UNL     1       4.592  29.078  57.402  1.00  0.00    -0.268 OA
HETATM   17  N   UNL     1       6.725  29.671  57.957  1.00  0.00    -0.349 N 
HETATM   18  H   UNL     1       7.711  29.474  57.916  1.00  0.00     0.163 HD
BRANCH  17  19
HETATM   19  C   UNL     1       6.342  30.891  58.654  1.00  0.00     0.114 C 
HETATM   20  C   UNL     1       5.898  31.966  57.660  1.00  0.00     0.037 C 
BRANCH  19  21
HETATM   21  C   UNL     1       7.489  31.294  59.570  1.00  0.00    -0.033 A 
HETATM   22  C   UNL     1       8.780  31.389  59.022  1.00  0.00     0.009 A 
HETATM   23  C   UNL     1       9.856  31.814  59.798  1.00  0.00     0.003 A 
HETATM   24  C   UNL     1       9.654  32.153  61.134  1.00  0.00     0.037 A 
HETATM   25  C   UNL     1       8.382  32.070  61.703  1.00  0.00     0.068 A 
HETATM   26  C   UNL     1       7.304  31.652  60.918  1.00  0.00     0.046 A 
BRANCH  25  27
HETATM   27  O   UNL     1       8.324  32.438  63.019  1.00  0.00    -0.356 OA
HETATM   28  C   UNL     1       7.044  32.783  63.535  1.00  0.00     0.210 C 
ENDBRANCH  25  27
ENDBRANCH  19  21
ENDBRANCH  17  19
ENDBRANCH  12  15
BRANCH   1  29
HETATM   29  C   UNL     1       6.651  26.164  52.512  1.00  0.00     0.033 C 
HETATM   30  C   UNL     1       5.767  27.263  51.937  1.00  0.00     0.008 C 
ENDBRANCH   1  29
TORSDOF 5
ENDMDL
MODEL 7
REMARK VINA RESULT:      -8.9      2.292      8.699
REMARK  5 active torsions:
REMARK  status: ('A' for Active; 'I' for Inactive)
REMARK    1  A    between atoms: C_2  and  C_3 
REMARK    2  A    between atoms: C_14  and  C_17 
REMARK       I    between atoms: C_17  and  N_19 
REMARK    3  A    between atoms: N_19  and  C_20 
REMARK    4  A    between atoms: C_20  and  C_22 
REMARK    5  A    between atoms: C_26  and  O_27 
ROOT
HETATM    1  C   UNL     1       6.816  23.955  53.201  1.00  0.00     0.162 C 
HETATM    2  O   UNL     1       6.892  22.528  53.022  1.00  0.00    -0.339 OA
HETATM    3  C   UNL     1       7.663  21.856  53.929  1.00  0.00     0.098 A 
HETATM    4  C   UNL     1       8.180  20.628  53.538  1.00  0.00     0.153 A 
HETATM    5  N   UNL     1       8.957  19.850  54.325  1.00  0.00    -0.270 NA
HETATM    6  C   UNL     1       9.214  20.323  55.560  1.00  0.00     0.117 A 
HETATM    7  C   UNL     1       8.725  21.528  56.046  1.00  0.00     0.034 A 
HETATM    8  C   UNL     1       7.915  22.323  55.224  1.00  0.00     0.011 A 
HETATM    9  C   UNL     1       7.318  23.599  55.643  1.00  0.00    -0.014 A 
HETATM   10  C   UNL     1       7.265  24.049  56.970  1.00  0.00     0.014 A 
HETATM   11  C   UNL     1       6.686  25.284  57.291  1.00  0.00     0.018 A 
HETATM   12  C   UNL     1       6.141  26.105  56.298  1.00  0.00     0.032 A 
HETATM   13  C   UNL     1       6.173  25.657  54.973  1.00  0.00     0.027 A 
HETATM   14  C   UNL     1       6.752  24.412  54.648  1.00  0.00    -0.017 A 
ENDROOT
BRANCH  12  15
HETATM   15  C   UNL     1       5.582  27.430  56.716  1.00  0.00     0.252 C 
HETATM   16  O   UNL     1       4.399  27.524  57.024  1.00  0.00    -0.268 OA
HETATM   17  N   UNL     1       6.443  28.503  56.760  1.00  0.00    -0.349 N 
HETATM   18  H   UNL     1       7.404  28.424  56.472  1.00  0.00     0.163 HD
BRANCH  17  19
HETATM   19  C   UNL     1       6.022  29.813  57.236  1.00  0.00     0.114 C 
HETATM   20  C   UNL     1       5.356  30.610  56.112  1.00  0.00     0.037 C 
BRANCH  19  21
HETATM   21  C   UNL     1       7.220  30.491  57.884  1.00  0.00    -0.033 A 
HETATM   22  C   UNL     1       6.985  31.445  58.889  1.00  0.00     0.009 A 
HETATM   23  C   UNL     1       8.044  32.052  59.561  1.00  0.00     0.003 A 
HETATM   24  C   UNL     1       9.355  31.708  59.239  1.00  0.00     0.037 A 
HETATM   25  C   UNL     1       9.617  30.761  58.247  1.00  0.00     0.068 A 
HETATM   26  C   UNL     1       8.551  30.149  57.582  1.00  0.00     0.046 A 
BRANCH  25  27
HETATM   27  O   UNL     1      10.946  30.513  58.036  1.00  0.00    -0.356 OA
HETATM   28  C   UNL     1      11.272  29.573  57.021  1.00  0.00     0.210 C 
ENDBRANCH  25  27
ENDBRANCH  19  21
ENDBRANCH  17  19
ENDBRANCH  12  15
BRANCH   1  29
HETATM   29  C   UNL     1       7.964  24.645  52.443  1.00  0.00     0.033 C 
HETATM   30  C   UNL     1       7.667  26.111  52.155  1.00  0.00     0.008 C 
ENDBRANCH   1  29
TORSDOF 5
ENDMDL
MODEL 8
REMARK VINA RESULT:      -8.9      3.954      7.624
REMARK  5 active torsions:
REMARK  status: ('A' for Active; 'I' for Inactive)
REMARK    1  A    between atoms: C_2  and  C_3 
REMARK    2  A    between atoms: C_14  and  C_17 
REMARK       I    between atoms: C_17  and  N_19 
REMARK    3  A    between atoms: N_19  and  C_20 
REMARK    4  A    between atoms: C_20  and  C_22 
REMARK    5  A    between atoms: C_26  and  O_27 
ROOT
HETATM    1  C   UNL     1       5.299  34.592  61.827  1.00  0.00     0.162 C 
HETATM    2  O   UNL     1       5.002  35.708  62.686  1.00  0.00    -0.339 OA
HETATM    3  C   UNL     1       5.029  35.448  64.028  1.00  0.00     0.098 A 
HETATM    4  C   UNL     1       4.288  36.283  64.854  1.00  0.00     0.153 A 
HETATM    5  N   UNL     1       4.219  36.149  66.197  1.00  0.00    -0.270 NA
HETATM    6  C   UNL     1       4.934  35.141  66.733  1.00  0.00     0.117 A 
HETATM    7  C   UNL     1       5.720  34.269  65.991  1.00  0.00     0.034 A 
HETATM    8  C   UNL     1       5.790  34.421  64.600  1.00  0.00     0.011 A 
HETATM    9  C   UNL     1       6.612  33.578  63.720  1.00  0.00    -0.014 A 
HETATM   10  C   UNL     1       7.611  32.704  64.171  1.00  0.00     0.014 A 
HETATM   11  C   UNL     1       8.349  31.924  63.271  1.00  0.00     0.018 A 
HETATM   12  C   UNL     1       8.112  31.996  61.893  1.00  0.00     0.032 A 
HETATM   13  C   UNL     1       7.130  32.878  61.432  1.00  0.00     0.027 A 
HETATM   14  C   UNL     1       6.390  33.667  62.337  1.00  0.00    -0.017 A 
ENDROOT
BRANCH  12  15
HETATM   15  C   UNL     1       8.910  31.097  61.000  1.00  0.00     0.252 C 
HETATM   16  O   UNL     1       9.620  30.224  61.489  1.00  0.00    -0.268 OA
HETATM   17  N   UNL     1       8.793  31.276  59.640  1.00  0.00    -0.349 N 
HETATM   18  H   UNL     1       8.236  32.017  59.250  1.00  0.00     0.163 HD
BRANCH  17  19
HETATM   19  C   UNL     1       9.457  30.400  58.686  1.00  0.00     0.114 C 
HETATM   20  C   UNL     1      10.390  31.200  57.774  1.00  0.00     0.037 C 
BRANCH  19  21
HETATM   21  C   UNL     1       8.390  29.589  57.964  1.00  0.00    -0.033 A 
HETATM   22  C   UNL     1       8.776  28.398  57.325  1.00  0.00     0.009 A 
HETATM   23  C   UNL     1       7.832  27.583  56.702  1.00  0.00     0.003 A 
HETATM   24  C   UNL     1       6.488  27.947  56.715  1.00  0.00     0.037 A 
HETATM   25  C   UNL     1       6.078  29.123  57.345  1.00  0.00     0.068 A 
HETATM   26  C   UNL     1       7.026  29.933  57.976  1.00  0.00     0.046 A 
BRANCH  25  27
HETATM   27  O   UNL     1       4.731  29.357  57.288  1.00  0.00    -0.356 OA
HETATM   28  C   UNL     1       4.275  30.614  57.774  1.00  0.00     0.210 C 
ENDBRANCH  25  27
ENDBRANCH  19  21
ENDBRANCH  17  19
ENDBRANCH  12  15
BRANCH   1  29
HETATM   29  C   UNL     1       4.009  33.817  61.503  1.00  0.00     0.033 C 
HETATM   30  C   UNL     1       2.887  34.732  61.029  1.00  0.00     0.008 C 
ENDBRANCH   1  29
TORSDOF 5
ENDMDL
MODEL 9
REMARK VINA RESULT:      -8.8      4.741      8.160
REMARK  5 active torsions:
REMARK  status: ('A' for Active; 'I' for Inactive)
REMARK    1  A    between atoms: C_2  and  C_3 
REMARK    2  A    between atoms: C_14  and  C_17 
REMARK       I    between atoms: C_17  and  N_19 
REMARK    3  A    between atoms: N_19  and  C_20 
REMARK    4  A    between atoms: C_20  and  C_22 
REMARK    5  A    between atoms: C_26  and  O_27 
ROOT
HETATM    1  C   UNL     1       6.665  24.014  54.240  1.00  0.00     0.162 C 
HETATM    2  O   UNL     1       6.641  24.143  55.673  1.00  0.00    -0.339 OA
HETATM    3  C   UNL     1       7.072  25.342  56.169  1.00  0.00     0.098 A 
HETATM    4  C   UNL     1       7.546  25.358  57.474  1.00  0.00     0.153 A 
HETATM    5  N   UNL     1       8.004  26.466  58.099  1.00  0.00    -0.270 NA
HETATM    6  C   UNL     1       7.973  27.607  57.384  1.00  0.00     0.117 A 
HETATM    7  C   UNL     1       7.498  27.694  56.082  1.00  0.00     0.034 A 
HETATM    8  C   UNL     1       7.019  26.540  55.447  1.00  0.00     0.011 A 
HETATM    9  C   UNL     1       6.466  26.520  54.085  1.00  0.00    -0.014 A 
HETATM   10  C   UNL     1       6.110  27.665  53.360  1.00  0.00     0.014 A 
HETATM   11  C   UNL     1       5.595  27.566  52.060  1.00  0.00     0.018 A 
HETATM   12  C   UNL     1       5.419  26.321  51.448  1.00  0.00     0.032 A 
HETATM   13  C   UNL     1       5.754  25.171  52.171  1.00  0.00     0.027 A 
HETATM   14  C   UNL     1       6.268  25.269  53.480  1.00  0.00    -0.017 A 
ENDROOT
BRANCH  12  15
HETATM   15  C   UNL     1       4.908  26.301  50.041  1.00  0.00     0.252 C 
HETATM   16  O   UNL     1       4.127  25.424  49.686  1.00  0.00    -0.268 OA
HETATM   17  N   UNL     1       5.326  27.301  49.192  1.00  0.00    -0.349 N 
HETATM   18  H   UNL     1       5.993  27.996  49.482  1.00  0.00     0.163 HD
BRANCH  17  19
HETATM   19  C   UNL     1       4.820  27.423  47.832  1.00  0.00     0.114 C 
HETATM   20  C   UNL     1       5.800  28.210  46.959  1.00  0.00     0.037 C 
BRANCH  19  21
HETATM   21  C   UNL     1       3.412  27.996  47.899  1.00  0.00    -0.033 A 
HETATM   22  C   UNL     1       3.243  29.295  48.411  1.00  0.00     0.009 A 
HETATM   23  C   UNL     1       1.985  29.894  48.437  1.00  0.00     0.003 A 
HETATM   24  C   UNL     1       0.879  29.204  47.947  1.00  0.00     0.037 A 
HETATM   25  C   UNL     1       1.019  27.914  47.431  1.00  0.00     0.068 A 
HETATM   26  C   UNL     1       2.284  27.320  47.398  1.00  0.00     0.046 A 
BRANCH  25  27
HETATM   27  O   UNL     1      -0.144  27.355  46.979  1.00  0.00    -0.356 OA
HETATM   28  C   UNL     1      -0.636  27.816  45.726  1.00  0.00     0.210 C 
ENDBRANCH  25  27
ENDBRANCH  19  21
ENDBRANCH  17  19
ENDBRANCH  12  15
BRANCH   1  29
HETATM   29  C   UNL     1       8.037  23.489  53.780  1.00  0.00     0.033 C 
HETATM   30  C   UNL     1       8.092  21.967  53.748  1.00  0.00     0.008 C 
ENDBRANCH   1  29
TORSDOF 5
ENDMDL
MODEL 10
REMARK VINA RESULT:      -8.7      2.204      9.173
REMARK  5 active torsions:
REMARK  status: ('A' for Active; 'I' for Inactive)
REMARK    1  A    between atoms: C_2  and  C_3 
REMARK    2  A    between atoms: C_14  and  C_17 
REMARK       I    between atoms: C_17  and  N_19 
REMARK    3  A    between atoms: N_19  and  C_20 
REMARK    4  A    between atoms: C_20  and  C_22 
REMARK    5  A    between atoms: C_26  and  O_27 
ROOT
HETATM    1  C   UNL     1       7.900  26.313  56.072  1.00  0.00     0.162 C 
HETATM    2  O   UNL     1       7.510  26.011  54.720  1.00  0.00    -0.339 OA
HETATM    3  C   UNL     1       6.354  26.600  54.289  1.00  0.00     0.098 A 
HETATM    4  C   UNL     1       5.675  25.984  53.247  1.00  0.00     0.153 A 
HETATM    5  N   UNL     1       4.522  26.449  52.717  1.00  0.00    -0.270 NA
HETATM    6  C   UNL     1       4.039  27.588  53.250  1.00  0.00     0.117 A 
HETATM    7  C   UNL     1       4.658  28.286  54.278  1.00  0.00     0.034 A 
HETATM    8  C   UNL     1       5.856  27.799  54.816  1.00  0.00     0.011 A 
HETATM    9  C   UNL     1       6.613  28.469  55.883  1.00  0.00    -0.014 A 
HETATM   10  C   UNL     1       6.381  29.784  56.309  1.00  0.00     0.014 A 
HETATM   11  C   UNL     1       7.140  30.353  57.341  1.00  0.00     0.018 A 
HETATM   12  C   UNL     1       8.154  29.627  57.975  1.00  0.00     0.032 A 
HETATM   13  C   UNL     1       8.404  28.320  57.544  1.00  0.00     0.027 A 
HETATM   14  C   UNL     1       7.645  27.747  56.503  1.00  0.00    -0.017 A 
ENDROOT
BRANCH  12  15
HETATM   15  C   UNL     1       8.888  30.289  59.099  1.00  0.00     0.252 C 
HETATM   16  O   UNL     1       9.998  30.774  58.903  1.00  0.00    -0.268 OA
HETATM   17  N   UNL     1       8.265  30.348  60.326  1.00  0.00    -0.349 N 
HETATM   18  H   UNL     1       7.370  29.917  60.486  1.00  0.00     0.163 HD
BRANCH  17  19
HETATM   19  C   UNL     1       8.855  31.045  61.459  1.00  0.00     0.114 C 
HETATM   20  C   UNL     1       9.390  30.049  62.490  1.00  0.00     0.037 C 
BRANCH  19  21
HETATM   21  C   UNL     1       7.830  32.036  61.992  1.00  0.00    -0.033 A 
HETATM   22  C   UNL     1       7.994  32.530  63.298  1.00  0.00     0.009 A 
HETATM   23  C   UNL     1       7.123  33.486  63.816  1.00  0.00     0.003 A 
HETATM   24  C   UNL     1       6.076  33.965  63.032  1.00  0.00     0.037 A 
HETATM   25  C   UNL     1       5.891  33.494  61.731  1.00  0.00     0.068 A 
HETATM   26  C   UNL     1       6.773  32.541  61.212  1.00  0.00     0.046 A 
BRANCH  25  27
HETATM   27  O   UNL     1       4.831  34.052  61.070  1.00  0.00    -0.356 OA
HETATM   28  C   UNL     1       3.823  34.659  61.869  1.00  0.00     0.210 C 
ENDBRANCH  25  27
ENDBRANCH  19  21
ENDBRANCH  17  19
ENDBRANCH  12  15
BRANCH   1  29
HETATM   29  C   UNL     1       7.257  25.309  57.045  1.00  0.00     0.033 C 
HETATM   30  C   UNL     1       7.505  23.864  56.633  1.00  0.00     0.008 C 
ENDBRANCH   1  29
TORSDOF 5
ENDMDL
