MODEL 1
REMARK VINA RESULT:     -10.5      0.000      0.000
REMARK  8 active torsions:
REMARK  status: ('A' for Active; 'I' for Inactive)
REMARK    1  A    between atoms: C_3  and  S_4 
REMARK    2  A    between atoms: S_4  and  C_5 
REMARK    3  A    between atoms: C_5  and  C_6 
REMARK       I    between atoms: C_6  and  N_7 
REMARK    4  A    between atoms: N_7  and  C_8 
REMARK    5  A    between atoms: C_8  and  C_9 
REMARK    6  A    between atoms: C_18  and  C_19 
REMARK    7  A    between atoms: C_19  and  O_20 
REMARK    8  A    between atoms: O_20  and  C_21 
ROOT
HETATM    1  C   UNL     1       5.015  29.156  56.546  1.00  0.00     0.160 C 
HETATM    2  N   UNL     1       6.183  28.589  57.170  1.00  0.00    -0.314 N 
HETATM    3  C   UNL     1       7.115  29.226  57.939  1.00  0.00     0.191 A 
HETATM    4  N   UNL     1       8.015  28.363  58.351  1.00  0.00    -0.123 NA
HETATM    5  N   UNL     1       7.699  27.141  57.818  1.00  0.00    -0.132 NA
HETATM    6  C   UNL     1       6.596  27.276  57.104  1.00  0.00     0.154 A 
ENDROOT
BRANCH   3   7
HETATM    7  S   UNL     1       7.120  30.921  58.266  1.00  0.00    -0.081 SA
BRANCH   7   8
HETATM    8  C   UNL     1       8.885  31.218  58.569  1.00  0.00     0.185 C 
BRANCH   8   9
HETATM    9  C   UNL     1       9.192  31.442  60.041  1.00  0.00     0.227 C 
HETATM   10  N   UNL     1       8.593  30.561  60.908  1.00  0.00    -0.356 N 
HETATM   11  H   UNL     1       7.976  29.848  60.522  1.00  0.00     0.162 HD
HETATM   12  O   UNL     1       9.879  32.391  60.419  1.00  0.00    -0.273 OA
BRANCH  10  13
HETATM   13  C   UNL     1       8.621  30.733  62.341  1.00  0.00     0.161 C 
BRANCH  13  14
HETATM   14  C   UNL     1       7.626  31.762  62.815  1.00  0.00    -0.041 A 
HETATM   15  C   UNL     1       7.998  32.704  63.787  1.00  0.00     0.009 A 
HETATM   16  C   UNL     1       7.099  33.684  64.211  1.00  0.00     0.001 A 
HETATM   17  C   UNL     1       5.816  33.736  63.669  1.00  0.00     0.000 A 
HETATM   18  C   UNL     1       5.434  32.810  62.702  1.00  0.00     0.001 A 
HETATM   19  C   UNL     1       6.333  31.832  62.272  1.00  0.00     0.009 A 
ENDBRANCH  13  14
ENDBRANCH  10  13
ENDBRANCH   8   9
ENDBRANCH   7   8
ENDBRANCH   3   7
BRANCH   6  20
HETATM   20  C   UNL     1       5.911  26.202  56.334  1.00  0.00     0.256 C 
BRANCH  20  21
HETATM   21  O   UNL     1       6.567  26.128  55.068  1.00  0.00    -0.344 OA
BRANCH  21  22
HETATM   22  C   UNL     1       6.954  24.873  54.685  1.00  0.00     0.069 A 
HETATM   23  C   UNL     1       7.265  23.831  55.560  1.00  0.00     0.044 A 
HETATM   24  C   UNL     1       7.661  22.576  55.065  1.00  0.00    -0.049 A 
HETATM   25  C   UNL     1       7.776  22.381  53.677  1.00  0.00    -0.052 A 
HETATM   26  C   UNL     1       8.025  21.485  56.044  1.00  0.00     0.039 C 
HETATM   27  C   UNL     1       8.161  21.042  53.096  1.00  0.00     0.039 C 
HETATM   28  C   UNL     1       7.469  23.438  52.808  1.00  0.00     0.010 A 
HETATM   29  C   UNL     1       8.845  20.123  54.107  1.00  0.00     0.005 C 
HETATM   30  C   UNL     1       8.064  20.094  55.414  1.00  0.00     0.005 C 
HETATM   31  C   UNL     1       7.074  24.677  53.312  1.00  0.00     0.037 A 
ENDBRANCH  21  22
ENDBRANCH  20  21
ENDBRANCH   6  20
TORSDOF 8
ENDMDL
MODEL 2
REMARK VINA RESULT:     -10.0      1.684     11.186
REMARK  8 active torsions:
REMARK  status: ('A' for Active; 'I' for Inactive)
REMARK    1  A    between atoms: C_3  and  S_4 
REMARK    2  A    between atoms: S_4  and  C_5 
REMARK    3  A    between atoms: C_5  and  C_6 
REMARK       I    between atoms: C_6  and  N_7 
REMARK    4  A    between atoms: N_7  and  C_8 
REMARK    5  A    between atoms: C_8  and  C_9 
REMARK    6  A    between atoms: C_18  and  C_19 
REMARK    7  A    between atoms: C_19  and  O_20 
REMARK    8  A    between atoms: O_20  and  C_21 
ROOT
HETATM    1  C   UNL     1       5.045  29.432  56.822  1.00  0.00     0.160 C 
HETATM    2  N   UNL     1       6.209  28.740  57.309  1.00  0.00    -0.314 N 
HETATM    3  C   UNL     1       6.482  27.403  57.237  1.00  0.00     0.191 A 
HETATM    4  N   UNL     1       7.658  27.160  57.768  1.00  0.00    -0.123 NA
HETATM    5  N   UNL     1       8.161  28.346  58.233  1.00  0.00    -0.132 NA
HETATM    6  C   UNL     1       7.288  29.299  57.959  1.00  0.00     0.154 A 
ENDROOT
BRANCH   3   7
HETATM    7  S   UNL     1       5.403  26.219  56.590  1.00  0.00    -0.081 SA
BRANCH   7   8
HETATM    8  C   UNL     1       5.473  26.609  54.818  1.00  0.00     0.185 C 
BRANCH   8   9
HETATM    9  C   UNL     1       5.642  25.367  53.957  1.00  0.00     0.227 C 
HETATM   10  N   UNL     1       6.913  24.846  53.919  1.00  0.00    -0.356 N 
HETATM   11  H   UNL     1       7.648  25.327  54.435  1.00  0.00     0.162 HD
HETATM   12  O   UNL     1       4.711  24.910  53.295  1.00  0.00    -0.273 OA
BRANCH  10  13
HETATM   13  C   UNL     1       7.297  23.788  53.015  1.00  0.00     0.161 C 
BRANCH  13  14
HETATM   14  C   UNL     1       7.660  22.517  53.741  1.00  0.00    -0.041 A 
HETATM   15  C   UNL     1       8.149  21.414  53.023  1.00  0.00     0.009 A 
HETATM   16  C   UNL     1       8.521  20.242  53.684  1.00  0.00     0.001 A 
HETATM   17  C   UNL     1       8.409  20.157  55.070  1.00  0.00     0.000 A 
HETATM   18  C   UNL     1       7.928  21.244  55.796  1.00  0.00     0.001 A 
HETATM   19  C   UNL     1       7.560  22.419  55.137  1.00  0.00     0.009 A 
ENDBRANCH  13  14
ENDBRANCH  10  13
ENDBRANCH   8   9
ENDBRANCH   7   8
ENDBRANCH   3   7
BRANCH   6  20
HETATM   20  C   UNL     1       7.423  30.740  58.307  1.00  0.00     0.256 C 
BRANCH  20  21
HETATM   21  O   UNL     1       8.491  30.832  59.250  1.00  0.00    -0.344 OA
BRANCH  21  22
HETATM   22  C   UNL     1       8.164  31.417  60.443  1.00  0.00     0.069 A 
HETATM   23  C   UNL     1       7.224  32.436  60.603  1.00  0.00     0.044 A 
HETATM   24  C   UNL     1       6.966  32.978  61.874  1.00  0.00    -0.049 A 
HETATM   25  C   UNL     1       7.685  32.509  62.989  1.00  0.00    -0.052 A 
HETATM   26  C   UNL     1       5.969  34.105  62.001  1.00  0.00     0.039 C 
HETATM   27  C   UNL     1       7.416  33.031  64.379  1.00  0.00     0.039 C 
HETATM   28  C   UNL     1       8.632  31.491  62.815  1.00  0.00     0.010 A 
HETATM   29  C   UNL     1       6.688  34.374  64.386  1.00  0.00     0.005 C 
HETATM   30  C   UNL     1       5.499  34.340  63.435  1.00  0.00     0.005 C 
HETATM   31  C   UNL     1       8.878  30.960  61.548  1.00  0.00     0.037 A 
ENDBRANCH  21  22
ENDBRANCH  20  21
ENDBRANCH   6  20
TORSDOF 8
ENDMDL
MODEL 3
REMARK VINA RESULT:      -9.8      2.053      2.737
REMARK  8 active torsions:
REMARK  status: ('A' for Active; 'I' for Inactive)
REMARK    1  A    between atoms: C_3  and  S_4 
REMARK    2  A    between atoms: S_4  and  C_5 
REMARK    3  A    between atoms: C_5  and  C_6 
REMARK       I    between atoms: C_6  and  N_7 
REMARK    4  A    between atoms: N_7  and  C_8 
REMARK    5  A    between atoms: C_8  and  C_9 
REMARK    6  A    between atoms: C_18  and  C_19 
REMARK    7  A    between atoms: C_19  and  O_20 
REMARK    8  A    between atoms: O_20  and  C_21 
ROOT
HETATM    1  C   UNL     1       5.998  29.068  55.598  1.00  0.00     0.160 C 
HETATM    2  N   UNL     1       6.697  29.345  56.825  1.00  0.00    -0.314 N 
HETATM    3  C   UNL     1       6.495  30.384  57.690  1.00  0.00     0.191 A 
HETATM    4  N   UNL     1       7.311  30.276  58.712  1.00  0.00    -0.123 NA
HETATM    5  N   UNL     1       8.095  29.171  58.509  1.00  0.00    -0.132 NA
HETATM    6  C   UNL     1       7.727  28.610  57.371  1.00  0.00     0.154 A 
ENDROOT
BRANCH   3   7
HETATM    7  S   UNL     1       5.366  31.664  57.431  1.00  0.00    -0.081 SA
BRANCH   7   8
HETATM    8  C   UNL     1       3.932  31.067  58.371  1.00  0.00     0.185 C 
BRANCH   8   9
HETATM    9  C   UNL     1       3.647  31.917  59.599  1.00  0.00     0.227 C 
HETATM   10  N   UNL     1       4.439  31.658  60.691  1.00  0.00    -0.356 N 
HETATM   11  H   UNL     1       5.130  30.913  60.620  1.00  0.00     0.162 HD
HETATM   12  O   UNL     1       2.725  32.732  59.619  1.00  0.00    -0.273 OA
BRANCH  10  13
HETATM   13  C   UNL     1       4.190  32.234  61.991  1.00  0.00     0.161 C 
BRANCH  13  14
HETATM   14  C   UNL     1       5.463  32.485  62.760  1.00  0.00    -0.041 A 
HETATM   15  C   UNL     1       6.698  32.101  62.217  1.00  0.00     0.009 A 
HETATM   16  C   UNL     1       7.888  32.358  62.901  1.00  0.00     0.001 A 
HETATM   17  C   UNL     1       7.858  33.001  64.136  1.00  0.00     0.000 A 
HETATM   18  C   UNL     1       6.639  33.391  64.686  1.00  0.00     0.001 A 
HETATM   19  C   UNL     1       5.449  33.141  64.001  1.00  0.00     0.009 A 
ENDBRANCH  13  14
ENDBRANCH  10  13
ENDBRANCH   8   9
ENDBRANCH   7   8
ENDBRANCH   3   7
BRANCH   6  20
HETATM   20  C   UNL     1       8.329  27.396  56.756  1.00  0.00     0.256 C 
BRANCH  20  21
HETATM   21  O   UNL     1       7.393  26.335  56.949  1.00  0.00    -0.344 OA
BRANCH  21  22
HETATM   22  C   UNL     1       7.507  25.292  56.070  1.00  0.00     0.069 A 
HETATM   23  C   UNL     1       7.764  23.968  56.430  1.00  0.00     0.044 A 
HETATM   24  C   UNL     1       7.871  22.969  55.447  1.00  0.00    -0.049 A 
HETATM   25  C   UNL     1       7.750  23.313  54.088  1.00  0.00    -0.052 A 
HETATM   26  C   UNL     1       8.187  21.555  55.872  1.00  0.00     0.039 C 
HETATM   27  C   UNL     1       7.819  22.271  52.999  1.00  0.00     0.039 C 
HETATM   28  C   UNL     1       7.500  24.648  53.739  1.00  0.00     0.010 A 
HETATM   29  C   UNL     1       8.480  20.970  53.453  1.00  0.00     0.005 C 
HETATM   30  C   UNL     1       7.902  20.517  54.787  1.00  0.00     0.005 C 
HETATM   31  C   UNL     1       7.393  25.630  54.724  1.00  0.00     0.037 A 
ENDBRANCH  21  22
ENDBRANCH  20  21
ENDBRANCH   6  20
TORSDOF 8
ENDMDL
MODEL 4
REMARK VINA RESULT:      -9.7      1.788      2.215
REMARK  8 active torsions:
REMARK  status: ('A' for Active; 'I' for Inactive)
REMARK    1  A    between atoms: C_3  and  S_4 
REMARK    2  A    between atoms: S_4  and  C_5 
REMARK    3  A    between atoms: C_5  and  C_6 
REMARK       I    between atoms: C_6  and  N_7 
REMARK    4  A    between atoms: N_7  and  C_8 
REMARK    5  A    between atoms: C_8  and  C_9 
REMARK    6  A    between atoms: C_18  and  C_19 
REMARK    7  A    between atoms: C_19  and  O_20 
REMARK    8  A    between atoms: O_20  and  C_21 
ROOT
HETATM    1  C   UNL     1       3.802  28.984  54.117  1.00  0.00     0.160 C 
HETATM    2  N   UNL     1       4.488  28.656  55.340  1.00  0.00    -0.314 N 
HETATM    3  C   UNL     1       4.599  29.418  56.469  1.00  0.00     0.191 A 
HETATM    4  N   UNL     1       5.277  28.762  57.381  1.00  0.00    -0.123 NA
HETATM    5  N   UNL     1       5.656  27.562  56.841  1.00  0.00    -0.132 NA
HETATM    6  C   UNL     1       5.182  27.498  55.610  1.00  0.00     0.154 A 
ENDROOT
BRANCH   3   7
HETATM    7  S   UNL     1       3.978  31.021  56.631  1.00  0.00    -0.081 SA
BRANCH   7   8
HETATM    8  C   UNL     1       4.241  31.324  58.402  1.00  0.00     0.185 C 
BRANCH   8   9
HETATM    9  C   UNL     1       5.522  32.096  58.676  1.00  0.00     0.227 C 
HETATM   10  N   UNL     1       6.318  31.581  59.670  1.00  0.00    -0.356 N 
HETATM   11  H   UNL     1       5.995  30.752  60.167  1.00  0.00     0.162 HD
HETATM   12  O   UNL     1       5.782  33.143  58.084  1.00  0.00    -0.273 OA
BRANCH  10  13
HETATM   13  C   UNL     1       7.470  32.279  60.188  1.00  0.00     0.161 C 
BRANCH  13  14
HETATM   14  C   UNL     1       7.255  32.776  61.596  1.00  0.00    -0.041 A 
HETATM   15  C   UNL     1       8.097  32.338  62.631  1.00  0.00     0.009 A 
HETATM   16  C   UNL     1       7.932  32.815  63.933  1.00  0.00     0.001 A 
HETATM   17  C   UNL     1       6.924  33.734  64.217  1.00  0.00     0.000 A 
HETATM   18  C   UNL     1       6.084  34.180  63.200  1.00  0.00     0.001 A 
HETATM   19  C   UNL     1       6.250  33.709  61.896  1.00  0.00     0.009 A 
ENDBRANCH  13  14
ENDBRANCH  10  13
ENDBRANCH   8   9
ENDBRANCH   7   8
ENDBRANCH   3   7
BRANCH   6  20
HETATM   20  C   UNL     1       5.376  26.375  54.652  1.00  0.00     0.256 C 
BRANCH  20  21
HETATM   21  O   UNL     1       6.779  26.114  54.609  1.00  0.00    -0.344 OA
BRANCH  21  22
HETATM   22  C   UNL     1       7.121  24.802  54.419  1.00  0.00     0.069 A 
HETATM   23  C   UNL     1       7.415  23.897  55.441  1.00  0.00     0.044 A 
HETATM   24  C   UNL     1       7.766  22.570  55.140  1.00  0.00    -0.049 A 
HETATM   25  C   UNL     1       7.851  22.160  53.797  1.00  0.00    -0.052 A 
HETATM   26  C   UNL     1       8.113  21.631  56.270  1.00  0.00     0.039 C 
HETATM   27  C   UNL     1       8.186  20.736  53.425  1.00  0.00     0.039 C 
HETATM   28  C   UNL     1       7.562  23.080  52.780  1.00  0.00     0.010 A 
HETATM   29  C   UNL     1       8.859  19.962  54.557  1.00  0.00     0.005 C 
HETATM   30  C   UNL     1       8.099  20.159  55.862  1.00  0.00     0.005 C 
HETATM   31  C   UNL     1       7.213  24.394  53.091  1.00  0.00     0.037 A 
ENDBRANCH  21  22
ENDBRANCH  20  21
ENDBRANCH   6  20
TORSDOF 8
ENDMDL
MODEL 5
REMARK VINA RESULT:      -9.7      1.817     11.753
REMARK  8 active torsions:
REMARK  status: ('A' for Active; 'I' for Inactive)
REMARK    1  A    between atoms: C_3  and  S_4 
REMARK    2  A    between atoms: S_4  and  C_5 
REMARK    3  A    between atoms: C_5  and  C_6 
REMARK       I    between atoms: C_6  and  N_7 
REMARK    4  A    between atoms: N_7  and  C_8 
REMARK    5  A    between atoms: C_8  and  C_9 
REMARK    6  A    between atoms: C_18  and  C_19 
REMARK    7  A    between atoms: C_19  and  O_20 
REMARK    8  A    between atoms: O_20  and  C_21 
ROOT
HETATM    1  C   UNL     1       5.630  31.350  58.081  1.00  0.00     0.160 C 
HETATM    2  N   UNL     1       6.833  30.653  58.455  1.00  0.00    -0.314 N 
HETATM    3  C   UNL     1       7.375  29.543  57.870  1.00  0.00     0.191 A 
HETATM    4  N   UNL     1       8.493  29.223  58.478  1.00  0.00    -0.123 NA
HETATM    5  N   UNL     1       8.680  30.108  59.507  1.00  0.00    -0.132 NA
HETATM    6  C   UNL     1       7.680  30.970  59.494  1.00  0.00     0.154 A 
ENDROOT
BRANCH   3   7
HETATM    7  S   UNL     1       6.654  28.677  56.562  1.00  0.00    -0.081 SA
BRANCH   7   8
HETATM    8  C   UNL     1       7.996  27.542  56.107  1.00  0.00     0.185 C 
BRANCH   8   9
HETATM    9  C   UNL     1       7.830  26.165  56.732  1.00  0.00     0.227 C 
HETATM   10  N   UNL     1       7.555  25.148  55.850  1.00  0.00    -0.356 N 
HETATM   11  H   UNL     1       7.456  25.379  54.863  1.00  0.00     0.162 HD
HETATM   12  O   UNL     1       7.877  26.001  57.951  1.00  0.00    -0.273 OA
BRANCH  10  13
HETATM   13  C   UNL     1       7.185  23.821  56.280  1.00  0.00     0.161 C 
BRANCH  13  14
HETATM   14  C   UNL     1       7.489  22.775  55.237  1.00  0.00    -0.041 A 
HETATM   15  C   UNL     1       7.589  23.140  53.885  1.00  0.00     0.009 A 
HETATM   16  C   UNL     1       7.903  22.190  52.912  1.00  0.00     0.001 A 
HETATM   17  C   UNL     1       8.121  20.863  53.276  1.00  0.00     0.000 A 
HETATM   18  C   UNL     1       8.029  20.487  54.614  1.00  0.00     0.001 A 
HETATM   19  C   UNL     1       7.720  21.437  55.590  1.00  0.00     0.009 A 
ENDBRANCH  13  14
ENDBRANCH  10  13
ENDBRANCH   8   9
ENDBRANCH   7   8
ENDBRANCH   3   7
BRANCH   6  20
HETATM   20  C   UNL     1       7.475  32.091  60.452  1.00  0.00     0.256 C 
BRANCH  20  21
HETATM   21  O   UNL     1       7.503  31.520  61.760  1.00  0.00    -0.344 OA
BRANCH  21  22
HETATM   22  C   UNL     1       6.962  32.299  62.746  1.00  0.00     0.069 A 
HETATM   23  C   UNL     1       5.645  32.761  62.769  1.00  0.00     0.044 A 
HETATM   24  C   UNL     1       5.189  33.566  63.827  1.00  0.00    -0.049 A 
HETATM   25  C   UNL     1       6.077  33.934  64.854  1.00  0.00    -0.052 A 
HETATM   26  C   UNL     1       3.768  34.077  63.798  1.00  0.00     0.039 C 
HETATM   27  C   UNL     1       5.624  34.765  66.030  1.00  0.00     0.039 C 
HETATM   28  C   UNL     1       7.399  33.471  64.816  1.00  0.00     0.010 A 
HETATM   29  C   UNL     1       4.326  35.525  65.765  1.00  0.00     0.005 C 
HETATM   30  C   UNL     1       3.284  34.601  65.149  1.00  0.00     0.005 C 
HETATM   31  C   UNL     1       7.840  32.671  63.762  1.00  0.00     0.037 A 
ENDBRANCH  21  22
ENDBRANCH  20  21
ENDBRANCH   6  20
TORSDOF 8
ENDMDL
MODEL 6
REMARK VINA RESULT:      -9.7      2.268      3.045
REMARK  8 active torsions:
REMARK  status: ('A' for Active; 'I' for Inactive)
REMARK    1  A    between atoms: C_3  and  S_4 
REMARK    2  A    between atoms: S_4  and  C_5 
REMARK    3  A    between atoms: C_5  and  C_6 
REMARK       I    between atoms: C_6  and  N_7 
REMARK    4  A    between atoms: N_7  and  C_8 
REMARK    5  A    between atoms: C_8  and  C_9 
REMARK    6  A    between atoms: C_18  and  C_19 
REMARK    7  A    between atoms: C_19  and  O_20 
REMARK    8  A    between atoms: O_20  and  C_21 
ROOT
HETATM    1  C   UNL     1       4.129  28.733  54.401  1.00  0.00     0.160 C 
HETATM    2  N   UNL     1       5.239  29.163  55.210  1.00  0.00    -0.314 N 
HETATM    3  C   UNL     1       5.279  30.203  56.095  1.00  0.00     0.191 A 
HETATM    4  N   UNL     1       6.462  30.260  56.661  1.00  0.00    -0.123 NA
HETATM    5  N   UNL     1       7.234  29.267  56.119  1.00  0.00    -0.132 NA
HETATM    6  C   UNL     1       6.499  28.606  55.243  1.00  0.00     0.154 A 
ENDROOT
BRANCH   3   7
HETATM    7  S   UNL     1       3.974  31.300  56.372  1.00  0.00    -0.081 SA
BRANCH   7   8
HETATM    8  C   UNL     1       3.429  30.790  58.027  1.00  0.00     0.185 C 
BRANCH   8   9
HETATM    9  C   UNL     1       3.806  31.800  59.100  1.00  0.00     0.227 C 
HETATM   10  N   UNL     1       5.137  31.830  59.438  1.00  0.00    -0.356 N 
HETATM   11  H   UNL     1       5.766  31.172  58.980  1.00  0.00     0.162 HD
HETATM   12  O   UNL     1       2.956  32.490  59.662  1.00  0.00    -0.273 OA
BRANCH  10  13
HETATM   13  C   UNL     1       5.642  32.588  60.558  1.00  0.00     0.161 C 
BRANCH  13  14
HETATM   14  C   UNL     1       7.028  32.156  60.965  1.00  0.00    -0.041 A 
HETATM   15  C   UNL     1       7.217  31.439  62.157  1.00  0.00     0.009 A 
HETATM   16  C   UNL     1       8.490  31.003  62.531  1.00  0.00     0.001 A 
HETATM   17  C   UNL     1       9.589  31.278  61.719  1.00  0.00     0.000 A 
HETATM   18  C   UNL     1       9.415  31.986  60.533  1.00  0.00     0.001 A 
HETATM   19  C   UNL     1       8.142  32.418  60.154  1.00  0.00     0.009 A 
ENDBRANCH  13  14
ENDBRANCH  10  13
ENDBRANCH   8   9
ENDBRANCH   7   8
ENDBRANCH   3   7
BRANCH   6  20
HETATM   20  C   UNL     1       6.949  27.460  54.407  1.00  0.00     0.256 C 
BRANCH  20  21
HETATM   21  O   UNL     1       7.569  26.528  55.293  1.00  0.00    -0.344 OA
BRANCH  21  22
HETATM   22  C   UNL     1       7.675  25.251  54.813  1.00  0.00     0.069 A 
HETATM   23  C   UNL     1       7.888  24.117  55.599  1.00  0.00     0.044 A 
HETATM   24  C   UNL     1       7.992  22.846  55.007  1.00  0.00    -0.049 A 
HETATM   25  C   UNL     1       7.913  22.723  53.608  1.00  0.00    -0.052 A 
HETATM   26  C   UNL     1       8.260  21.648  55.886  1.00  0.00     0.039 C 
HETATM   27  C   UNL     1       7.980  21.377  52.928  1.00  0.00     0.039 C 
HETATM   28  C   UNL     1       7.707  23.870  52.828  1.00  0.00     0.010 A 
HETATM   29  C   UNL     1       8.595  20.289  53.808  1.00  0.00     0.005 C 
HETATM   30  C   UNL     1       7.973  20.315  55.198  1.00  0.00     0.005 C 
HETATM   31  C   UNL     1       7.603  25.125  53.428  1.00  0.00     0.037 A 
ENDBRANCH  21  22
ENDBRANCH  20  21
ENDBRANCH   6  20
TORSDOF 8
ENDMDL
MODEL 7
REMARK VINA RESULT:      -9.6      1.047      2.065
REMARK  8 active torsions:
REMARK  status: ('A' for Active; 'I' for Inactive)
REMARK    1  A    between atoms: C_3  and  S_4 
REMARK    2  A    between atoms: S_4  and  C_5 
REMARK    3  A    between atoms: C_5  and  C_6 
REMARK       I    between atoms: C_6  and  N_7 
REMARK    4  A    between atoms: N_7  and  C_8 
REMARK    5  A    between atoms: C_8  and  C_9 
REMARK    6  A    between atoms: C_18  and  C_19 
REMARK    7  A    between atoms: C_19  and  O_20 
REMARK    8  A    between atoms: O_20  and  C_21 
ROOT
HETATM    1  C   UNL     1       7.044  27.450  57.775  1.00  0.00     0.160 C 
HETATM    2  N   UNL     1       6.454  28.344  56.813  1.00  0.00    -0.314 N 
HETATM    3  C   UNL     1       6.275  29.694  56.922  1.00  0.00     0.191 A 
HETATM    4  N   UNL     1       5.729  30.160  55.823  1.00  0.00    -0.123 NA
HETATM    5  N   UNL     1       5.506  29.100  54.983  1.00  0.00    -0.132 NA
HETATM    6  C   UNL     1       5.942  28.005  55.580  1.00  0.00     0.154 A 
ENDROOT
BRANCH   3   7
HETATM    7  S   UNL     1       6.666  30.621  58.325  1.00  0.00    -0.081 SA
BRANCH   7   8
HETATM    8  C   UNL     1       8.464  30.792  58.147  1.00  0.00     0.185 C 
BRANCH   8   9
HETATM    9  C   UNL     1       9.135  31.252  59.432  1.00  0.00     0.227 C 
HETATM   10  N   UNL     1       8.637  30.698  60.586  1.00  0.00    -0.356 N 
HETATM   11  H   UNL     1       7.854  30.052  60.512  1.00  0.00     0.162 HD
HETATM   12  O   UNL     1      10.017  32.110  59.426  1.00  0.00    -0.273 OA
BRANCH  10  13
HETATM   13  C   UNL     1       9.023  31.153  61.900  1.00  0.00     0.161 C 
BRANCH  13  14
HETATM   14  C   UNL     1       7.884  31.812  62.637  1.00  0.00    -0.041 A 
HETATM   15  C   UNL     1       6.558  31.487  62.313  1.00  0.00     0.009 A 
HETATM   16  C   UNL     1       5.493  32.063  63.009  1.00  0.00     0.001 A 
HETATM   17  C   UNL     1       5.740  32.971  64.036  1.00  0.00     0.000 A 
HETATM   18  C   UNL     1       7.051  33.301  64.370  1.00  0.00     0.001 A 
HETATM   19  C   UNL     1       8.118  32.722  63.680  1.00  0.00     0.009 A 
ENDBRANCH  13  14
ENDBRANCH  10  13
ENDBRANCH   8   9
ENDBRANCH   7   8
ENDBRANCH   3   7
BRANCH   6  20
HETATM   20  C   UNL     1       5.877  26.623  55.031  1.00  0.00     0.256 C 
BRANCH  20  21
HETATM   21  O   UNL     1       7.162  26.346  54.474  1.00  0.00    -0.344 OA
BRANCH  21  22
HETATM   22  C   UNL     1       7.606  25.063  54.647  1.00  0.00     0.069 A 
HETATM   23  C   UNL     1       7.529  24.054  53.685  1.00  0.00     0.044 A 
HETATM   24  C   UNL     1       8.007  22.762  53.964  1.00  0.00    -0.049 A 
HETATM   25  C   UNL     1       8.538  22.477  55.235  1.00  0.00    -0.052 A 
HETATM   26  C   UNL     1       7.872  21.688  52.911  1.00  0.00     0.039 C 
HETATM   27  C   UNL     1       9.099  21.116  55.570  1.00  0.00     0.039 C 
HETATM   28  C   UNL     1       8.603  23.496  56.196  1.00  0.00     0.010 A 
HETATM   29  C   UNL     1       8.617  20.018  54.624  1.00  0.00     0.005 C 
HETATM   30  C   UNL     1       8.751  20.467  53.175  1.00  0.00     0.005 C 
HETATM   31  C   UNL     1       8.127  24.775  55.906  1.00  0.00     0.037 A 
ENDBRANCH  21  22
ENDBRANCH  20  21
ENDBRANCH   6  20
TORSDOF 8
ENDMDL
MODEL 8
REMARK VINA RESULT:      -9.2      4.502      5.920
REMARK  8 active torsions:
REMARK  status: ('A' for Active; 'I' for Inactive)
REMARK    1  A    between atoms: C_3  and  S_4 
REMARK    2  A    between atoms: S_4  and  C_5 
REMARK    3  A    between atoms: C_5  and  C_6 
REMARK       I    between atoms: C_6  and  N_7 
REMARK    4  A    between atoms: N_7  and  C_8 
REMARK    5  A    between atoms: C_8  and  C_9 
REMARK    6  A    between atoms: C_18  and  C_19 
REMARK    7  A    between atoms: C_19  and  O_20 
REMARK    8  A    between atoms: O_20  and  C_21 
ROOT
HETATM    1  C   UNL     1       4.715  27.895  49.909  1.00  0.00     0.160 C 
HETATM    2  N   UNL     1       4.562  27.689  51.326  1.00  0.00    -0.314 N 
HETATM    3  C   UNL     1       3.874  28.463  52.216  1.00  0.00     0.191 A 
HETATM    4  N   UNL     1       3.943  27.931  53.414  1.00  0.00    -0.123 NA
HETATM    5  N   UNL     1       4.719  26.805  53.329  1.00  0.00    -0.132 NA
HETATM    6  C   UNL     1       5.094  26.659  52.071  1.00  0.00     0.154 A 
ENDROOT
BRANCH   3   7
HETATM    7  S   UNL     1       3.083  29.945  51.816  1.00  0.00    -0.081 SA
BRANCH   7   8
HETATM    8  C   UNL     1       4.130  31.150  52.681  1.00  0.00     0.185 C 
BRANCH   8   9
HETATM    9  C   UNL     1       3.901  31.144  54.185  1.00  0.00     0.227 C 
HETATM   10  N   UNL     1       5.000  30.824  54.946  1.00  0.00    -0.356 N 
HETATM   11  H   UNL     1       5.867  30.591  54.466  1.00  0.00     0.162 HD
HETATM   12  O   UNL     1       2.789  31.350  54.668  1.00  0.00    -0.273 OA
BRANCH  10  13
HETATM   13  C   UNL     1       4.923  30.590  56.368  1.00  0.00     0.161 C 
BRANCH  13  14
HETATM   14  C   UNL     1       5.745  29.402  56.799  1.00  0.00    -0.041 A 
HETATM   15  C   UNL     1       5.235  28.103  56.647  1.00  0.00     0.009 A 
HETATM   16  C   UNL     1       5.998  26.991  57.009  1.00  0.00     0.001 A 
HETATM   17  C   UNL     1       7.279  27.163  57.528  1.00  0.00     0.000 A 
HETATM   18  C   UNL     1       7.800  28.445  57.682  1.00  0.00     0.001 A 
HETATM   19  C   UNL     1       7.041  29.559  57.315  1.00  0.00     0.009 A 
ENDBRANCH  13  14
ENDBRANCH  10  13
ENDBRANCH   8   9
ENDBRANCH   7   8
ENDBRANCH   3   7
BRANCH   6  20
HETATM   20  C   UNL     1       5.966  25.578  51.534  1.00  0.00     0.256 C 
BRANCH  20  21
HETATM   21  O   UNL     1       7.222  25.699  52.202  1.00  0.00    -0.344 OA
BRANCH  21  22
HETATM   22  C   UNL     1       7.526  24.677  53.059  1.00  0.00     0.069 A 
HETATM   23  C   UNL     1       7.664  23.338  52.689  1.00  0.00     0.044 A 
HETATM   24  C   UNL     1       7.970  22.359  53.651  1.00  0.00    -0.049 A 
HETATM   25  C   UNL     1       8.107  22.730  55.001  1.00  0.00    -0.052 A 
HETATM   26  C   UNL     1       8.074  20.916  53.219  1.00  0.00     0.039 C 
HETATM   27  C   UNL     1       8.473  21.722  56.064  1.00  0.00     0.039 C 
HETATM   28  C   UNL     1       7.958  24.076  55.361  1.00  0.00     0.010 A 
HETATM   29  C   UNL     1       8.213  20.278  55.638  1.00  0.00     0.005 C 
HETATM   30  C   UNL     1       8.773  20.025  54.245  1.00  0.00     0.005 C 
HETATM   31  C   UNL     1       7.657  25.039  54.397  1.00  0.00     0.037 A 
ENDBRANCH  21  22
ENDBRANCH  20  21
ENDBRANCH   6  20
TORSDOF 8
ENDMDL
MODEL 9
REMARK VINA RESULT:      -8.9      1.882     11.274
REMARK  8 active torsions:
REMARK  status: ('A' for Active; 'I' for Inactive)
REMARK    1  A    between atoms: C_3  and  S_4 
REMARK    2  A    between atoms: S_4  and  C_5 
REMARK    3  A    between atoms: C_5  and  C_6 
REMARK       I    between atoms: C_6  and  N_7 
REMARK    4  A    between atoms: N_7  and  C_8 
REMARK    5  A    between atoms: C_8  and  C_9 
REMARK    6  A    between atoms: C_18  and  C_19 
REMARK    7  A    between atoms: C_19  and  O_20 
REMARK    8  A    between atoms: O_20  and  C_21 
ROOT
HETATM    1  C   UNL     1       3.577  30.355  56.902  1.00  0.00     0.160 C 
HETATM    2  N   UNL     1       4.951  30.024  57.171  1.00  0.00    -0.314 N 
HETATM    3  C   UNL     1       5.642  28.916  56.766  1.00  0.00     0.191 A 
HETATM    4  N   UNL     1       6.883  28.988  57.187  1.00  0.00    -0.123 NA
HETATM    5  N   UNL     1       7.013  30.141  57.915  1.00  0.00    -0.132 NA
HETATM    6  C   UNL     1       5.849  30.765  57.908  1.00  0.00     0.154 A 
ENDROOT
BRANCH   3   7
HETATM    7  S   UNL     1       4.952  27.605  55.878  1.00  0.00    -0.081 SA
BRANCH   7   8
HETATM    8  C   UNL     1       5.591  26.179  56.802  1.00  0.00     0.185 C 
BRANCH   8   9
HETATM    9  C   UNL     1       6.827  25.574  56.155  1.00  0.00     0.227 C 
HETATM   10  N   UNL     1       7.261  24.392  56.706  1.00  0.00    -0.356 N 
HETATM   11  H   UNL     1       6.757  24.021  57.509  1.00  0.00     0.162 HD
HETATM   12  O   UNL     1       7.423  26.147  55.244  1.00  0.00    -0.273 OA
BRANCH  10  13
HETATM   13  C   UNL     1       8.515  23.776  56.344  1.00  0.00     0.161 C 
BRANCH  13  14
HETATM   14  C   UNL     1       8.341  22.676  55.327  1.00  0.00    -0.041 A 
HETATM   15  C   UNL     1       8.300  21.336  55.743  1.00  0.00     0.009 A 
HETATM   16  C   UNL     1       8.106  20.309  54.818  1.00  0.00     0.001 A 
HETATM   17  C   UNL     1       7.950  20.607  53.466  1.00  0.00     0.000 A 
HETATM   18  C   UNL     1       7.985  21.932  53.039  1.00  0.00     0.001 A 
HETATM   19  C   UNL     1       8.174  22.962  53.963  1.00  0.00     0.009 A 
ENDBRANCH  13  14
ENDBRANCH  10  13
ENDBRANCH   8   9
ENDBRANCH   7   8
ENDBRANCH   3   7
BRANCH   6  20
HETATM   20  C   UNL     1       5.536  32.048  58.595  1.00  0.00     0.256 C 
BRANCH  20  21
HETATM   21  O   UNL     1       6.652  32.342  59.435  1.00  0.00    -0.344 OA
BRANCH  21  22
HETATM   22  C   UNL     1       6.334  32.793  60.688  1.00  0.00     0.069 A 
HETATM   23  C   UNL     1       7.174  32.721  61.800  1.00  0.00     0.044 A 
HETATM   24  C   UNL     1       6.748  33.206  63.049  1.00  0.00    -0.049 A 
HETATM   25  C   UNL     1       5.454  33.739  63.184  1.00  0.00    -0.052 A 
HETATM   26  C   UNL     1       7.671  33.077  64.238  1.00  0.00     0.039 C 
HETATM   27  C   UNL     1       4.965  34.307  64.494  1.00  0.00     0.039 C 
HETATM   28  C   UNL     1       4.616  33.798  62.061  1.00  0.00     0.010 A 
HETATM   29  C   UNL     1       5.778  33.830  65.696  1.00  0.00     0.005 C 
HETATM   30  C   UNL     1       7.269  33.962  65.416  1.00  0.00     0.005 C 
HETATM   31  C   UNL     1       5.051  33.316  60.826  1.00  0.00     0.037 A 
ENDBRANCH  21  22
ENDBRANCH  20  21
ENDBRANCH   6  20
TORSDOF 8
ENDMDL
MODEL 10
REMARK VINA RESULT:      -8.8      2.506      3.519
REMARK  8 active torsions:
REMARK  status: ('A' for Active; 'I' for Inactive)
REMARK    1  A    between atoms: C_3  and  S_4 
REMARK    2  A    between atoms: S_4  and  C_5 
REMARK    3  A    between atoms: C_5  and  C_6 
REMARK       I    between atoms: C_6  and  N_7 
REMARK    4  A    between atoms: N_7  and  C_8 
REMARK    5  A    between atoms: C_8  and  C_9 
REMARK    6  A    between atoms: C_18  and  C_19 
REMARK    7  A    between atoms: C_19  and  O_20 
REMARK    8  A    between atoms: O_20  and  C_21 
ROOT
HETATM    1  C   UNL     1       4.921  29.373  55.714  1.00  0.00     0.160 C 
HETATM    2  N   UNL     1       5.618  30.001  56.806  1.00  0.00    -0.314 N 
HETATM    3  C   UNL     1       5.208  31.061  57.563  1.00  0.00     0.191 A 
HETATM    4  N   UNL     1       6.106  31.324  58.483  1.00  0.00    -0.123 NA
HETATM    5  N   UNL     1       7.149  30.451  58.313  1.00  0.00    -0.132 NA
HETATM    6  C   UNL     1       6.856  29.654  57.302  1.00  0.00     0.154 A 
ENDROOT
BRANCH   3   7
HETATM    7  S   UNL     1       3.746  31.943  57.300  1.00  0.00    -0.081 SA
BRANCH   7   8
HETATM    8  C   UNL     1       4.134  33.521  58.111  1.00  0.00     0.185 C 
BRANCH   8   9
HETATM    9  C   UNL     1       3.720  33.539  59.574  1.00  0.00     0.227 C 
HETATM   10  N   UNL     1       4.555  34.236  60.413  1.00  0.00    -0.356 N 
HETATM   11  H   UNL     1       5.391  34.663  60.016  1.00  0.00     0.162 HD
HETATM   12  O   UNL     1       2.738  32.915  59.973  1.00  0.00    -0.273 OA
BRANCH  10  13
HETATM   13  C   UNL     1       4.422  34.206  61.850  1.00  0.00     0.161 C 
BRANCH  13  14
HETATM   14  C   UNL     1       5.684  33.744  62.533  1.00  0.00    -0.041 A 
HETATM   15  C   UNL     1       5.980  34.186  63.832  1.00  0.00     0.009 A 
HETATM   16  C   UNL     1       7.128  33.740  64.492  1.00  0.00     0.001 A 
HETATM   17  C   UNL     1       7.993  32.848  63.862  1.00  0.00     0.000 A 
HETATM   18  C   UNL     1       7.710  32.399  62.574  1.00  0.00     0.001 A 
HETATM   19  C   UNL     1       6.560  32.839  61.915  1.00  0.00     0.009 A 
ENDBRANCH  13  14
ENDBRANCH  10  13
ENDBRANCH   8   9
ENDBRANCH   7   8
ENDBRANCH   3   7
BRANCH   6  20
HETATM   20  C   UNL     1       7.720  28.569  56.761  1.00  0.00     0.256 C 
BRANCH  20  21
HETATM   21  O   UNL     1       7.276  27.355  57.368  1.00  0.00    -0.344 OA
BRANCH  21  22
HETATM   22  C   UNL     1       7.619  26.211  56.700  1.00  0.00     0.069 A 
HETATM   23  C   UNL     1       7.190  25.879  55.414  1.00  0.00     0.044 A 
HETATM   24  C   UNL     1       7.593  24.671  54.817  1.00  0.00    -0.049 A 
HETATM   25  C   UNL     1       8.408  23.778  55.535  1.00  0.00    -0.052 A 
HETATM   26  C   UNL     1       7.079  24.329  53.439  1.00  0.00     0.039 C 
HETATM   27  C   UNL     1       8.897  22.488  54.924  1.00  0.00     0.039 C 
HETATM   28  C   UNL     1       8.825  24.119  56.829  1.00  0.00     0.010 A 
HETATM   29  C   UNL     1       8.076  22.047  53.714  1.00  0.00     0.005 C 
HETATM   30  C   UNL     1       7.868  23.213  52.757  1.00  0.00     0.005 C 
HETATM   31  C   UNL     1       8.421  25.322  57.410  1.00  0.00     0.037 A 
ENDBRANCH  21  22
ENDBRANCH  20  21
ENDBRANCH   6  20
TORSDOF 8
ENDMDL
