MODEL 1
REMARK VINA RESULT:     -10.1      0.000      0.000
REMARK  9 active torsions:
REMARK  status: ('A' for Active; 'I' for Inactive)
REMARK    1  A    between atoms: C_2  and  C_3 
REMARK    2  A    between atoms: C_3  and  C_4 
REMARK    3  A    between atoms: C_3  and  C_38 
REMARK    4  A    between atoms: C_6  and  C_7 
REMARK    5  A    between atoms: C_14  and  C_15 
REMARK    6  A    between atoms: C_18  and  C_19 
REMARK    7  A    between atoms: C_19  and  N_20 
REMARK       I    between atoms: N_20  and  C_21 
REMARK       I    between atoms: C_21  and  N_22 
REMARK    8  A    between atoms: N_22  and  C_23 
REMARK    9  A    between atoms: C_26  and  O_27 
ROOT
HETATM    1  C   UNL     1       4.122  28.627  55.798  1.00  0.00     0.068 C 
HETATM    2  C   UNL     1       4.061  30.138  55.437  1.00  0.00     0.001 C 
HETATM    3  C   UNL     1       5.428  30.804  55.725  1.00  0.00     0.040 C 
HETATM    4  C   UNL     1       5.765  30.730  57.227  1.00  0.00     0.206 C 
HETATM    5  N   UNL     1       4.682  29.872  57.875  1.00  0.00    -0.065 N 
HETATM    6  H   UNL     1       4.965  29.725  58.869  1.00  0.00     0.280 HD
HETATM    7  C   UNL     1       4.568  28.482  57.267  1.00  0.00     0.246 C 
HETATM    8  C   UNL     1       3.006  30.802  56.351  1.00  0.00     0.033 C 
HETATM    9  C   UNL     1       3.353  30.580  57.827  1.00  0.00     0.236 C 
ENDROOT
BRANCH   1  10
HETATM   10  C   UNL     1       4.982  27.844  54.828  1.00  0.00     0.045 A 
HETATM   11  N   UNL     1       4.762  28.017  53.509  1.00  0.00    -0.233 NA
HETATM   12  C   UNL     1       5.486  27.252  52.662  1.00  0.00     0.160 A 
HETATM   13  N   UNL     1       6.361  26.312  53.053  1.00  0.00    -0.233 NA
HETATM   14  C   UNL     1       6.569  26.155  54.375  1.00  0.00     0.043 A 
HETATM   15  C   UNL     1       5.898  26.924  55.308  1.00  0.00     0.055 A 
BRANCH  12  16
HETATM   16  C   UNL     1       5.294  27.455  51.219  1.00  0.00     0.014 A 
HETATM   17  C   UNL     1       5.432  28.724  50.638  1.00  0.00     0.034 A 
HETATM   18  C   UNL     1       5.249  28.870  49.272  1.00  0.00     0.117 A 
HETATM   19  N   UNL     1       4.937  27.850  48.448  1.00  0.00    -0.273 NA
HETATM   20  C   UNL     1       4.782  26.637  49.013  1.00  0.00     0.117 A 
HETATM   21  C   UNL     1       4.953  26.394  50.367  1.00  0.00     0.034 A 
ENDBRANCH  12  16
BRANCH  14  22
HETATM   22  C   UNL     1       7.578  25.092  54.777  1.00  0.00     0.037 C 
BRANCH  22  23
HETATM   23  C   UNL     1       7.163  23.665  54.352  1.00  0.00     0.006 C 
HETATM   24  C   UNL     1       7.973  23.121  53.182  1.00  0.00     0.006 C 
ENDBRANCH  22  23
BRANCH  22  25
HETATM   25  C   UNL     1       7.859  25.131  56.294  1.00  0.00     0.006 C 
HETATM   26  C   UNL     1       8.253  23.777  56.869  1.00  0.00     0.006 C 
ENDBRANCH  22  25
ENDBRANCH  14  22
ENDBRANCH   1  10
BRANCH   4  27
HETATM   27  C   UNL     1       7.209  30.238  57.514  1.00  0.00     0.157 C 
BRANCH  27  28
HETATM   28  N   UNL     1       7.609  30.193  58.922  1.00  0.00    -0.341 N 
HETATM   29  C   UNL     1       7.372  31.230  59.794  1.00  0.00     0.320 C 
HETATM   30  N   UNL     1       7.550  30.865  61.102  1.00  0.00    -0.309 N 
HETATM   31  O   UNL     1       7.050  32.338  59.377  1.00  0.00    -0.247 OA
HETATM   32  H   UNL     1       7.924  29.943  61.280  1.00  0.00     0.170 HD
HETATM   33  H   UNL     1       7.573  29.273  59.343  1.00  0.00     0.164 HD
BRANCH  30  34
HETATM   34  C   UNL     1       7.263  31.638  62.250  1.00  0.00     0.036 A 
HETATM   35  C   UNL     1       8.228  32.319  62.992  1.00  0.00     0.032 A 
HETATM   36  C   UNL     1       7.855  33.104  64.088  1.00  0.00     0.039 A 
HETATM   37  C   UNL     1       6.515  33.235  64.450  1.00  0.00     0.068 A 
HETATM   38  C   UNL     1       5.548  32.538  63.729  1.00  0.00     0.039 A 
HETATM   39  C   UNL     1       5.922  31.743  62.638  1.00  0.00     0.032 A 
BRANCH  37  40
HETATM   40  O   UNL     1       6.287  34.051  65.521  1.00  0.00    -0.356 OA
HETATM   41  C   UNL     1       4.963  34.061  66.041  1.00  0.00     0.210 C 
ENDBRANCH  37  40
ENDBRANCH  30  34
ENDBRANCH  27  28
ENDBRANCH   4  27
TORSDOF 9
ENDMDL
MODEL 2
REMARK VINA RESULT:     -10.1      3.425     10.405
REMARK  9 active torsions:
REMARK  status: ('A' for Active; 'I' for Inactive)
REMARK    1  A    between atoms: C_2  and  C_3 
REMARK    2  A    between atoms: C_3  and  C_4 
REMARK    3  A    between atoms: C_3  and  C_38 
REMARK    4  A    between atoms: C_6  and  C_7 
REMARK    5  A    between atoms: C_14  and  C_15 
REMARK    6  A    between atoms: C_18  and  C_19 
REMARK    7  A    between atoms: C_19  and  N_20 
REMARK       I    between atoms: N_20  and  C_21 
REMARK       I    between atoms: C_21  and  N_22 
REMARK    8  A    between atoms: N_22  and  C_23 
REMARK    9  A    between atoms: C_26  and  O_27 
ROOT
HETATM    1  C   UNL     1       4.457  32.218  57.678  1.00  0.00     0.068 C 
HETATM    2  C   UNL     1       3.654  30.889  57.586  1.00  0.00     0.001 C 
HETATM    3  C   UNL     1       4.613  29.714  57.279  1.00  0.00     0.040 C 
HETATM    4  C   UNL     1       5.291  29.907  55.908  1.00  0.00     0.206 C 
HETATM    5  N   UNL     1       4.883  31.290  55.411  1.00  0.00    -0.065 N 
HETATM    6  H   UNL     1       5.426  31.472  54.539  1.00  0.00     0.280 HD
HETATM    7  C   UNL     1       5.253  32.411  56.371  1.00  0.00     0.246 C 
HETATM    8  C   UNL     1       2.663  31.014  56.406  1.00  0.00     0.033 C 
HETATM    9  C   UNL     1       3.409  31.323  55.104  1.00  0.00     0.236 C 
ENDROOT
BRANCH   1  10
HETATM   10  C   UNL     1       5.319  32.277  58.921  1.00  0.00     0.045 A 
HETATM   11  N   UNL     1       4.741  32.682  60.070  1.00  0.00    -0.233 NA
HETATM   12  C   UNL     1       5.544  32.803  61.149  1.00  0.00     0.160 A 
HETATM   13  N   UNL     1       6.870  32.594  61.133  1.00  0.00    -0.233 NA
HETATM   14  C   UNL     1       7.430  32.189  59.976  1.00  0.00     0.043 A 
HETATM   15  C   UNL     1       6.673  32.002  58.835  1.00  0.00     0.055 A 
BRANCH  12  16
HETATM   16  C   UNL     1       4.927  33.200  62.423  1.00  0.00     0.014 A 
HETATM   17  C   UNL     1       5.596  33.021  63.643  1.00  0.00     0.034 A 
HETATM   18  C   UNL     1       4.981  33.415  64.820  1.00  0.00     0.117 A 
HETATM   19  N   UNL     1       3.754  33.969  64.871  1.00  0.00    -0.273 NA
HETATM   20  C   UNL     1       3.105  34.118  63.701  1.00  0.00     0.117 A 
HETATM   21  C   UNL     1       3.643  33.761  62.474  1.00  0.00     0.034 A 
ENDBRANCH  12  16
BRANCH  14  22
HETATM   22  C   UNL     1       8.930  31.948  60.001  1.00  0.00     0.037 C 
BRANCH  22  23
HETATM   23  C   UNL     1       9.368  30.744  59.136  1.00  0.00     0.006 C 
HETATM   24  C   UNL     1      10.304  31.126  57.996  1.00  0.00     0.006 C 
ENDBRANCH  22  23
BRANCH  22  25
HETATM   25  C   UNL     1       9.446  31.776  61.446  1.00  0.00     0.006 C 
HETATM   26  C   UNL     1       9.467  30.324  61.910  1.00  0.00     0.006 C 
ENDBRANCH  22  25
ENDBRANCH  14  22
ENDBRANCH   1  10
BRANCH   4  27
HETATM   27  C   UNL     1       6.826  29.680  55.940  1.00  0.00     0.157 C 
BRANCH  27  28
HETATM   28  N   UNL     1       7.352  28.685  55.003  1.00  0.00    -0.341 N 
HETATM   29  C   UNL     1       7.456  27.349  55.320  1.00  0.00     0.320 C 
HETATM   30  N   UNL     1       7.683  26.567  54.219  1.00  0.00    -0.309 N 
HETATM   31  O   UNL     1       7.357  26.972  56.483  1.00  0.00    -0.247 OA
HETATM   32  H   UNL     1       7.850  27.039  53.341  1.00  0.00     0.170 HD
HETATM   33  H   UNL     1       7.150  28.871  54.030  1.00  0.00     0.164 HD
BRANCH  30  34
HETATM   34  C   UNL     1       7.706  25.155  54.167  1.00  0.00     0.036 A 
HETATM   35  C   UNL     1       7.473  24.330  55.268  1.00  0.00     0.032 A 
HETATM   36  C   UNL     1       7.465  22.939  55.121  1.00  0.00     0.039 A 
HETATM   37  C   UNL     1       7.675  22.351  53.875  1.00  0.00     0.068 A 
HETATM   38  C   UNL     1       7.934  23.166  52.777  1.00  0.00     0.039 A 
HETATM   39  C   UNL     1       7.952  24.560  52.924  1.00  0.00     0.032 A 
BRANCH  37  40
HETATM   40  O   UNL     1       7.616  20.987  53.867  1.00  0.00    -0.356 OA
HETATM   41  C   UNL     1       8.373  20.323  52.862  1.00  0.00     0.210 C 
ENDBRANCH  37  40
ENDBRANCH  30  34
ENDBRANCH  27  28
ENDBRANCH   4  27
TORSDOF 9
ENDMDL
MODEL 3
REMARK VINA RESULT:      -9.6      3.474      9.668
REMARK  9 active torsions:
REMARK  status: ('A' for Active; 'I' for Inactive)
REMARK    1  A    between atoms: C_2  and  C_3 
REMARK    2  A    between atoms: C_3  and  C_4 
REMARK    3  A    between atoms: C_3  and  C_38 
REMARK    4  A    between atoms: C_6  and  C_7 
REMARK    5  A    between atoms: C_14  and  C_15 
REMARK    6  A    between atoms: C_18  and  C_19 
REMARK    7  A    between atoms: C_19  and  N_20 
REMARK       I    between atoms: N_20  and  C_21 
REMARK       I    between atoms: C_21  and  N_22 
REMARK    8  A    between atoms: N_22  and  C_23 
REMARK    9  A    between atoms: C_26  and  O_27 
ROOT
HETATM    1  C   UNL     1       4.710  32.091  56.658  1.00  0.00     0.068 C 
HETATM    2  C   UNL     1       3.361  31.324  56.767  1.00  0.00     0.001 C 
HETATM    3  C   UNL     1       3.486  29.940  56.085  1.00  0.00     0.040 C 
HETATM    4  C   UNL     1       3.775  30.099  54.579  1.00  0.00     0.206 C 
HETATM    5  N   UNL     1       3.994  31.588  54.332  1.00  0.00    -0.065 N 
HETATM    6  H   UNL     1       4.300  31.689  53.339  1.00  0.00     0.280 HD
HETATM    7  C   UNL     1       5.114  32.182  55.173  1.00  0.00     0.246 C 
HETATM    8  C   UNL     1       2.291  32.135  56.003  1.00  0.00     0.033 C 
HETATM    9  C   UNL     1       2.712  32.349  54.545  1.00  0.00     0.236 C 
ENDROOT
BRANCH   1  10
HETATM   10  C   UNL     1       5.783  31.483  57.537  1.00  0.00     0.045 A 
HETATM   11  N   UNL     1       5.972  32.016  58.761  1.00  0.00    -0.233 NA
HETATM   12  C   UNL     1       6.986  31.512  59.498  1.00  0.00     0.160 A 
HETATM   13  N   UNL     1       7.831  30.560  59.071  1.00  0.00    -0.233 NA
HETATM   14  C   UNL     1       7.625  30.038  57.845  1.00  0.00     0.043 A 
HETATM   15  C   UNL     1       6.586  30.471  57.042  1.00  0.00     0.055 A 
BRANCH  12  16
HETATM   16  C   UNL     1       7.183  32.047  60.852  1.00  0.00     0.014 A 
HETATM   17  C   UNL     1       8.233  31.598  61.667  1.00  0.00     0.034 A 
HETATM   18  C   UNL     1       8.387  32.133  62.936  1.00  0.00     0.117 A 
HETATM   19  N   UNL     1       7.573  33.077  63.450  1.00  0.00    -0.273 NA
HETATM   20  C   UNL     1       6.552  33.489  62.675  1.00  0.00     0.117 A 
HETATM   21  C   UNL     1       6.324  33.016  61.392  1.00  0.00     0.034 A 
ENDBRANCH  12  16
BRANCH  14  22
HETATM   22  C   UNL     1       8.593  28.953  57.404  1.00  0.00     0.037 C 
BRANCH  22  23
HETATM   23  C   UNL     1       9.722  29.479  56.488  1.00  0.00     0.006 C 
HETATM   24  C   UNL     1      10.949  29.958  57.253  1.00  0.00     0.006 C 
ENDBRANCH  22  23
BRANCH  22  25
HETATM   25  C   UNL     1       7.851  27.789  56.713  1.00  0.00     0.006 C 
HETATM   26  C   UNL     1       8.231  26.420  57.265  1.00  0.00     0.006 C 
ENDBRANCH  22  25
ENDBRANCH  14  22
ENDBRANCH   1  10
BRANCH   4  27
HETATM   27  C   UNL     1       4.938  29.202  54.075  1.00  0.00     0.157 C 
BRANCH  27  28
HETATM   28  N   UNL     1       4.782  27.761  54.289  1.00  0.00    -0.341 N 
HETATM   29  C   UNL     1       5.708  26.842  53.852  1.00  0.00     0.320 C 
HETATM   30  N   UNL     1       5.522  25.606  54.410  1.00  0.00    -0.309 N 
HETATM   31  O   UNL     1       6.573  27.161  53.042  1.00  0.00    -0.247 OA
HETATM   32  H   UNL     1       4.696  25.472  54.977  1.00  0.00     0.170 HD
HETATM   33  H   UNL     1       4.313  27.509  55.149  1.00  0.00     0.164 HD
BRANCH  30  34
HETATM   34  C   UNL     1       6.365  24.479  54.285  1.00  0.00     0.036 A 
HETATM   35  C   UNL     1       6.779  23.946  53.065  1.00  0.00     0.032 A 
HETATM   36  C   UNL     1       7.656  22.856  53.028  1.00  0.00     0.039 A 
HETATM   37  C   UNL     1       8.144  22.292  54.207  1.00  0.00     0.068 A 
HETATM   38  C   UNL     1       7.715  22.802  55.429  1.00  0.00     0.039 A 
HETATM   39  C   UNL     1       6.829  23.887  55.467  1.00  0.00     0.032 A 
BRANCH  37  40
HETATM   40  O   UNL     1       9.011  21.253  54.029  1.00  0.00    -0.356 OA
HETATM   41  C   UNL     1       8.746  20.384  52.933  1.00  0.00     0.210 C 
ENDBRANCH  37  40
ENDBRANCH  30  34
ENDBRANCH  27  28
ENDBRANCH   4  27
TORSDOF 9
ENDMDL
MODEL 4
REMARK VINA RESULT:      -9.5      2.216      5.888
REMARK  9 active torsions:
REMARK  status: ('A' for Active; 'I' for Inactive)
REMARK    1  A    between atoms: C_2  and  C_3 
REMARK    2  A    between atoms: C_3  and  C_4 
REMARK    3  A    between atoms: C_3  and  C_38 
REMARK    4  A    between atoms: C_6  and  C_7 
REMARK    5  A    between atoms: C_14  and  C_15 
REMARK    6  A    between atoms: C_18  and  C_19 
REMARK    7  A    between atoms: C_19  and  N_20 
REMARK       I    between atoms: N_20  and  C_21 
REMARK       I    between atoms: C_21  and  N_22 
REMARK    8  A    between atoms: N_22  and  C_23 
REMARK    9  A    between atoms: C_26  and  O_27 
ROOT
HETATM    1  C   UNL     1       6.581  25.995  52.024  1.00  0.00     0.068 C 
HETATM    2  C   UNL     1       5.924  24.701  52.584  1.00  0.00     0.001 C 
HETATM    3  C   UNL     1       5.080  25.038  53.836  1.00  0.00     0.040 C 
HETATM    4  C   UNL     1       5.974  25.593  54.963  1.00  0.00     0.206 C 
HETATM    5  N   UNL     1       7.369  25.760  54.369  1.00  0.00    -0.065 N 
HETATM    6  H   UNL     1       7.951  26.240  55.091  1.00  0.00     0.280 HD
HETATM    7  C   UNL     1       7.401  26.663  53.145  1.00  0.00     0.246 C 
HETATM    8  C   UNL     1       7.057  23.743  53.018  1.00  0.00     0.033 C 
HETATM    9  C   UNL     1       7.968  24.416  54.050  1.00  0.00     0.236 C 
ENDROOT
BRANCH   1  10
HETATM   10  C   UNL     1       5.564  26.920  51.390  1.00  0.00     0.045 A 
HETATM   11  N   UNL     1       5.104  27.952  52.127  1.00  0.00    -0.233 NA
HETATM   12  C   UNL     1       4.141  28.719  51.572  1.00  0.00     0.160 A 
HETATM   13  N   UNL     1       3.589  28.488  50.370  1.00  0.00    -0.233 NA
HETATM   14  C   UNL     1       4.062  27.454  49.647  1.00  0.00     0.043 A 
HETATM   15  C   UNL     1       5.075  26.643  50.125  1.00  0.00     0.055 A 
BRANCH  12  16
HETATM   16  C   UNL     1       3.656  29.875  52.339  1.00  0.00     0.014 A 
HETATM   17  C   UNL     1       3.714  29.895  53.740  1.00  0.00     0.034 A 
HETATM   18  C   UNL     1       3.252  31.008  54.425  1.00  0.00     0.117 A 
HETATM   19  N   UNL     1       2.736  32.095  53.818  1.00  0.00    -0.273 NA
HETATM   20  C   UNL     1       2.660  32.063  52.474  1.00  0.00     0.117 A 
HETATM   21  C   UNL     1       3.104  30.998  51.705  1.00  0.00     0.034 A 
ENDBRANCH  12  16
BRANCH  14  22
HETATM   22  C   UNL     1       3.424  27.235  48.286  1.00  0.00     0.037 C 
BRANCH  22  23
HETATM   23  C   UNL     1       1.879  27.290  48.321  1.00  0.00     0.006 C 
HETATM   24  C   UNL     1       1.262  27.807  47.028  1.00  0.00     0.006 C 
ENDBRANCH  22  23
BRANCH  22  25
HETATM   25  C   UNL     1       3.891  25.906  47.655  1.00  0.00     0.006 C 
HETATM   26  C   UNL     1       2.948  24.742  47.933  1.00  0.00     0.006 C 
ENDBRANCH  22  25
ENDBRANCH  14  22
ENDBRANCH   1  10
BRANCH   4  27
HETATM   27  C   UNL     1       5.412  26.884  55.617  1.00  0.00     0.157 C 
BRANCH  27  28
HETATM   28  N   UNL     1       6.400  27.892  56.009  1.00  0.00    -0.341 N 
HETATM   29  C   UNL     1       6.160  28.821  56.996  1.00  0.00     0.320 C 
HETATM   30  N   UNL     1       7.302  29.458  57.403  1.00  0.00    -0.309 N 
HETATM   31  O   UNL     1       5.022  29.014  57.412  1.00  0.00    -0.247 OA
HETATM   32  H   UNL     1       8.150  29.267  56.886  1.00  0.00     0.170 HD
HETATM   33  H   UNL     1       7.363  27.590  55.941  1.00  0.00     0.164 HD
BRANCH  30  34
HETATM   34  C   UNL     1       7.436  30.363  58.480  1.00  0.00     0.036 A 
HETATM   35  C   UNL     1       6.605  31.465  58.680  1.00  0.00     0.032 A 
HETATM   36  C   UNL     1       6.773  32.285  59.802  1.00  0.00     0.039 A 
HETATM   37  C   UNL     1       7.761  32.009  60.746  1.00  0.00     0.068 A 
HETATM   38  C   UNL     1       8.611  30.925  60.540  1.00  0.00     0.039 A 
HETATM   39  C   UNL     1       8.450  30.109  59.412  1.00  0.00     0.032 A 
BRANCH  37  40
HETATM   40  O   UNL     1       7.800  32.872  61.804  1.00  0.00    -0.356 OA
HETATM   41  C   UNL     1       8.010  32.294  63.087  1.00  0.00     0.210 C 
ENDBRANCH  37  40
ENDBRANCH  30  34
ENDBRANCH  27  28
ENDBRANCH   4  27
TORSDOF 9
ENDMDL
MODEL 5
REMARK VINA RESULT:      -9.3      3.803     10.619
REMARK  9 active torsions:
REMARK  status: ('A' for Active; 'I' for Inactive)
REMARK    1  A    between atoms: C_2  and  C_3 
REMARK    2  A    between atoms: C_3  and  C_4 
REMARK    3  A    between atoms: C_3  and  C_38 
REMARK    4  A    between atoms: C_6  and  C_7 
REMARK    5  A    between atoms: C_14  and  C_15 
REMARK    6  A    between atoms: C_18  and  C_19 
REMARK    7  A    between atoms: C_19  and  N_20 
REMARK       I    between atoms: N_20  and  C_21 
REMARK       I    between atoms: C_21  and  N_22 
REMARK    8  A    between atoms: N_22  and  C_23 
REMARK    9  A    between atoms: C_26  and  O_27 
ROOT
HETATM    1  C   UNL     1       6.166  27.473  57.211  1.00  0.00     0.068 C 
HETATM    2  C   UNL     1       7.348  26.717  56.540  1.00  0.00     0.001 C 
HETATM    3  C   UNL     1       7.654  27.340  55.157  1.00  0.00     0.040 C 
HETATM    4  C   UNL     1       6.448  27.187  54.210  1.00  0.00     0.206 C 
HETATM    5  N   UNL     1       5.310  26.605  55.045  1.00  0.00    -0.065 N 
HETATM    6  H   UNL     1       4.460  26.604  54.440  1.00  0.00     0.280 HD
HETATM    7  C   UNL     1       4.955  27.454  56.257  1.00  0.00     0.246 C 
HETATM    8  C   UNL     1       6.907  25.252  56.314  1.00  0.00     0.033 C 
HETATM    9  C   UNL     1       5.634  25.196  55.463  1.00  0.00     0.236 C 
ENDROOT
BRANCH   1  10
HETATM   10  C   UNL     1       6.561  28.865  57.655  1.00  0.00     0.045 A 
HETATM   11  N   UNL     1       5.685  29.868  57.438  1.00  0.00    -0.233 NA
HETATM   12  C   UNL     1       6.087  31.114  57.769  1.00  0.00     0.160 A 
HETATM   13  N   UNL     1       7.305  31.414  58.247  1.00  0.00    -0.233 NA
HETATM   14  C   UNL     1       8.167  30.399  58.458  1.00  0.00     0.043 A 
HETATM   15  C   UNL     1       7.820  29.089  58.183  1.00  0.00     0.055 A 
BRANCH  12  16
HETATM   16  C   UNL     1       5.132  32.216  57.583  1.00  0.00     0.014 A 
HETATM   17  C   UNL     1       4.358  32.320  56.418  1.00  0.00     0.034 A 
HETATM   18  C   UNL     1       3.465  33.371  56.286  1.00  0.00     0.117 A 
HETATM   19  N   UNL     1       3.291  34.324  57.224  1.00  0.00    -0.273 NA
HETATM   20  C   UNL     1       4.053  34.235  58.331  1.00  0.00     0.117 A 
HETATM   21  C   UNL     1       4.965  33.215  58.554  1.00  0.00     0.034 A 
ENDBRANCH  12  16
BRANCH  14  22
HETATM   22  C   UNL     1       9.529  30.777  59.014  1.00  0.00     0.037 C 
BRANCH  22  23
HETATM   23  C   UNL     1       9.478  31.970  59.995  1.00  0.00     0.006 C 
HETATM   24  C   UNL     1       9.452  31.550  61.460  1.00  0.00     0.006 C 
ENDBRANCH  22  23
BRANCH  22  25
HETATM   25  C   UNL     1      10.536  31.068  57.881  1.00  0.00     0.006 C 
HETATM   26  C   UNL     1      11.010  29.813  57.158  1.00  0.00     0.006 C 
ENDBRANCH  22  25
ENDBRANCH  14  22
ENDBRANCH   1  10
BRANCH   4  27
HETATM   27  C   UNL     1       6.074  28.498  53.468  1.00  0.00     0.157 C 
BRANCH  27  28
HETATM   28  N   UNL     1       5.951  28.404  52.012  1.00  0.00    -0.341 N 
HETATM   29  C   UNL     1       4.891  27.780  51.395  1.00  0.00     0.320 C 
HETATM   30  N   UNL     1       4.821  28.066  50.058  1.00  0.00    -0.309 N 
HETATM   31  O   UNL     1       4.136  27.052  52.032  1.00  0.00    -0.247 OA
HETATM   32  H   UNL     1       5.583  28.596  49.656  1.00  0.00     0.170 HD
HETATM   33  H   UNL     1       6.328  29.193  51.503  1.00  0.00     0.164 HD
BRANCH  30  34
HETATM   34  C   UNL     1       3.791  27.704  49.161  1.00  0.00     0.036 A 
HETATM   35  C   UNL     1       2.527  28.296  49.145  1.00  0.00     0.032 A 
HETATM   36  C   UNL     1       1.578  27.913  48.191  1.00  0.00     0.039 A 
HETATM   37  C   UNL     1       1.879  26.949  47.231  1.00  0.00     0.068 A 
HETATM   38  C   UNL     1       3.129  26.336  47.256  1.00  0.00     0.039 A 
HETATM   39  C   UNL     1       4.077  26.710  48.218  1.00  0.00     0.032 A 
BRANCH  37  40
HETATM   40  O   UNL     1       0.874  26.689  46.345  1.00  0.00    -0.356 OA
HETATM   41  C   UNL     1      -0.065  27.735  46.124  1.00  0.00     0.210 C 
ENDBRANCH  37  40
ENDBRANCH  30  34
ENDBRANCH  27  28
ENDBRANCH   4  27
TORSDOF 9
ENDMDL
MODEL 6
REMARK VINA RESULT:      -9.2      3.665     10.276
REMARK  9 active torsions:
REMARK  status: ('A' for Active; 'I' for Inactive)
REMARK    1  A    between atoms: C_2  and  C_3 
REMARK    2  A    between atoms: C_3  and  C_4 
REMARK    3  A    between atoms: C_3  and  C_38 
REMARK    4  A    between atoms: C_6  and  C_7 
REMARK    5  A    between atoms: C_14  and  C_15 
REMARK    6  A    between atoms: C_18  and  C_19 
REMARK    7  A    between atoms: C_19  and  N_20 
REMARK       I    between atoms: N_20  and  C_21 
REMARK       I    between atoms: C_21  and  N_22 
REMARK    8  A    between atoms: N_22  and  C_23 
REMARK    9  A    between atoms: C_26  and  O_27 
ROOT
HETATM    1  C   UNL     1       6.765  26.648  57.115  1.00  0.00     0.068 C 
HETATM    2  C   UNL     1       7.742  26.278  55.963  1.00  0.00     0.001 C 
HETATM    3  C   UNL     1       7.252  26.902  54.635  1.00  0.00     0.040 C 
HETATM    4  C   UNL     1       5.877  26.329  54.238  1.00  0.00     0.206 C 
HETATM    5  N   UNL     1       5.418  25.455  55.401  1.00  0.00    -0.065 N 
HETATM    6  H   UNL     1       4.441  25.155  55.187  1.00  0.00     0.280 HD
HETATM    7  C   UNL     1       5.342  26.200  56.725  1.00  0.00     0.246 C 
HETATM    8  C   UNL     1       7.725  24.741  55.802  1.00  0.00     0.033 C 
HETATM    9  C   UNL     1       6.302  24.242  55.527  1.00  0.00     0.236 C 
ENDROOT
BRANCH   1  10
HETATM   10  C   UNL     1       6.853  28.113  57.488  1.00  0.00     0.045 A 
HETATM   11  N   UNL     1       5.819  28.912  57.155  1.00  0.00    -0.233 NA
HETATM   12  C   UNL     1       5.951  30.228  57.425  1.00  0.00     0.160 A 
HETATM   13  N   UNL     1       7.053  30.785  57.953  1.00  0.00    -0.233 NA
HETATM   14  C   UNL     1       8.076  29.971  58.280  1.00  0.00     0.043 A 
HETATM   15  C   UNL     1       8.006  28.606  58.073  1.00  0.00     0.055 A 
BRANCH  12  16
HETATM   16  C   UNL     1       4.819  31.111  57.112  1.00  0.00     0.014 A 
HETATM   17  C   UNL     1       4.743  32.411  57.632  1.00  0.00     0.034 A 
HETATM   18  C   UNL     1       3.661  33.213  57.306  1.00  0.00     0.117 A 
HETATM   19  N   UNL     1       2.652  32.815  56.507  1.00  0.00    -0.273 NA
HETATM   20  C   UNL     1       2.715  31.557  56.028  1.00  0.00     0.117 A 
HETATM   21  C   UNL     1       3.762  30.688  56.293  1.00  0.00     0.034 A 
ENDBRANCH  12  16
BRANCH  14  22
HETATM   22  C   UNL     1       9.298  30.637  58.889  1.00  0.00     0.037 C 
BRANCH  22  23
HETATM   23  C   UNL     1       8.952  31.855  59.776  1.00  0.00     0.006 C 
HETATM   24  C   UNL     1       9.641  31.831  61.134  1.00  0.00     0.006 C 
ENDBRANCH  22  23
BRANCH  22  25
HETATM   25  C   UNL     1      10.313  31.047  57.801  1.00  0.00     0.006 C 
HETATM   26  C   UNL     1      11.162  29.886  57.298  1.00  0.00     0.006 C 
ENDBRANCH  22  25
ENDBRANCH  14  22
ENDBRANCH   1  10
BRANCH   4  27
HETATM   27  C   UNL     1       4.850  27.417  53.827  1.00  0.00     0.157 C 
BRANCH  27  28
HETATM   28  N   UNL     1       4.159  27.206  52.553  1.00  0.00    -0.341 N 
HETATM   29  C   UNL     1       3.991  28.208  51.625  1.00  0.00     0.320 C 
HETATM   30  N   UNL     1       3.596  27.729  50.404  1.00  0.00    -0.309 N 
HETATM   31  O   UNL     1       4.181  29.381  51.929  1.00  0.00    -0.247 OA
HETATM   32  H   UNL     1       3.375  26.745  50.341  1.00  0.00     0.170 HD
HETATM   33  H   UNL     1       4.273  26.281  52.158  1.00  0.00     0.164 HD
BRANCH  30  34
HETATM   34  C   UNL     1       3.464  28.462  49.203  1.00  0.00     0.036 A 
HETATM   35  C   UNL     1       2.250  28.944  48.713  1.00  0.00     0.032 A 
HETATM   36  C   UNL     1       2.211  29.705  47.540  1.00  0.00     0.039 A 
HETATM   37  C   UNL     1       3.383  30.010  46.848  1.00  0.00     0.068 A 
HETATM   38  C   UNL     1       4.595  29.512  47.317  1.00  0.00     0.039 A 
HETATM   39  C   UNL     1       4.634  28.740  48.486  1.00  0.00     0.032 A 
BRANCH  37  40
HETATM   40  O   UNL     1       3.207  30.782  45.735  1.00  0.00    -0.356 OA
HETATM   41  C   UNL     1       4.351  31.482  45.260  1.00  0.00     0.210 C 
ENDBRANCH  37  40
ENDBRANCH  30  34
ENDBRANCH  27  28
ENDBRANCH   4  27
TORSDOF 9
ENDMDL
MODEL 7
REMARK VINA RESULT:      -9.1      3.518     10.474
REMARK  9 active torsions:
REMARK  status: ('A' for Active; 'I' for Inactive)
REMARK    1  A    between atoms: C_2  and  C_3 
REMARK    2  A    between atoms: C_3  and  C_4 
REMARK    3  A    between atoms: C_3  and  C_38 
REMARK    4  A    between atoms: C_6  and  C_7 
REMARK    5  A    between atoms: C_14  and  C_15 
REMARK    6  A    between atoms: C_18  and  C_19 
REMARK    7  A    between atoms: C_19  and  N_20 
REMARK       I    between atoms: N_20  and  C_21 
REMARK       I    between atoms: C_21  and  N_22 
REMARK    8  A    between atoms: N_22  and  C_23 
REMARK    9  A    between atoms: C_26  and  O_27 
ROOT
HETATM    1  C   UNL     1       4.589  32.905  56.385  1.00  0.00     0.068 C 
HETATM    2  C   UNL     1       3.122  32.520  56.044  1.00  0.00     0.001 C 
HETATM    3  C   UNL     1       2.845  31.062  56.482  1.00  0.00     0.040 C 
HETATM    4  C   UNL     1       3.742  30.079  55.706  1.00  0.00     0.206 C 
HETATM    5  N   UNL     1       4.709  30.928  54.884  1.00  0.00    -0.065 N 
HETATM    6  H   UNL     1       5.391  30.271  54.445  1.00  0.00     0.280 HD
HETATM    7  C   UNL     1       5.539  31.885  55.727  1.00  0.00     0.246 C 
HETATM    8  C   UNL     1       2.956  32.595  54.509  1.00  0.00     0.033 C 
HETATM    9  C   UNL     1       3.966  31.678  53.811  1.00  0.00     0.236 C 
ENDROOT
BRANCH   1  10
HETATM   10  C   UNL     1       4.806  33.054  57.876  1.00  0.00     0.045 A 
HETATM   11  N   UNL     1       5.867  32.428  58.425  1.00  0.00    -0.233 NA
HETATM   12  C   UNL     1       5.999  32.508  59.767  1.00  0.00     0.160 A 
HETATM   13  N   UNL     1       5.123  33.123  60.577  1.00  0.00    -0.233 NA
HETATM   14  C   UNL     1       4.070  33.745  60.011  1.00  0.00     0.043 A 
HETATM   15  C   UNL     1       3.883  33.745  58.641  1.00  0.00     0.055 A 
BRANCH  12  16
HETATM   16  C   UNL     1       7.172  31.870  60.381  1.00  0.00     0.014 A 
HETATM   17  C   UNL     1       7.271  31.714  61.772  1.00  0.00     0.034 A 
HETATM   18  C   UNL     1       8.391  31.101  62.309  1.00  0.00     0.117 A 
HETATM   19  N   UNL     1       9.416  30.638  61.567  1.00  0.00    -0.273 NA
HETATM   20  C   UNL     1       9.329  30.811  60.235  1.00  0.00     0.117 A 
HETATM   21  C   UNL     1       8.245  31.405  59.607  1.00  0.00     0.034 A 
ENDBRANCH  12  16
BRANCH  14  22
HETATM   22  C   UNL     1       3.111  34.444  60.960  1.00  0.00     0.037 C 
BRANCH  22  23
HETATM   23  C   UNL     1       3.176  35.985  60.867  1.00  0.00     0.006 C 
HETATM   24  C   UNL     1       4.488  36.569  61.376  1.00  0.00     0.006 C 
ENDBRANCH  22  23
BRANCH  22  25
HETATM   25  C   UNL     1       3.336  33.992  62.419  1.00  0.00     0.006 C 
HETATM   26  C   UNL     1       2.094  34.125  63.290  1.00  0.00     0.006 C 
ENDBRANCH  22  25
ENDBRANCH  14  22
ENDBRANCH   1  10
BRANCH   4  27
HETATM   27  C   UNL     1       4.443  29.033  56.613  1.00  0.00     0.157 C 
BRANCH  27  28
HETATM   28  N   UNL     1       4.370  27.640  56.168  1.00  0.00    -0.341 N 
HETATM   29  C   UNL     1       5.398  27.022  55.492  1.00  0.00     0.320 C 
HETATM   30  N   UNL     1       5.247  25.662  55.440  1.00  0.00    -0.309 N 
HETATM   31  O   UNL     1       6.311  27.680  55.005  1.00  0.00    -0.247 OA
HETATM   32  H   UNL     1       4.381  25.277  55.794  1.00  0.00     0.170 HD
HETATM   33  H   UNL     1       3.839  27.028  56.775  1.00  0.00     0.164 HD
BRANCH  30  34
HETATM   34  C   UNL     1       6.176  24.720  54.945  1.00  0.00     0.036 A 
HETATM   35  C   UNL     1       6.970  23.908  55.755  1.00  0.00     0.032 A 
HETATM   36  C   UNL     1       7.831  22.963  55.184  1.00  0.00     0.039 A 
HETATM   37  C   UNL     1       7.901  22.805  53.801  1.00  0.00     0.068 A 
HETATM   38  C   UNL     1       7.130  23.629  52.985  1.00  0.00     0.039 A 
HETATM   39  C   UNL     1       6.275  24.582  53.555  1.00  0.00     0.032 A 
BRANCH  37  40
HETATM   40  O   UNL     1       8.760  21.831  53.379  1.00  0.00    -0.356 OA
HETATM   41  C   UNL     1       8.214  20.527  53.222  1.00  0.00     0.210 C 
ENDBRANCH  37  40
ENDBRANCH  30  34
ENDBRANCH  27  28
ENDBRANCH   4  27
TORSDOF 9
ENDMDL
MODEL 8
REMARK VINA RESULT:      -9.0      2.307      5.340
REMARK  9 active torsions:
REMARK  status: ('A' for Active; 'I' for Inactive)
REMARK    1  A    between atoms: C_2  and  C_3 
REMARK    2  A    between atoms: C_3  and  C_4 
REMARK    3  A    between atoms: C_3  and  C_38 
REMARK    4  A    between atoms: C_6  and  C_7 
REMARK    5  A    between atoms: C_14  and  C_15 
REMARK    6  A    between atoms: C_18  and  C_19 
REMARK    7  A    between atoms: C_19  and  N_20 
REMARK       I    between atoms: N_20  and  C_21 
REMARK       I    between atoms: C_21  and  N_22 
REMARK    8  A    between atoms: N_22  and  C_23 
REMARK    9  A    between atoms: C_26  and  O_27 
ROOT
HETATM    1  C   UNL     1       5.606  26.107  52.227  1.00  0.00     0.068 C 
HETATM    2  C   UNL     1       6.208  27.397  51.600  1.00  0.00     0.001 C 
HETATM    3  C   UNL     1       6.137  28.560  52.617  1.00  0.00     0.040 C 
HETATM    4  C   UNL     1       4.674  28.891  52.968  1.00  0.00     0.206 C 
HETATM    5  N   UNL     1       3.813  27.828  52.292  1.00  0.00    -0.065 N 
HETATM    6  H   UNL     1       2.833  27.980  52.616  1.00  0.00     0.280 HD
HETATM    7  C   UNL     1       4.171  26.408  52.705  1.00  0.00     0.246 C 
HETATM    8  C   UNL     1       5.340  27.780  50.379  1.00  0.00     0.033 C 
HETATM    9  C   UNL     1       3.878  27.975  50.794  1.00  0.00     0.236 C 
ENDROOT
BRANCH   1  10
HETATM   10  C   UNL     1       6.493  25.534  53.311  1.00  0.00     0.045 A 
HETATM   11  N   UNL     1       6.842  24.235  53.220  1.00  0.00    -0.233 NA
HETATM   12  C   UNL     1       7.568  23.723  54.237  1.00  0.00     0.160 A 
HETATM   13  N   UNL     1       7.916  24.408  55.338  1.00  0.00    -0.233 NA
HETATM   14  C   UNL     1       7.559  25.706  55.412  1.00  0.00     0.043 A 
HETATM   15  C   UNL     1       6.849  26.317  54.396  1.00  0.00     0.055 A 
BRANCH  12  16
HETATM   16  C   UNL     1       7.997  22.321  54.137  1.00  0.00     0.014 A 
HETATM   17  C   UNL     1       8.012  21.649  52.906  1.00  0.00     0.034 A 
HETATM   18  C   UNL     1       8.429  20.329  52.855  1.00  0.00     0.117 A 
HETATM   19  N   UNL     1       8.828  19.632  53.937  1.00  0.00    -0.273 NA
HETATM   20  C   UNL     1       8.791  20.271  55.121  1.00  0.00     0.117 A 
HETATM   21  C   UNL     1       8.396  21.592  55.268  1.00  0.00     0.034 A 
ENDBRANCH  12  16
BRANCH  14  22
HETATM   22  C   UNL     1       7.984  26.451  56.666  1.00  0.00     0.037 C 
BRANCH  22  23
HETATM   23  C   UNL     1       7.100  26.132  57.893  1.00  0.00     0.006 C 
HETATM   24  C   UNL     1       5.712  25.624  57.525  1.00  0.00     0.006 C 
ENDBRANCH  22  23
BRANCH  22  25
HETATM   25  C   UNL     1       8.023  27.975  56.425  1.00  0.00     0.006 C 
HETATM   26  C   UNL     1       9.268  28.644  56.995  1.00  0.00     0.006 C 
ENDBRANCH  22  25
ENDBRANCH  14  22
ENDBRANCH   1  10
BRANCH   4  27
HETATM   27  C   UNL     1       4.419  29.027  54.493  1.00  0.00     0.157 C 
BRANCH  27  28
HETATM   28  N   UNL     1       5.109  30.129  55.167  1.00  0.00    -0.341 N 
HETATM   29  C   UNL     1       5.101  30.283  56.535  1.00  0.00     0.320 C 
HETATM   30  N   UNL     1       6.039  31.184  56.965  1.00  0.00    -0.309 N 
HETATM   31  O   UNL     1       4.307  29.659  57.231  1.00  0.00    -0.247 OA
HETATM   32  H   UNL     1       6.544  31.700  56.259  1.00  0.00     0.170 HD
HETATM   33  H   UNL     1       5.959  30.437  54.715  1.00  0.00     0.164 HD
BRANCH  30  34
HETATM   34  C   UNL     1       6.388  31.477  58.303  1.00  0.00     0.036 A 
HETATM   35  C   UNL     1       7.510  30.955  58.948  1.00  0.00     0.032 A 
HETATM   36  C   UNL     1       7.813  31.335  60.260  1.00  0.00     0.039 A 
HETATM   37  C   UNL     1       7.012  32.251  60.941  1.00  0.00     0.068 A 
HETATM   38  C   UNL     1       5.877  32.757  60.313  1.00  0.00     0.039 A 
HETATM   39  C   UNL     1       5.567  32.369  59.003  1.00  0.00     0.032 A 
BRANCH  37  40
HETATM   40  O   UNL     1       7.435  32.554  62.203  1.00  0.00    -0.356 OA
HETATM   41  C   UNL     1       6.441  32.568  63.221  1.00  0.00     0.210 C 
ENDBRANCH  37  40
ENDBRANCH  30  34
ENDBRANCH  27  28
ENDBRANCH   4  27
TORSDOF 9
ENDMDL
MODEL 9
REMARK VINA RESULT:      -8.5      1.797      5.005
REMARK  9 active torsions:
REMARK  status: ('A' for Active; 'I' for Inactive)
REMARK    1  A    between atoms: C_2  and  C_3 
REMARK    2  A    between atoms: C_3  and  C_4 
REMARK    3  A    between atoms: C_3  and  C_38 
REMARK    4  A    between atoms: C_6  and  C_7 
REMARK    5  A    between atoms: C_14  and  C_15 
REMARK    6  A    between atoms: C_18  and  C_19 
REMARK    7  A    between atoms: C_19  and  N_20 
REMARK       I    between atoms: N_20  and  C_21 
REMARK       I    between atoms: C_21  and  N_22 
REMARK    8  A    between atoms: N_22  and  C_23 
REMARK    9  A    between atoms: C_26  and  O_27 
ROOT
HETATM    1  C   UNL     1       6.046  26.190  54.508  1.00  0.00     0.068 C 
HETATM    2  C   UNL     1       5.394  25.813  55.868  1.00  0.00     0.001 C 
HETATM    3  C   UNL     1       5.622  26.949  56.894  1.00  0.00     0.040 C 
HETATM    4  C   UNL     1       7.126  27.139  57.172  1.00  0.00     0.206 C 
HETATM    5  N   UNL     1       7.868  26.228  56.199  1.00  0.00    -0.065 N 
HETATM    6  H   UNL     1       8.885  26.435  56.304  1.00  0.00     0.280 HD
HETATM    7  C   UNL     1       7.538  26.506  54.740  1.00  0.00     0.246 C 
HETATM    8  C   UNL     1       6.101  24.545  56.398  1.00  0.00     0.033 C 
HETATM    9  C   UNL     1       7.609  24.783  56.533  1.00  0.00     0.236 C 
ENDROOT
BRANCH   1  10
HETATM   10  C   UNL     1       5.298  27.304  53.807  1.00  0.00     0.045 A 
HETATM   11  N   UNL     1       4.821  28.315  54.561  1.00  0.00    -0.233 NA
HETATM   12  C   UNL     1       4.089  29.258  53.929  1.00  0.00     0.160 A 
HETATM   13  N   UNL     1       3.773  29.222  52.625  1.00  0.00    -0.233 NA
HETATM   14  C   UNL     1       4.259  28.204  51.887  1.00  0.00     0.043 A 
HETATM   15  C   UNL     1       5.050  27.219  52.448  1.00  0.00     0.055 A 
BRANCH  12  16
HETATM   16  C   UNL     1       3.597  30.393  54.723  1.00  0.00     0.014 A 
HETATM   17  C   UNL     1       3.803  30.456  56.109  1.00  0.00     0.034 A 
HETATM   18  C   UNL     1       3.328  31.546  56.819  1.00  0.00     0.117 A 
HETATM   19  N   UNL     1       2.663  32.572  56.253  1.00  0.00    -0.273 NA
HETATM   20  C   UNL     1       2.446  32.498  54.926  1.00  0.00     0.117 A 
HETATM   21  C   UNL     1       2.890  31.451  54.133  1.00  0.00     0.034 A 
ENDBRANCH  12  16
BRANCH  14  22
HETATM   22  C   UNL     1       3.893  28.206  50.412  1.00  0.00     0.037 C 
BRANCH  22  23
HETATM   23  C   UNL     1       4.670  27.153  49.590  1.00  0.00     0.006 C 
HETATM   24  C   UNL     1       3.775  26.297  48.702  1.00  0.00     0.006 C 
ENDBRANCH  22  23
BRANCH  22  25
HETATM   25  C   UNL     1       4.081  29.607  49.790  1.00  0.00     0.006 C 
HETATM   26  C   UNL     1       5.437  29.792  49.121  1.00  0.00     0.006 C 
ENDBRANCH  22  25
ENDBRANCH  14  22
ENDBRANCH   1  10
BRANCH   4  27
HETATM   27  C   UNL     1       7.583  28.622  57.115  1.00  0.00     0.157 C 
BRANCH  27  28
HETATM   28  N   UNL     1       8.155  29.170  58.346  1.00  0.00    -0.341 N 
HETATM   29  C   UNL     1       7.673  30.311  58.946  1.00  0.00     0.320 C 
HETATM   30  N   UNL     1       8.145  30.472  60.221  1.00  0.00    -0.309 N 
HETATM   31  O   UNL     1       6.914  31.062  58.342  1.00  0.00    -0.247 OA
HETATM   32  H   UNL     1       8.852  29.823  60.540  1.00  0.00     0.170 HD
HETATM   33  H   UNL     1       8.517  28.478  58.990  1.00  0.00     0.164 HD
BRANCH  30  34
HETATM   34  C   UNL     1       7.750  31.452  61.159  1.00  0.00     0.036 A 
HETATM   35  C   UNL     1       6.807  32.446  60.898  1.00  0.00     0.032 A 
HETATM   36  C   UNL     1       6.434  33.350  61.898  1.00  0.00     0.039 A 
HETATM   37  C   UNL     1       6.985  33.267  63.176  1.00  0.00     0.068 A 
HETATM   38  C   UNL     1       7.946  32.294  63.438  1.00  0.00     0.039 A 
HETATM   39  C   UNL     1       8.327  31.394  62.433  1.00  0.00     0.032 A 
BRANCH  37  40
HETATM   40  O   UNL     1       6.515  34.192  64.064  1.00  0.00    -0.356 OA
HETATM   41  C   UNL     1       6.910  34.029  65.421  1.00  0.00     0.210 C 
ENDBRANCH  37  40
ENDBRANCH  30  34
ENDBRANCH  27  28
ENDBRANCH   4  27
TORSDOF 9
ENDMDL
MODEL 10
REMARK VINA RESULT:      -8.4      3.792      8.637
REMARK  9 active torsions:
REMARK  status: ('A' for Active; 'I' for Inactive)
REMARK    1  A    between atoms: C_2  and  C_3 
REMARK    2  A    between atoms: C_3  and  C_4 
REMARK    3  A    between atoms: C_3  and  C_38 
REMARK    4  A    between atoms: C_6  and  C_7 
REMARK    5  A    between atoms: C_14  and  C_15 
REMARK    6  A    between atoms: C_18  and  C_19 
REMARK    7  A    between atoms: C_19  and  N_20 
REMARK       I    between atoms: N_20  and  C_21 
REMARK       I    between atoms: C_21  and  N_22 
REMARK    8  A    between atoms: N_22  and  C_23 
REMARK    9  A    between atoms: C_26  and  O_27 
ROOT
HETATM    1  C   UNL     1       6.817  26.662  57.094  1.00  0.00     0.068 C 
HETATM    2  C   UNL     1       7.734  26.318  55.886  1.00  0.00     0.001 C 
HETATM    3  C   UNL     1       7.145  26.925  54.589  1.00  0.00     0.040 C 
HETATM    4  C   UNL     1       5.767  26.311  54.277  1.00  0.00     0.206 C 
HETATM    5  N   UNL     1       5.404  25.426  55.465  1.00  0.00    -0.065 N 
HETATM    6  H   UNL     1       4.426  25.097  55.312  1.00  0.00     0.280 HD
HETATM    7  C   UNL     1       5.387  26.172  56.791  1.00  0.00     0.246 C 
HETATM    8  C   UNL     1       7.751  24.781  55.725  1.00  0.00     0.033 C 
HETATM    9  C   UNL     1       6.330  24.240  55.538  1.00  0.00     0.236 C 
ENDROOT
BRANCH   1  10
HETATM   10  C   UNL     1       6.885  28.129  57.460  1.00  0.00     0.045 A 
HETATM   11  N   UNL     1       5.849  28.916  57.107  1.00  0.00    -0.233 NA
HETATM   12  C   UNL     1       5.963  30.236  57.372  1.00  0.00     0.160 A 
HETATM   13  N   UNL     1       7.050  30.806  57.915  1.00  0.00    -0.233 NA
HETATM   14  C   UNL     1       8.076  30.004  58.263  1.00  0.00     0.043 A 
HETATM   15  C   UNL     1       8.023  28.638  58.061  1.00  0.00     0.055 A 
BRANCH  12  16
HETATM   16  C   UNL     1       4.827  31.105  57.035  1.00  0.00     0.014 A 
HETATM   17  C   UNL     1       4.740  32.414  57.532  1.00  0.00     0.034 A 
HETATM   18  C   UNL     1       3.655  33.203  57.185  1.00  0.00     0.117 A 
HETATM   19  N   UNL     1       2.654  32.784  56.386  1.00  0.00    -0.273 NA
HETATM   20  C   UNL     1       2.728  31.518  55.931  1.00  0.00     0.117 A 
HETATM   21  C   UNL     1       3.778  30.660  56.218  1.00  0.00     0.034 A 
ENDBRANCH  12  16
BRANCH  14  22
HETATM   22  C   UNL     1       9.282  30.685  58.888  1.00  0.00     0.037 C 
BRANCH  22  23
HETATM   23  C   UNL     1       8.909  31.905  59.760  1.00  0.00     0.006 C 
HETATM   24  C   UNL     1       9.557  31.886  61.139  1.00  0.00     0.006 C 
ENDBRANCH  22  23
BRANCH  22  25
HETATM   25  C   UNL     1      10.311  31.098  57.814  1.00  0.00     0.006 C 
HETATM   26  C   UNL     1      11.168  29.938  57.323  1.00  0.00     0.006 C 
ENDBRANCH  22  25
ENDBRANCH  14  22
ENDBRANCH   1  10
BRANCH   4  27
HETATM   27  C   UNL     1       4.684  27.368  53.929  1.00  0.00     0.157 C 
BRANCH  27  28
HETATM   28  N   UNL     1       5.126  28.501  53.112  1.00  0.00    -0.341 N 
HETATM   29  C   UNL     1       4.271  29.500  52.705  1.00  0.00     0.320 C 
HETATM   30  N   UNL     1       4.938  30.593  52.220  1.00  0.00    -0.309 N 
HETATM   31  O   UNL     1       3.056  29.356  52.786  1.00  0.00    -0.247 OA
HETATM   32  H   UNL     1       5.941  30.517  52.115  1.00  0.00     0.170 HD
HETATM   33  H   UNL     1       6.075  28.805  53.288  1.00  0.00     0.164 HD
BRANCH  30  34
HETATM   34  C   UNL     1       4.379  31.836  51.846  1.00  0.00     0.036 A 
HETATM   35  C   UNL     1       3.959  32.145  50.552  1.00  0.00     0.032 A 
HETATM   36  C   UNL     1       3.369  33.383  50.275  1.00  0.00     0.039 A 
HETATM   37  C   UNL     1       3.176  34.324  51.286  1.00  0.00     0.068 A 
HETATM   38  C   UNL     1       3.615  34.033  52.574  1.00  0.00     0.039 A 
HETATM   39  C   UNL     1       4.216  32.797  52.851  1.00  0.00     0.032 A 
BRANCH  37  40
HETATM   40  O   UNL     1       2.566  35.478  50.885  1.00  0.00    -0.356 OA
HETATM   41  C   UNL     1       2.850  36.644  51.648  1.00  0.00     0.210 C 
ENDBRANCH  37  40
ENDBRANCH  30  34
ENDBRANCH  27  28
ENDBRANCH   4  27
TORSDOF 9
ENDMDL
