MODEL 1
REMARK VINA RESULT:     -10.3      0.000      0.000
REMARK  6 active torsions:
REMARK  status: ('A' for Active; 'I' for Inactive)
REMARK    1  A    between atoms: C_4  and  C_5 
REMARK    2  A    between atoms: C_7  and  N_8 
REMARK       I    between atoms: N_8  and  C_9 
REMARK    3  A    between atoms: C_9  and  C_10 
REMARK    4  A    between atoms: C_10  and  N_11 
REMARK    5  A    between atoms: C_10  and  C_15 
REMARK       I    between atoms: N_11  and  C_12 
REMARK       I    between atoms: C_12  and  N_13 
REMARK    6  A    between atoms: C_15  and  C_16 
ROOT
HETATM    1  N   UNL     1       7.655  27.713  56.026  1.00  0.00    -0.325 N 
HETATM    2  C   UNL     1       7.655  26.341  56.183  1.00  0.00     0.245 C 
HETATM    3  O   UNL     1       8.196  25.717  57.096  1.00  0.00    -0.271 OA
HETATM    4  H   UNL     1       7.017  28.079  55.319  1.00  0.00     0.169 HD
ENDROOT
BRANCH   2   5
HETATM    5  C   UNL     1       6.858  25.569  55.104  1.00  0.00     0.182 C 
BRANCH   5   6
HETATM    6  N   UNL     1       5.885  26.463  54.459  1.00  0.00    -0.334 N 
HETATM    7  C   UNL     1       4.871  26.015  53.675  1.00  0.00     0.292 C 
HETATM    8  N   UNL     1       4.067  27.015  53.245  1.00  0.00    -0.254 NA
HETATM    9  O   UNL     1       4.682  24.847  53.365  1.00  0.00    -0.254 OA
HETATM   10  H   UNL     1       4.517  27.890  53.014  1.00  0.00     0.128 HD
HETATM   11  H   UNL     1       3.379  26.714  52.566  1.00  0.00     0.128 HD
HETATM   12  H   UNL     1       5.737  27.361  54.893  1.00  0.00     0.164 HD
ENDBRANCH   5   6
BRANCH   5  13
HETATM   13  C   UNL     1       7.726  24.786  54.099  1.00  0.00     0.073 C 
BRANCH  13  14
HETATM   14  C   UNL     1       7.798  23.278  54.215  1.00  0.00    -0.056 A 
HETATM   15  C   UNL     1       7.693  22.574  55.422  1.00  0.00     0.007 A 
HETATM   16  C   UNL     1       7.786  21.179  55.443  1.00  0.00     0.001 A 
HETATM   17  C   UNL     1       7.966  20.467  54.261  1.00  0.00     0.000 A 
HETATM   18  C   UNL     1       8.051  21.148  53.051  1.00  0.00     0.001 A 
HETATM   19  C   UNL     1       7.966  22.540  53.029  1.00  0.00     0.007 A 
ENDBRANCH  13  14
ENDBRANCH   5  13
ENDBRANCH   2   5
BRANCH   1  20
HETATM   20  C   UNL     1       8.366  28.671  56.774  1.00  0.00     0.035 A 
HETATM   21  C   UNL     1       7.881  29.279  57.936  1.00  0.00     0.045 A 
HETATM   22  C   UNL     1       8.651  30.223  58.637  1.00  0.00     0.019 A 
HETATM   23  C   UNL     1       9.935  30.529  58.167  1.00  0.00     0.016 A 
HETATM   24  C   UNL     1      10.430  29.929  57.011  1.00  0.00     0.003 A 
HETATM   25  C   UNL     1       9.643  29.013  56.312  1.00  0.00     0.029 A 
BRANCH  22  26
HETATM   26  C   UNL     1       8.141  30.899  59.828  1.00  0.00     0.180 A 
HETATM   27  N   UNL     1       8.678  30.993  61.031  1.00  0.00    -0.226 NA
HETATM   28  C   UNL     1       7.794  31.777  61.739  1.00  0.00     0.063 A 
HETATM   29  C   UNL     1       8.035  32.119  63.154  1.00  0.00     0.073 C 
HETATM   30  C   UNL     1       6.749  32.145  60.919  1.00  0.00     0.076 A 
HETATM   31  O   UNL     1       6.959  31.580  59.694  1.00  0.00    -0.294 OA
HETATM   32  C   UNL     1       5.539  32.967  61.082  1.00  0.00     0.079 C 
ENDBRANCH  22  26
ENDBRANCH   1  20
TORSDOF 6
ENDMDL
MODEL 2
REMARK VINA RESULT:      -9.5      2.157      3.418
REMARK  6 active torsions:
REMARK  status: ('A' for Active; 'I' for Inactive)
REMARK    1  A    between atoms: C_4  and  C_5 
REMARK    2  A    between atoms: C_7  and  N_8 
REMARK       I    between atoms: N_8  and  C_9 
REMARK    3  A    between atoms: C_9  and  C_10 
REMARK    4  A    between atoms: C_10  and  N_11 
REMARK    5  A    between atoms: C_10  and  C_15 
REMARK       I    between atoms: N_11  and  C_12 
REMARK       I    between atoms: C_12  and  N_13 
REMARK    6  A    between atoms: C_15  and  C_16 
ROOT
HETATM    1  N   UNL     1       8.296  27.333  56.733  1.00  0.00    -0.325 N 
HETATM    2  C   UNL     1       7.999  26.142  57.365  1.00  0.00     0.245 C 
HETATM    3  O   UNL     1       7.978  25.953  58.581  1.00  0.00    -0.271 OA
HETATM    4  H   UNL     1       8.099  27.367  55.733  1.00  0.00     0.169 HD
ENDROOT
BRANCH   2   5
HETATM    5  C   UNL     1       7.634  24.980  56.410  1.00  0.00     0.182 C 
BRANCH   5   6
HETATM    6  N   UNL     1       7.737  23.695  57.115  1.00  0.00    -0.334 N 
HETATM    7  C   UNL     1       8.385  22.616  56.604  1.00  0.00     0.292 C 
HETATM    8  N   UNL     1       8.404  21.568  57.460  1.00  0.00    -0.254 NA
HETATM    9  O   UNL     1       8.898  22.562  55.494  1.00  0.00    -0.254 OA
HETATM   10  H   UNL     1       7.573  21.423  58.016  1.00  0.00     0.128 HD
HETATM   11  H   UNL     1       8.778  20.721  57.050  1.00  0.00     0.128 HD
HETATM   12  H   UNL     1       7.661  23.721  58.121  1.00  0.00     0.164 HD
ENDBRANCH   5   6
BRANCH   5  13
HETATM   13  C   UNL     1       6.299  25.158  55.660  1.00  0.00     0.073 C 
BRANCH  13  14
HETATM   14  C   UNL     1       6.318  25.280  54.151  1.00  0.00    -0.056 A 
HETATM   15  C   UNL     1       7.452  25.059  53.357  1.00  0.00     0.007 A 
HETATM   16  C   UNL     1       7.387  25.208  51.968  1.00  0.00     0.001 A 
HETATM   17  C   UNL     1       6.190  25.559  51.351  1.00  0.00     0.000 A 
HETATM   18  C   UNL     1       5.050  25.760  52.121  1.00  0.00     0.001 A 
HETATM   19  C   UNL     1       5.114  25.620  53.508  1.00  0.00     0.007 A 
ENDBRANCH  13  14
ENDBRANCH   5  13
ENDBRANCH   2   5
BRANCH   1  20
HETATM   20  C   UNL     1       8.761  28.530  57.312  1.00  0.00     0.035 A 
HETATM   21  C   UNL     1       8.074  29.244  58.299  1.00  0.00     0.045 A 
HETATM   22  C   UNL     1       8.603  30.429  58.839  1.00  0.00     0.019 A 
HETATM   23  C   UNL     1       9.854  30.874  58.391  1.00  0.00     0.016 A 
HETATM   24  C   UNL     1      10.549  30.170  57.410  1.00  0.00     0.003 A 
HETATM   25  C   UNL     1       9.998  29.009  56.865  1.00  0.00     0.029 A 
BRANCH  22  26
HETATM   26  C   UNL     1       7.877  31.209  59.838  1.00  0.00     0.180 A 
HETATM   27  N   UNL     1       6.701  31.803  59.742  1.00  0.00    -0.226 NA
HETATM   28  C   UNL     1       6.491  32.347  60.990  1.00  0.00     0.063 A 
HETATM   29  C   UNL     1       5.266  33.111  61.297  1.00  0.00     0.073 C 
HETATM   30  C   UNL     1       7.558  32.043  61.808  1.00  0.00     0.076 A 
HETATM   31  O   UNL     1       8.456  31.322  61.075  1.00  0.00    -0.294 OA
HETATM   32  C   UNL     1       7.903  32.319  63.213  1.00  0.00     0.079 C 
ENDBRANCH  22  26
ENDBRANCH   1  20
TORSDOF 6
ENDMDL
MODEL 3
REMARK VINA RESULT:      -9.4      5.582      9.597
REMARK  6 active torsions:
REMARK  status: ('A' for Active; 'I' for Inactive)
REMARK    1  A    between atoms: C_4  and  C_5 
REMARK    2  A    between atoms: C_7  and  N_8 
REMARK       I    between atoms: N_8  and  C_9 
REMARK    3  A    between atoms: C_9  and  C_10 
REMARK    4  A    between atoms: C_10  and  N_11 
REMARK    5  A    between atoms: C_10  and  C_15 
REMARK       I    between atoms: N_11  and  C_12 
REMARK       I    between atoms: C_12  and  N_13 
REMARK    6  A    between atoms: C_15  and  C_16 
ROOT
HETATM    1  N   UNL     1       4.599  25.936  51.303  1.00  0.00    -0.325 N 
HETATM    2  C   UNL     1       4.860  26.982  50.439  1.00  0.00     0.245 C 
HETATM    3  O   UNL     1       5.744  27.827  50.573  1.00  0.00    -0.271 OA
HETATM    4  H   UNL     1       3.951  25.227  50.959  1.00  0.00     0.169 HD
ENDROOT
BRANCH   2   5
HETATM    5  C   UNL     1       3.949  27.027  49.189  1.00  0.00     0.182 C 
BRANCH   5   6
HETATM    6  N   UNL     1       3.274  25.733  49.009  1.00  0.00    -0.334 N 
HETATM    7  C   UNL     1       3.045  25.178  47.791  1.00  0.00     0.292 C 
HETATM    8  N   UNL     1       2.469  23.957  47.877  1.00  0.00    -0.254 NA
HETATM    9  O   UNL     1       3.309  25.701  46.716  1.00  0.00    -0.254 OA
HETATM   10  H   UNL     1       1.786  23.829  48.611  1.00  0.00     0.128 HD
HETATM   11  H   UNL     1       2.184  23.582  46.980  1.00  0.00     0.128 HD
HETATM   12  H   UNL     1       3.319  25.086  49.781  1.00  0.00     0.164 HD
ENDBRANCH   5   6
BRANCH   5  13
HETATM   13  C   UNL     1       2.985  28.229  49.137  1.00  0.00     0.073 C 
BRANCH  13  14
HETATM   14  C   UNL     1       3.298  29.377  48.200  1.00  0.00    -0.056 A 
HETATM   15  C   UNL     1       2.738  29.528  46.925  1.00  0.00     0.007 A 
HETATM   16  C   UNL     1       3.093  30.612  46.115  1.00  0.00     0.001 A 
HETATM   17  C   UNL     1       3.995  31.567  46.573  1.00  0.00     0.000 A 
HETATM   18  C   UNL     1       4.544  31.445  47.844  1.00  0.00     0.001 A 
HETATM   19  C   UNL     1       4.197  30.360  48.651  1.00  0.00     0.007 A 
ENDBRANCH  13  14
ENDBRANCH   5  13
ENDBRANCH   2   5
BRANCH   1  20
HETATM   20  C   UNL     1       5.178  25.685  52.562  1.00  0.00     0.035 A 
HETATM   21  C   UNL     1       5.926  24.544  52.869  1.00  0.00     0.045 A 
HETATM   22  C   UNL     1       6.484  24.365  54.147  1.00  0.00     0.019 A 
HETATM   23  C   UNL     1       6.301  25.366  55.110  1.00  0.00     0.016 A 
HETATM   24  C   UNL     1       5.558  26.508  54.815  1.00  0.00     0.003 A 
HETATM   25  C   UNL     1       4.991  26.660  53.549  1.00  0.00     0.029 A 
BRANCH  22  26
HETATM   26  C   UNL     1       7.230  23.158  54.498  1.00  0.00     0.180 A 
HETATM   27  N   UNL     1       7.562  22.697  55.690  1.00  0.00    -0.226 NA
HETATM   28  C   UNL     1       8.213  21.512  55.428  1.00  0.00     0.063 A 
HETATM   29  C   UNL     1       8.754  20.677  56.519  1.00  0.00     0.073 C 
HETATM   30  C   UNL     1       8.235  21.292  54.068  1.00  0.00     0.076 A 
HETATM   31  O   UNL     1       7.615  22.347  53.462  1.00  0.00    -0.294 OA
HETATM   32  C   UNL     1       8.755  20.225  53.195  1.00  0.00     0.079 C 
ENDBRANCH  22  26
ENDBRANCH   1  20
TORSDOF 6
ENDMDL
MODEL 4
REMARK VINA RESULT:      -9.4      2.059      2.587
REMARK  6 active torsions:
REMARK  status: ('A' for Active; 'I' for Inactive)
REMARK    1  A    between atoms: C_4  and  C_5 
REMARK    2  A    between atoms: C_7  and  N_8 
REMARK       I    between atoms: N_8  and  C_9 
REMARK    3  A    between atoms: C_9  and  C_10 
REMARK    4  A    between atoms: C_10  and  N_11 
REMARK    5  A    between atoms: C_10  and  C_15 
REMARK       I    between atoms: N_11  and  C_12 
REMARK       I    between atoms: C_12  and  N_13 
REMARK    6  A    between atoms: C_15  and  C_16 
ROOT
HETATM    1  N   UNL     1       6.028  27.849  55.053  1.00  0.00    -0.325 N 
HETATM    2  C   UNL     1       7.011  27.497  54.149  1.00  0.00     0.245 C 
HETATM    3  O   UNL     1       8.030  28.141  53.901  1.00  0.00    -0.271 OA
HETATM    4  H   UNL     1       5.342  27.125  55.267  1.00  0.00     0.169 HD
ENDROOT
BRANCH   2   5
HETATM    5  C   UNL     1       6.775  26.144  53.436  1.00  0.00     0.182 C 
BRANCH   5   6
HETATM    6  N   UNL     1       6.085  26.361  52.156  1.00  0.00    -0.334 N 
HETATM    7  C   UNL     1       5.096  25.550  51.699  1.00  0.00     0.292 C 
HETATM    8  N   UNL     1       4.567  25.985  50.532  1.00  0.00    -0.254 NA
HETATM    9  O   UNL     1       4.709  24.529  52.251  1.00  0.00    -0.254 OA
HETATM   10  H   UNL     1       5.209  26.397  49.870  1.00  0.00     0.128 HD
HETATM   11  H   UNL     1       3.913  25.331  50.118  1.00  0.00     0.128 HD
HETATM   12  H   UNL     1       6.075  27.304  51.800  1.00  0.00     0.164 HD
ENDBRANCH   5   6
BRANCH   5  13
HETATM   13  C   UNL     1       8.028  25.256  53.309  1.00  0.00     0.073 C 
BRANCH  13  14
HETATM   14  C   UNL     1       7.930  23.794  53.693  1.00  0.00    -0.056 A 
HETATM   15  C   UNL     1       7.964  22.735  52.775  1.00  0.00     0.007 A 
HETATM   16  C   UNL     1       7.852  21.411  53.213  1.00  0.00     0.001 A 
HETATM   17  C   UNL     1       7.724  21.125  54.568  1.00  0.00     0.000 A 
HETATM   18  C   UNL     1       7.710  22.162  55.494  1.00  0.00     0.001 A 
HETATM   19  C   UNL     1       7.814  23.484  55.059  1.00  0.00     0.007 A 
ENDBRANCH  13  14
ENDBRANCH   5  13
ENDBRANCH   2   5
BRANCH   1  20
HETATM   20  C   UNL     1       5.903  29.052  55.775  1.00  0.00     0.035 A 
HETATM   21  C   UNL     1       6.585  29.329  56.964  1.00  0.00     0.045 A 
HETATM   22  C   UNL     1       6.419  30.558  57.626  1.00  0.00     0.019 A 
HETATM   23  C   UNL     1       5.574  31.521  57.060  1.00  0.00     0.016 A 
HETATM   24  C   UNL     1       4.891  31.257  55.874  1.00  0.00     0.003 A 
HETATM   25  C   UNL     1       5.047  30.023  55.242  1.00  0.00     0.029 A 
BRANCH  22  26
HETATM   26  C   UNL     1       7.090  30.845  58.892  1.00  0.00     0.180 A 
HETATM   27  N   UNL     1       8.129  30.244  59.443  1.00  0.00    -0.226 NA
HETATM   28  C   UNL     1       8.359  30.955  60.601  1.00  0.00     0.063 A 
HETATM   29  C   UNL     1       9.455  30.589  61.519  1.00  0.00     0.073 C 
HETATM   30  C   UNL     1       7.446  31.982  60.698  1.00  0.00     0.076 A 
HETATM   31  O   UNL     1       6.622  31.914  59.611  1.00  0.00    -0.294 OA
HETATM   32  C   UNL     1       7.195  33.062  61.667  1.00  0.00     0.079 C 
ENDBRANCH  22  26
ENDBRANCH   1  20
TORSDOF 6
ENDMDL
MODEL 5
REMARK VINA RESULT:      -9.4      2.574      9.148
REMARK  6 active torsions:
REMARK  status: ('A' for Active; 'I' for Inactive)
REMARK    1  A    between atoms: C_4  and  C_5 
REMARK    2  A    between atoms: C_7  and  N_8 
REMARK       I    between atoms: N_8  and  C_9 
REMARK    3  A    between atoms: C_9  and  C_10 
REMARK    4  A    between atoms: C_10  and  N_11 
REMARK    5  A    between atoms: C_10  and  C_15 
REMARK       I    between atoms: N_11  and  C_12 
REMARK       I    between atoms: C_12  and  N_13 
REMARK    6  A    between atoms: C_15  and  C_16 
ROOT
HETATM    1  N   UNL     1       6.393  28.189  55.613  1.00  0.00    -0.325 N 
HETATM    2  C   UNL     1       5.259  28.781  56.133  1.00  0.00     0.245 C 
HETATM    3  O   UNL     1       4.098  28.421  55.934  1.00  0.00    -0.271 OA
HETATM    4  H   UNL     1       7.279  28.499  56.014  1.00  0.00     0.169 HD
ENDROOT
BRANCH   2   5
HETATM    5  C   UNL     1       5.531  29.980  57.072  1.00  0.00     0.182 C 
BRANCH   5   6
HETATM    6  N   UNL     1       4.648  29.914  58.246  1.00  0.00    -0.334 N 
HETATM    7  C   UNL     1       3.540  30.685  58.387  1.00  0.00     0.292 C 
HETATM    8  N   UNL     1       2.851  30.402  59.517  1.00  0.00    -0.254 NA
HETATM    9  O   UNL     1       3.180  31.553  57.603  1.00  0.00    -0.254 OA
HETATM   10  H   UNL     1       3.399  30.175  60.335  1.00  0.00     0.128 HD
HETATM   11  H   UNL     1       2.090  31.047  59.696  1.00  0.00     0.128 HD
HETATM   12  H   UNL     1       4.646  29.048  58.763  1.00  0.00     0.164 HD
ENDBRANCH   5   6
BRANCH   5  13
HETATM   13  C   UNL     1       7.014  30.190  57.436  1.00  0.00     0.073 C 
BRANCH  13  14
HETATM   14  C   UNL     1       7.357  30.847  58.757  1.00  0.00    -0.056 A 
HETATM   15  C   UNL     1       6.725  31.995  59.254  1.00  0.00     0.007 A 
HETATM   16  C   UNL     1       7.114  32.547  60.478  1.00  0.00     0.001 A 
HETATM   17  C   UNL     1       8.123  31.953  61.231  1.00  0.00     0.000 A 
HETATM   18  C   UNL     1       8.747  30.802  60.762  1.00  0.00     0.001 A 
HETATM   19  C   UNL     1       8.365  30.253  59.537  1.00  0.00     0.007 A 
ENDBRANCH  13  14
ENDBRANCH   5  13
ENDBRANCH   2   5
BRANCH   1  20
HETATM   20  C   UNL     1       6.473  27.156  54.659  1.00  0.00     0.035 A 
HETATM   21  C   UNL     1       6.821  25.835  54.958  1.00  0.00     0.045 A 
HETATM   22  C   UNL     1       6.872  24.853  53.954  1.00  0.00     0.019 A 
HETATM   23  C   UNL     1       6.540  25.212  52.641  1.00  0.00     0.016 A 
HETATM   24  C   UNL     1       6.191  26.525  52.331  1.00  0.00     0.003 A 
HETATM   25  C   UNL     1       6.169  27.495  53.335  1.00  0.00     0.029 A 
BRANCH  22  26
HETATM   26  C   UNL     1       7.276  23.479  54.243  1.00  0.00     0.180 A 
HETATM   27  N   UNL     1       7.299  22.840  55.399  1.00  0.00    -0.226 NA
HETATM   28  C   UNL     1       7.717  21.567  55.077  1.00  0.00     0.063 A 
HETATM   29  C   UNL     1       7.880  20.528  56.112  1.00  0.00     0.073 C 
HETATM   30  C   UNL     1       7.919  21.482  53.716  1.00  0.00     0.076 A 
HETATM   31  O   UNL     1       7.647  22.705  53.174  1.00  0.00    -0.294 OA
HETATM   32  C   UNL     1       8.338  20.415  52.792  1.00  0.00     0.079 C 
ENDBRANCH  22  26
ENDBRANCH   1  20
TORSDOF 6
ENDMDL
MODEL 6
REMARK VINA RESULT:      -9.3      5.667      9.780
REMARK  6 active torsions:
REMARK  status: ('A' for Active; 'I' for Inactive)
REMARK    1  A    between atoms: C_4  and  C_5 
REMARK    2  A    between atoms: C_7  and  N_8 
REMARK       I    between atoms: N_8  and  C_9 
REMARK    3  A    between atoms: C_9  and  C_10 
REMARK    4  A    between atoms: C_10  and  N_11 
REMARK    5  A    between atoms: C_10  and  C_15 
REMARK       I    between atoms: N_11  and  C_12 
REMARK       I    between atoms: C_12  and  N_13 
REMARK    6  A    between atoms: C_15  and  C_16 
ROOT
HETATM    1  N   UNL     1       4.757  26.195  50.842  1.00  0.00    -0.325 N 
HETATM    2  C   UNL     1       4.716  27.225  49.923  1.00  0.00     0.245 C 
HETATM    3  O   UNL     1       5.523  28.151  49.837  1.00  0.00    -0.271 OA
HETATM    4  H   UNL     1       4.118  25.419  50.667  1.00  0.00     0.169 HD
ENDROOT
BRANCH   2   5
HETATM    5  C   UNL     1       3.549  27.140  48.911  1.00  0.00     0.182 C 
BRANCH   5   6
HETATM    6  N   UNL     1       3.023  25.768  48.860  1.00  0.00    -0.334 N 
HETATM    7  C   UNL     1       2.948  25.043  47.714  1.00  0.00     0.292 C 
HETATM    8  N   UNL     1       2.492  23.786  47.924  1.00  0.00    -0.254 NA
HETATM    9  O   UNL     1       3.242  25.453  46.600  1.00  0.00    -0.254 OA
HETATM   10  H   UNL     1       1.770  23.678  48.622  1.00  0.00     0.128 HD
HETATM   11  H   UNL     1       2.318  23.274  47.068  1.00  0.00     0.128 HD
HETATM   12  H   UNL     1       3.072  25.231  49.713  1.00  0.00     0.164 HD
ENDBRANCH   5   6
BRANCH   5  13
HETATM   13  C   UNL     1       2.452  28.206  49.102  1.00  0.00     0.073 C 
BRANCH  13  14
HETATM   14  C   UNL     1       1.567  28.564  47.925  1.00  0.00    -0.056 A 
HETATM   15  C   UNL     1       1.641  29.774  47.223  1.00  0.00     0.007 A 
HETATM   16  C   UNL     1       0.775  30.032  46.156  1.00  0.00     0.001 A 
HETATM   17  C   UNL     1      -0.162  29.081  45.764  1.00  0.00     0.000 A 
HETATM   18  C   UNL     1      -0.236  27.866  46.435  1.00  0.00     0.001 A 
HETATM   19  C   UNL     1       0.623  27.610  47.505  1.00  0.00     0.007 A 
ENDBRANCH  13  14
ENDBRANCH   5  13
ENDBRANCH   2   5
BRANCH   1  20
HETATM   20  C   UNL     1       5.624  26.047  51.941  1.00  0.00     0.035 A 
HETATM   21  C   UNL     1       6.098  24.817  52.408  1.00  0.00     0.045 A 
HETATM   22  C   UNL     1       6.971  24.745  53.507  1.00  0.00     0.019 A 
HETATM   23  C   UNL     1       7.384  25.935  54.119  1.00  0.00     0.016 A 
HETATM   24  C   UNL     1       6.920  27.167  53.663  1.00  0.00     0.003 A 
HETATM   25  C   UNL     1       6.034  27.221  52.585  1.00  0.00     0.029 A 
BRANCH  22  26
HETATM   26  C   UNL     1       7.439  23.465  54.034  1.00  0.00     0.180 A 
HETATM   27  N   UNL     1       7.453  23.028  55.281  1.00  0.00    -0.226 NA
HETATM   28  C   UNL     1       7.954  21.749  55.188  1.00  0.00     0.063 A 
HETATM   29  C   UNL     1       8.133  20.907  56.387  1.00  0.00     0.073 C 
HETATM   30  C   UNL     1       8.214  21.452  53.867  1.00  0.00     0.076 A 
HETATM   31  O   UNL     1       7.895  22.550  53.121  1.00  0.00    -0.294 OA
HETATM   32  C   UNL     1       8.729  20.275  53.148  1.00  0.00     0.079 C 
ENDBRANCH  22  26
ENDBRANCH   1  20
TORSDOF 6
ENDMDL
MODEL 7
REMARK VINA RESULT:      -9.2      1.855      2.729
REMARK  6 active torsions:
REMARK  status: ('A' for Active; 'I' for Inactive)
REMARK    1  A    between atoms: C_4  and  C_5 
REMARK    2  A    between atoms: C_7  and  N_8 
REMARK       I    between atoms: N_8  and  C_9 
REMARK    3  A    between atoms: C_9  and  C_10 
REMARK    4  A    between atoms: C_10  and  N_11 
REMARK    5  A    between atoms: C_10  and  C_15 
REMARK       I    between atoms: N_11  and  C_12 
REMARK       I    between atoms: C_12  and  N_13 
REMARK    6  A    between atoms: C_15  and  C_16 
ROOT
HETATM    1  N   UNL     1       8.438  28.580  57.152  1.00  0.00    -0.325 N 
HETATM    2  C   UNL     1       7.470  28.488  56.172  1.00  0.00     0.245 C 
HETATM    3  O   UNL     1       6.867  29.431  55.659  1.00  0.00    -0.271 OA
HETATM    4  H   UNL     1       8.960  27.725  57.342  1.00  0.00     0.169 HD
ENDROOT
BRANCH   2   5
HETATM    5  C   UNL     1       7.180  27.048  55.686  1.00  0.00     0.182 C 
BRANCH   5   6
HETATM    6  N   UNL     1       5.829  26.638  56.097  1.00  0.00    -0.334 N 
HETATM    7  C   UNL     1       5.595  25.683  57.033  1.00  0.00     0.292 C 
HETATM    8  N   UNL     1       4.276  25.523  57.292  1.00  0.00    -0.254 NA
HETATM    9  O   UNL     1       6.455  25.018  57.593  1.00  0.00    -0.254 OA
HETATM   10  H   UNL     1       3.647  25.604  56.505  1.00  0.00     0.128 HD
HETATM   11  H   UNL     1       4.078  24.736  57.898  1.00  0.00     0.128 HD
HETATM   12  H   UNL     1       5.091  27.314  55.969  1.00  0.00     0.164 HD
ENDBRANCH   5   6
BRANCH   5  13
HETATM   13  C   UNL     1       7.462  26.803  54.191  1.00  0.00     0.073 C 
BRANCH  13  14
HETATM   14  C   UNL     1       7.653  25.380  53.706  1.00  0.00    -0.056 A 
HETATM   15  C   UNL     1       7.444  24.964  52.384  1.00  0.00     0.007 A 
HETATM   16  C   UNL     1       7.628  23.626  52.022  1.00  0.00     0.001 A 
HETATM   17  C   UNL     1       8.040  22.691  52.966  1.00  0.00     0.000 A 
HETATM   18  C   UNL     1       8.273  23.091  54.278  1.00  0.00     0.001 A 
HETATM   19  C   UNL     1       8.083  24.424  54.642  1.00  0.00     0.007 A 
ENDBRANCH  13  14
ENDBRANCH   5  13
ENDBRANCH   2   5
BRANCH   1  20
HETATM   20  C   UNL     1       8.846  29.725  57.864  1.00  0.00     0.035 A 
HETATM   21  C   UNL     1       8.109  30.312  58.896  1.00  0.00     0.045 A 
HETATM   22  C   UNL     1       8.584  31.451  59.570  1.00  0.00     0.019 A 
HETATM   23  C   UNL     1       9.830  31.978  59.208  1.00  0.00     0.016 A 
HETATM   24  C   UNL     1      10.575  31.400  58.182  1.00  0.00     0.003 A 
HETATM   25  C   UNL     1      10.078  30.285  57.506  1.00  0.00     0.029 A 
BRANCH  22  26
HETATM   26  C   UNL     1       7.805  32.103  60.621  1.00  0.00     0.180 A 
HETATM   27  N   UNL     1       6.585  32.608  60.567  1.00  0.00    -0.226 NA
HETATM   28  C   UNL     1       6.341  33.047  61.849  1.00  0.00     0.063 A 
HETATM   29  C   UNL     1       5.062  33.690  62.208  1.00  0.00     0.073 C 
HETATM   30  C   UNL     1       7.433  32.773  62.644  1.00  0.00     0.076 A 
HETATM   31  O   UNL     1       8.380  32.175  61.862  1.00  0.00    -0.294 OA
HETATM   32  C   UNL     1       7.764  32.978  64.064  1.00  0.00     0.079 C 
ENDBRANCH  22  26
ENDBRANCH   1  20
TORSDOF 6
ENDMDL
MODEL 8
REMARK VINA RESULT:      -9.1      1.685      1.967
REMARK  6 active torsions:
REMARK  status: ('A' for Active; 'I' for Inactive)
REMARK    1  A    between atoms: C_4  and  C_5 
REMARK    2  A    between atoms: C_7  and  N_8 
REMARK       I    between atoms: N_8  and  C_9 
REMARK    3  A    between atoms: C_9  and  C_10 
REMARK    4  A    between atoms: C_10  and  N_11 
REMARK    5  A    between atoms: C_10  and  C_15 
REMARK       I    between atoms: N_11  and  C_12 
REMARK       I    between atoms: C_12  and  N_13 
REMARK    6  A    between atoms: C_15  and  C_16 
ROOT
HETATM    1  N   UNL     1       8.464  27.596  57.309  1.00  0.00    -0.325 N 
HETATM    2  C   UNL     1       8.031  27.187  56.063  1.00  0.00     0.245 C 
HETATM    3  O   UNL     1       7.965  27.888  55.054  1.00  0.00    -0.271 OA
HETATM    4  H   UNL     1       8.623  26.853  57.990  1.00  0.00     0.169 HD
ENDROOT
BRANCH   2   5
HETATM    5  C   UNL     1       7.638  25.693  55.977  1.00  0.00     0.182 C 
BRANCH   5   6
HETATM    6  N   UNL     1       6.480  25.424  56.842  1.00  0.00    -0.334 N 
HETATM    7  C   UNL     1       5.261  25.990  56.648  1.00  0.00     0.292 C 
HETATM    8  N   UNL     1       4.335  25.543  57.529  1.00  0.00    -0.254 NA
HETATM    9  O   UNL     1       4.996  26.820  55.790  1.00  0.00    -0.254 OA
HETATM   10  H   UNL     1       4.654  25.373  58.473  1.00  0.00     0.128 HD
HETATM   11  H   UNL     1       3.455  26.040  57.475  1.00  0.00     0.128 HD
HETATM   12  H   UNL     1       6.480  24.547  57.340  1.00  0.00     0.164 HD
ENDBRANCH   5   6
BRANCH   5  13
HETATM   13  C   UNL     1       7.465  25.154  54.543  1.00  0.00     0.073 C 
BRANCH  13  14
HETATM   14  C   UNL     1       7.663  23.674  54.289  1.00  0.00    -0.056 A 
HETATM   15  C   UNL     1       7.801  23.104  53.016  1.00  0.00     0.007 A 
HETATM   16  C   UNL     1       7.965  21.723  52.869  1.00  0.00     0.001 A 
HETATM   17  C   UNL     1       8.013  20.896  53.986  1.00  0.00     0.000 A 
HETATM   18  C   UNL     1       7.899  21.446  55.258  1.00  0.00     0.001 A 
HETATM   19  C   UNL     1       7.728  22.823  55.407  1.00  0.00     0.007 A 
ENDBRANCH  13  14
ENDBRANCH   5  13
ENDBRANCH   2   5
BRANCH   1  20
HETATM   20  C   UNL     1       8.788  28.900  57.730  1.00  0.00     0.035 A 
HETATM   21  C   UNL     1       7.992  29.672  58.582  1.00  0.00     0.045 A 
HETATM   22  C   UNL     1       8.384  30.965  58.969  1.00  0.00     0.019 A 
HETATM   23  C   UNL     1       9.608  31.465  58.506  1.00  0.00     0.016 A 
HETATM   24  C   UNL     1      10.411  30.705  57.658  1.00  0.00     0.003 A 
HETATM   25  C   UNL     1       9.996  29.433  57.264  1.00  0.00     0.029 A 
BRANCH  22  26
HETATM   26  C   UNL     1       7.542  31.801  59.822  1.00  0.00     0.180 A 
HETATM   27  N   UNL     1       7.843  32.411  60.954  1.00  0.00    -0.226 NA
HETATM   28  C   UNL     1       6.693  33.088  61.293  1.00  0.00     0.063 A 
HETATM   29  C   UNL     1       6.618  33.905  62.521  1.00  0.00     0.073 C 
HETATM   30  C   UNL     1       5.732  32.871  60.330  1.00  0.00     0.076 A 
HETATM   31  O   UNL     1       6.264  32.039  59.387  1.00  0.00    -0.294 OA
HETATM   32  C   UNL     1       4.345  33.321  60.125  1.00  0.00     0.079 C 
ENDBRANCH  22  26
ENDBRANCH   1  20
TORSDOF 6
ENDMDL
MODEL 9
REMARK VINA RESULT:      -9.0      4.497      8.033
REMARK  6 active torsions:
REMARK  status: ('A' for Active; 'I' for Inactive)
REMARK    1  A    between atoms: C_4  and  C_5 
REMARK    2  A    between atoms: C_7  and  N_8 
REMARK       I    between atoms: N_8  and  C_9 
REMARK    3  A    between atoms: C_9  and  C_10 
REMARK    4  A    between atoms: C_10  and  N_11 
REMARK    5  A    between atoms: C_10  and  C_15 
REMARK       I    between atoms: N_11  and  C_12 
REMARK       I    between atoms: C_12  and  N_13 
REMARK    6  A    between atoms: C_15  and  C_16 
ROOT
HETATM    1  N   UNL     1       5.826  26.371  54.065  1.00  0.00    -0.325 N 
HETATM    2  C   UNL     1       7.197  26.347  54.231  1.00  0.00     0.245 C 
HETATM    3  O   UNL     1       7.975  27.261  53.959  1.00  0.00    -0.271 OA
HETATM    4  H   UNL     1       5.312  25.605  54.500  1.00  0.00     0.169 HD
ENDROOT
BRANCH   2   5
HETATM    5  C   UNL     1       7.748  25.041  54.852  1.00  0.00     0.182 C 
BRANCH   5   6
HETATM    6  N   UNL     1       8.125  25.268  56.255  1.00  0.00    -0.334 N 
HETATM    7  C   UNL     1       7.217  25.423  57.253  1.00  0.00     0.292 C 
HETATM    8  N   UNL     1       7.799  25.554  58.468  1.00  0.00    -0.254 NA
HETATM    9  O   UNL     1       6.003  25.453  57.104  1.00  0.00    -0.254 OA
HETATM   10  H   UNL     1       8.661  26.080  58.502  1.00  0.00     0.128 HD
HETATM   11  H   UNL     1       7.144  25.788  59.204  1.00  0.00     0.128 HD
HETATM   12  H   UNL     1       9.034  24.936  56.540  1.00  0.00     0.164 HD
ENDBRANCH   5   6
BRANCH   5  13
HETATM   13  C   UNL     1       6.848  23.805  54.656  1.00  0.00     0.073 C 
BRANCH  13  14
HETATM   14  C   UNL     1       7.496  22.445  54.502  1.00  0.00    -0.056 A 
HETATM   15  C   UNL     1       7.816  21.599  55.572  1.00  0.00     0.007 A 
HETATM   16  C   UNL     1       8.429  20.363  55.342  1.00  0.00     0.001 A 
HETATM   17  C   UNL     1       8.713  19.947  54.045  1.00  0.00     0.000 A 
HETATM   18  C   UNL     1       8.383  20.765  52.970  1.00  0.00     0.001 A 
HETATM   19  C   UNL     1       7.778  22.001  53.197  1.00  0.00     0.007 A 
ENDBRANCH  13  14
ENDBRANCH   5  13
ENDBRANCH   2   5
BRANCH   1  20
HETATM   20  C   UNL     1       5.045  27.362  53.439  1.00  0.00     0.035 A 
HETATM   21  C   UNL     1       4.718  27.361  52.079  1.00  0.00     0.045 A 
HETATM   22  C   UNL     1       3.924  28.379  51.523  1.00  0.00     0.019 A 
HETATM   23  C   UNL     1       3.439  29.391  52.363  1.00  0.00     0.016 A 
HETATM   24  C   UNL     1       3.758  29.401  53.719  1.00  0.00     0.003 A 
HETATM   25  C   UNL     1       4.567  28.397  54.251  1.00  0.00     0.029 A 
BRANCH  22  26
HETATM   26  C   UNL     1       3.610  28.417  50.097  1.00  0.00     0.180 A 
HETATM   27  N   UNL     1       3.396  29.460  49.315  1.00  0.00    -0.226 NA
HETATM   28  C   UNL     1       3.194  28.914  48.066  1.00  0.00     0.063 A 
HETATM   29  C   UNL     1       2.913  29.765  46.894  1.00  0.00     0.073 C 
HETATM   30  C   UNL     1       3.311  27.543  48.141  1.00  0.00     0.076 A 
HETATM   31  O   UNL     1       3.569  27.214  49.441  1.00  0.00    -0.294 OA
HETATM   32  C   UNL     1       3.221  26.437  47.172  1.00  0.00     0.079 C 
ENDBRANCH  22  26
ENDBRANCH   1  20
TORSDOF 6
ENDMDL
MODEL 10
REMARK VINA RESULT:      -8.9      4.597      8.584
REMARK  6 active torsions:
REMARK  status: ('A' for Active; 'I' for Inactive)
REMARK    1  A    between atoms: C_4  and  C_5 
REMARK    2  A    between atoms: C_7  and  N_8 
REMARK       I    between atoms: N_8  and  C_9 
REMARK    3  A    between atoms: C_9  and  C_10 
REMARK    4  A    between atoms: C_10  and  N_11 
REMARK    5  A    between atoms: C_10  and  C_15 
REMARK       I    between atoms: N_11  and  C_12 
REMARK       I    between atoms: C_12  and  N_13 
REMARK    6  A    between atoms: C_15  and  C_16 
ROOT
HETATM    1  N   UNL     1       6.214  27.932  52.612  1.00  0.00    -0.325 N 
HETATM    2  C   UNL     1       4.914  28.248  52.271  1.00  0.00     0.245 C 
HETATM    3  O   UNL     1       3.903  27.921  52.892  1.00  0.00    -0.271 OA
HETATM    4  H   UNL     1       6.942  28.424  52.093  1.00  0.00     0.169 HD
ENDROOT
BRANCH   2   5
HETATM    5  C   UNL     1       4.776  29.125  51.003  1.00  0.00     0.182 C 
BRANCH   5   6
HETATM    6  N   UNL     1       5.379  30.445  51.234  1.00  0.00    -0.334 N 
HETATM    7  C   UNL     1       4.664  31.600  51.226  1.00  0.00     0.292 C 
HETATM    8  N   UNL     1       5.421  32.681  51.526  1.00  0.00    -0.254 NA
HETATM    9  O   UNL     1       3.471  31.690  50.973  1.00  0.00    -0.254 OA
HETATM   10  H   UNL     1       6.366  32.685  51.167  1.00  0.00     0.128 HD
HETATM   11  H   UNL     1       4.932  33.560  51.409  1.00  0.00     0.128 HD
HETATM   12  H   UNL     1       6.236  30.467  51.765  1.00  0.00     0.164 HD
ENDBRANCH   5   6
BRANCH   5  13
HETATM   13  C   UNL     1       5.256  28.454  49.701  1.00  0.00     0.073 C 
BRANCH  13  14
HETATM   14  C   UNL     1       4.246  27.732  48.834  1.00  0.00    -0.056 A 
HETATM   15  C   UNL     1       3.348  28.373  47.970  1.00  0.00     0.007 A 
HETATM   16  C   UNL     1       2.436  27.631  47.213  1.00  0.00     0.001 A 
HETATM   17  C   UNL     1       2.418  26.242  47.295  1.00  0.00     0.000 A 
HETATM   18  C   UNL     1       3.316  25.588  48.132  1.00  0.00     0.001 A 
HETATM   19  C   UNL     1       4.223  26.327  48.892  1.00  0.00     0.007 A 
ENDBRANCH  13  14
ENDBRANCH   5  13
ENDBRANCH   2   5
BRANCH   1  20
HETATM   20  C   UNL     1       6.658  27.075  53.638  1.00  0.00     0.035 A 
HETATM   21  C   UNL     1       6.903  25.709  53.469  1.00  0.00     0.045 A 
HETATM   22  C   UNL     1       7.355  24.915  54.538  1.00  0.00     0.019 A 
HETATM   23  C   UNL     1       7.585  25.523  55.779  1.00  0.00     0.016 A 
HETATM   24  C   UNL     1       7.346  26.884  55.958  1.00  0.00     0.003 A 
HETATM   25  C   UNL     1       6.874  27.653  54.894  1.00  0.00     0.029 A 
BRANCH  22  26
HETATM   26  C   UNL     1       7.572  23.478  54.389  1.00  0.00     0.180 A 
HETATM   27  N   UNL     1       7.862  22.783  53.303  1.00  0.00    -0.226 NA
HETATM   28  C   UNL     1       8.001  21.489  53.753  1.00  0.00     0.063 A 
HETATM   29  C   UNL     1       8.327  20.387  52.827  1.00  0.00     0.073 C 
HETATM   30  C   UNL     1       7.802  21.453  55.116  1.00  0.00     0.076 A 
HETATM   31  O   UNL     1       7.518  22.723  55.532  1.00  0.00    -0.294 OA
HETATM   32  C   UNL     1       7.832  20.400  56.144  1.00  0.00     0.079 C 
ENDBRANCH  22  26
ENDBRANCH   1  20
TORSDOF 6
ENDMDL
