MODEL 1
REMARK VINA RESULT:      -8.2      0.000      0.000
REMARK  4 active torsions:
REMARK  status: ('A' for Active; 'I' for Inactive)
REMARK    1  A    between atoms: C_2  and  C_3 
REMARK    2  A    between atoms: C_5  and  N_6 
REMARK       I    between atoms: N_6  and  C_7 
REMARK    3  A    between atoms: C_7  and  C_8 
REMARK    4  A    between atoms: C_16  and  O_17 
ROOT
HETATM    1  C   UNL     1       7.386  24.003  54.571  1.00  0.00    -0.048 A 
HETATM    2  C   UNL     1       8.037  25.077  55.209  1.00  0.00     0.040 A 
HETATM    3  C   UNL     1       7.456  26.349  55.276  1.00  0.00     0.069 A 
HETATM    4  C   UNL     1       6.190  26.575  54.703  1.00  0.00     0.095 A 
HETATM    5  C   UNL     1       5.543  25.531  54.047  1.00  0.00     0.039 A 
HETATM    6  C   UNL     1       6.139  24.267  53.977  1.00  0.00     0.011 A 
ENDROOT
BRANCH   3   7
HETATM    7  N   UNL     1       8.069  27.455  55.912  1.00  0.00    -0.320 N 
HETATM    8  C   UNL     1       8.175  27.708  57.262  1.00  0.00     0.257 C 
HETATM    9  O   UNL     1       7.819  26.987  58.185  1.00  0.00    -0.267 OA
HETATM   10  H   UNL     1       8.563  28.057  55.259  1.00  0.00     0.169 HD
BRANCH   8  11
HETATM   11  C   UNL     1       8.847  28.980  57.600  1.00  0.00     0.051 A 
HETATM   12  C   UNL     1      10.004  29.386  56.945  1.00  0.00     0.133 A 
HETATM   13  N   UNL     1      10.659  30.539  57.221  1.00  0.00    -0.271 NA
HETATM   14  C   UNL     1      10.116  31.327  58.182  1.00  0.00     0.135 A 
HETATM   15  C   UNL     1       8.953  31.010  58.873  1.00  0.00     0.029 A 
HETATM   16 BR   UNL     1       8.274  32.168  60.196  1.00  0.00    -0.050 Br
HETATM   17  C   UNL     1       8.301  29.819  58.573  1.00  0.00     0.039 A 
ENDBRANCH   8  11
ENDBRANCH   3   7
BRANCH   4  18
HETATM   18  O   UNL     1       5.698  27.852  54.838  1.00  0.00    -0.354 OA
HETATM   19  C   UNL     1       4.535  28.012  55.643  1.00  0.00     0.210 C 
ENDBRANCH   4  18
BRANCH   1  20
HETATM   20  C   UNL     1       8.010  22.598  54.484  1.00  0.00    -0.024 C 
HETATM   21  C   UNL     1       9.536  22.577  54.732  1.00  0.00     0.019 C 
HETATM   22  C   UNL     1       7.754  22.030  53.073  1.00  0.00     0.019 C 
HETATM   23  C   UNL     1       7.380  21.651  55.532  1.00  0.00     0.019 C 
ENDBRANCH   1  20
TORSDOF 4
ENDMDL
MODEL 2
REMARK VINA RESULT:      -8.1      1.925      2.464
REMARK  4 active torsions:
REMARK  status: ('A' for Active; 'I' for Inactive)
REMARK    1  A    between atoms: C_2  and  C_3 
REMARK    2  A    between atoms: C_5  and  N_6 
REMARK       I    between atoms: N_6  and  C_7 
REMARK    3  A    between atoms: C_7  and  C_8 
REMARK    4  A    between atoms: C_16  and  O_17 
ROOT
HETATM    1  C   UNL     1       7.876  23.219  53.982  1.00  0.00    -0.048 A 
HETATM    2  C   UNL     1       7.875  24.263  54.927  1.00  0.00     0.040 A 
HETATM    3  C   UNL     1       7.566  25.580  54.564  1.00  0.00     0.069 A 
HETATM    4  C   UNL     1       7.242  25.882  53.228  1.00  0.00     0.095 A 
HETATM    5  C   UNL     1       7.261  24.867  52.275  1.00  0.00     0.039 A 
HETATM    6  C   UNL     1       7.583  23.557  52.649  1.00  0.00     0.011 A 
ENDROOT
BRANCH   3   7
HETATM    7  N   UNL     1       7.546  26.659  55.480  1.00  0.00    -0.320 N 
HETATM    8  C   UNL     1       6.475  27.146  56.196  1.00  0.00     0.257 C 
HETATM    9  O   UNL     1       5.338  26.695  56.234  1.00  0.00    -0.267 OA
HETATM   10  H   UNL     1       8.474  27.023  55.676  1.00  0.00     0.169 HD
BRANCH   8  11
HETATM   11  C   UNL     1       6.781  28.316  57.045  1.00  0.00     0.051 A 
HETATM   12  C   UNL     1       7.869  28.320  57.910  1.00  0.00     0.133 A 
HETATM   13  N   UNL     1       8.188  29.366  58.710  1.00  0.00    -0.271 NA
HETATM   14  C   UNL     1       7.393  30.460  58.621  1.00  0.00     0.135 A 
HETATM   15  C   UNL     1       6.299  30.551  57.770  1.00  0.00     0.029 A 
HETATM   16 BR   UNL     1       5.248  32.115  57.718  1.00  0.00    -0.050 Br
HETATM   17  C   UNL     1       5.990  29.463  56.961  1.00  0.00     0.039 A 
ENDBRANCH   8  11
ENDBRANCH   3   7
BRANCH   4  18
HETATM   18  O   UNL     1       6.936  27.200  52.976  1.00  0.00    -0.354 OA
HETATM   19  C   UNL     1       5.688  27.462  52.344  1.00  0.00     0.210 C 
ENDBRANCH   4  18
BRANCH   1  20
HETATM   20  C   UNL     1       8.216  21.766  54.362  1.00  0.00    -0.024 C 
HETATM   21  C   UNL     1       7.415  21.236  55.573  1.00  0.00     0.019 C 
HETATM   22  C   UNL     1       9.714  21.685  54.715  1.00  0.00     0.019 C 
HETATM   23  C   UNL     1       7.921  20.807  53.185  1.00  0.00     0.019 C 
ENDBRANCH   1  20
TORSDOF 4
ENDMDL
MODEL 3
REMARK VINA RESULT:      -8.0      4.153      6.264
REMARK  4 active torsions:
REMARK  status: ('A' for Active; 'I' for Inactive)
REMARK    1  A    between atoms: C_2  and  C_3 
REMARK    2  A    between atoms: C_5  and  N_6 
REMARK       I    between atoms: N_6  and  C_7 
REMARK    3  A    between atoms: C_7  and  C_8 
REMARK    4  A    between atoms: C_16  and  O_17 
ROOT
HETATM    1  C   UNL     1       8.006  22.552  55.262  1.00  0.00    -0.048 A 
HETATM    2  C   UNL     1       7.497  23.326  54.201  1.00  0.00     0.040 A 
HETATM    3  C   UNL     1       7.292  24.705  54.333  1.00  0.00     0.069 A 
HETATM    4  C   UNL     1       7.601  25.347  55.548  1.00  0.00     0.095 A 
HETATM    5  C   UNL     1       8.083  24.594  56.615  1.00  0.00     0.039 A 
HETATM    6  C   UNL     1       8.273  23.215  56.473  1.00  0.00     0.011 A 
ENDROOT
BRANCH   3   7
HETATM    7  N   UNL     1       6.789  25.524  53.294  1.00  0.00    -0.320 N 
HETATM    8  C   UNL     1       5.527  25.517  52.742  1.00  0.00     0.257 C 
HETATM    9  O   UNL     1       4.565  24.845  53.090  1.00  0.00    -0.267 OA
HETATM   10  H   UNL     1       7.440  26.256  53.024  1.00  0.00     0.169 HD
BRANCH   8  11
HETATM   11  C   UNL     1       5.332  26.481  51.639  1.00  0.00     0.051 A 
HETATM   12  C   UNL     1       5.641  27.828  51.789  1.00  0.00     0.133 A 
HETATM   13  N   UNL     1       5.476  28.750  50.810  1.00  0.00    -0.271 NA
HETATM   14  C   UNL     1       5.000  28.295  49.625  1.00  0.00     0.135 A 
HETATM   15  C   UNL     1       4.685  26.964  49.380  1.00  0.00     0.029 A 
HETATM   16 BR   UNL     1       4.026  26.424  47.699  1.00  0.00    -0.050 Br
HETATM   17  C   UNL     1       4.860  26.038  50.402  1.00  0.00     0.039 A 
ENDBRANCH   8  11
ENDBRANCH   3   7
BRANCH   4  18
HETATM   18  O   UNL     1       7.382  26.706  55.571  1.00  0.00    -0.354 OA
HETATM   19  C   UNL     1       7.981  27.436  56.635  1.00  0.00     0.210 C 
ENDBRANCH   4  18
BRANCH   1  20
HETATM   20  C   UNL     1       8.236  21.034  55.136  1.00  0.00    -0.024 C 
HETATM   21  C   UNL     1       9.688  20.597  55.438  1.00  0.00     0.019 C 
HETATM   22  C   UNL     1       7.903  20.602  53.694  1.00  0.00     0.019 C 
HETATM   23  C   UNL     1       7.329  20.257  56.118  1.00  0.00     0.019 C 
ENDBRANCH   1  20
TORSDOF 4
ENDMDL
MODEL 4
REMARK VINA RESULT:      -7.9      4.170      6.429
REMARK  4 active torsions:
REMARK  status: ('A' for Active; 'I' for Inactive)
REMARK    1  A    between atoms: C_2  and  C_3 
REMARK    2  A    between atoms: C_5  and  N_6 
REMARK       I    between atoms: N_6  and  C_7 
REMARK    3  A    between atoms: C_7  and  C_8 
REMARK    4  A    between atoms: C_16  and  O_17 
ROOT
HETATM    1  C   UNL     1       7.395  23.184  54.646  1.00  0.00    -0.048 A 
HETATM    2  C   UNL     1       7.047  23.915  53.495  1.00  0.00     0.040 A 
HETATM    3  C   UNL     1       6.374  25.141  53.580  1.00  0.00     0.069 A 
HETATM    4  C   UNL     1       6.037  25.670  54.840  1.00  0.00     0.095 A 
HETATM    5  C   UNL     1       6.352  24.949  55.989  1.00  0.00     0.039 A 
HETATM    6  C   UNL     1       7.014  23.720  55.889  1.00  0.00     0.011 A 
ENDROOT
BRANCH   3   7
HETATM    7  N   UNL     1       6.010  25.913  52.451  1.00  0.00    -0.320 N 
HETATM    8  C   UNL     1       5.115  25.591  51.455  1.00  0.00     0.257 C 
HETATM    9  O   UNL     1       4.403  24.598  51.385  1.00  0.00    -0.267 OA
HETATM   10  H   UNL     1       6.404  26.849  52.474  1.00  0.00     0.169 HD
BRANCH   8  11
HETATM   11  C   UNL     1       4.987  26.608  50.390  1.00  0.00     0.051 A 
HETATM   12  C   UNL     1       4.470  26.288  49.139  1.00  0.00     0.133 A 
HETATM   13  N   UNL     1       4.337  27.182  48.131  1.00  0.00    -0.271 NA
HETATM   14  C   UNL     1       4.720  28.455  48.397  1.00  0.00     0.135 A 
HETATM   15  C   UNL     1       5.227  28.868  49.623  1.00  0.00     0.029 A 
HETATM   16 BR   UNL     1       5.736  30.661  49.900  1.00  0.00    -0.050 Br
HETATM   17  C   UNL     1       5.357  27.930  50.641  1.00  0.00     0.039 A 
ENDBRANCH   8  11
ENDBRANCH   3   7
BRANCH   4  18
HETATM   18  O   UNL     1       5.395  26.887  54.819  1.00  0.00    -0.354 OA
HETATM   19  C   UNL     1       5.379  27.628  56.033  1.00  0.00     0.210 C 
ENDBRANCH   4  18
BRANCH   1  20
HETATM   20  C   UNL     1       8.131  21.833  54.572  1.00  0.00    -0.024 C 
HETATM   21  C   UNL     1       7.611  20.784  55.581  1.00  0.00     0.019 C 
HETATM   22  C   UNL     1       9.627  22.069  54.866  1.00  0.00     0.019 C 
HETATM   23  C   UNL     1       7.986  21.204  53.167  1.00  0.00     0.019 C 
ENDBRANCH   1  20
TORSDOF 4
ENDMDL
MODEL 5
REMARK VINA RESULT:      -7.7      4.831      7.369
REMARK  4 active torsions:
REMARK  status: ('A' for Active; 'I' for Inactive)
REMARK    1  A    between atoms: C_2  and  C_3 
REMARK    2  A    between atoms: C_5  and  N_6 
REMARK       I    between atoms: N_6  and  C_7 
REMARK    3  A    between atoms: C_7  and  C_8 
REMARK    4  A    between atoms: C_16  and  O_17 
ROOT
HETATM    1  C   UNL     1       4.334  27.559  49.878  1.00  0.00    -0.048 A 
HETATM    2  C   UNL     1       5.055  26.539  50.526  1.00  0.00     0.040 A 
HETATM    3  C   UNL     1       5.808  26.792  51.680  1.00  0.00     0.069 A 
HETATM    4  C   UNL     1       5.849  28.092  52.219  1.00  0.00     0.095 A 
HETATM    5  C   UNL     1       5.161  29.119  51.578  1.00  0.00     0.039 A 
HETATM    6  C   UNL     1       4.422  28.854  50.420  1.00  0.00     0.011 A 
ENDROOT
BRANCH   3   7
HETATM    7  N   UNL     1       6.543  25.797  52.368  1.00  0.00    -0.320 N 
HETATM    8  C   UNL     1       6.117  24.986  53.397  1.00  0.00     0.257 C 
HETATM    9  O   UNL     1       4.993  24.918  53.875  1.00  0.00    -0.267 OA
HETATM   10  H   UNL     1       7.454  25.627  51.953  1.00  0.00     0.169 HD
BRANCH   8  11
HETATM   11  C   UNL     1       7.149  24.070  53.926  1.00  0.00     0.051 A 
HETATM   12  C   UNL     1       7.908  24.399  55.043  1.00  0.00     0.133 A 
HETATM   13  N   UNL     1       8.867  23.596  55.563  1.00  0.00    -0.271 NA
HETATM   14  C   UNL     1       9.057  22.404  54.946  1.00  0.00     0.135 A 
HETATM   15  C   UNL     1       8.331  21.985  53.837  1.00  0.00     0.029 A 
HETATM   16 BR   UNL     1       8.668  20.309  53.044  1.00  0.00    -0.050 Br
HETATM   17  C   UNL     1       7.354  22.829  53.321  1.00  0.00     0.039 A 
ENDBRANCH   8  11
ENDBRANCH   3   7
BRANCH   4  18
HETATM   18  O   UNL     1       6.601  28.234  53.363  1.00  0.00    -0.354 OA
HETATM   19  C   UNL     1       5.899  28.561  54.557  1.00  0.00     0.210 C 
ENDBRANCH   4  18
BRANCH   1  20
HETATM   20  C   UNL     1       3.503  27.301  48.607  1.00  0.00    -0.024 C 
HETATM   21  C   UNL     1       3.329  25.801  48.272  1.00  0.00     0.019 C 
HETATM   22  C   UNL     1       4.206  27.974  47.412  1.00  0.00     0.019 C 
HETATM   23  C   UNL     1       2.080  27.888  48.752  1.00  0.00     0.019 C 
ENDBRANCH   1  20
TORSDOF 4
ENDMDL
MODEL 6
REMARK VINA RESULT:      -7.6      1.626      2.091
REMARK  4 active torsions:
REMARK  status: ('A' for Active; 'I' for Inactive)
REMARK    1  A    between atoms: C_2  and  C_3 
REMARK    2  A    between atoms: C_5  and  N_6 
REMARK       I    between atoms: N_6  and  C_7 
REMARK    3  A    between atoms: C_7  and  C_8 
REMARK    4  A    between atoms: C_16  and  O_17 
ROOT
HETATM    1  C   UNL     1       7.210  24.134  54.773  1.00  0.00    -0.048 A 
HETATM    2  C   UNL     1       7.326  25.290  55.570  1.00  0.00     0.040 A 
HETATM    3  C   UNL     1       6.486  26.395  55.385  1.00  0.00     0.069 A 
HETATM    4  C   UNL     1       5.493  26.362  54.387  1.00  0.00     0.095 A 
HETATM    5  C   UNL     1       5.379  25.237  53.574  1.00  0.00     0.039 A 
HETATM    6  C   UNL     1       6.233  24.144  53.762  1.00  0.00     0.011 A 
ENDROOT
BRANCH   3   7
HETATM    7  N   UNL     1       6.561  27.573  56.164  1.00  0.00    -0.320 N 
HETATM    8  C   UNL     1       7.464  27.878  57.160  1.00  0.00     0.257 C 
HETATM    9  O   UNL     1       8.426  27.213  57.521  1.00  0.00    -0.267 OA
HETATM   10  H   UNL     1       5.917  28.293  55.848  1.00  0.00     0.169 HD
BRANCH   8  11
HETATM   11  C   UNL     1       7.246  29.187  57.810  1.00  0.00     0.051 A 
HETATM   12  C   UNL     1       6.103  29.938  57.563  1.00  0.00     0.133 A 
HETATM   13  N   UNL     1       5.860  31.144  58.131  1.00  0.00    -0.271 NA
HETATM   14  C   UNL     1       6.796  31.604  58.997  1.00  0.00     0.135 A 
HETATM   15  C   UNL     1       7.957  30.912  59.317  1.00  0.00     0.029 A 
HETATM   16 BR   UNL     1       9.204  31.633  60.532  1.00  0.00    -0.050 Br
HETATM   17  C   UNL     1       8.184  29.677  58.719  1.00  0.00     0.039 A 
ENDBRANCH   8  11
ENDBRANCH   3   7
BRANCH   4  18
HETATM   18  O   UNL     1       4.707  27.488  54.297  1.00  0.00    -0.354 OA
HETATM   19  C   UNL     1       4.189  27.810  53.012  1.00  0.00     0.210 C 
ENDBRANCH   4  18
BRANCH   1  20
HETATM   20  C   UNL     1       8.127  22.911  54.960  1.00  0.00    -0.024 C 
HETATM   21  C   UNL     1       7.426  21.703  55.624  1.00  0.00     0.019 C 
HETATM   22  C   UNL     1       9.316  23.317  55.854  1.00  0.00     0.019 C 
HETATM   23  C   UNL     1       8.665  22.414  53.598  1.00  0.00     0.019 C 
ENDBRANCH   1  20
TORSDOF 4
ENDMDL
MODEL 7
REMARK VINA RESULT:      -7.6      4.388      7.423
REMARK  4 active torsions:
REMARK  status: ('A' for Active; 'I' for Inactive)
REMARK    1  A    between atoms: C_2  and  C_3 
REMARK    2  A    between atoms: C_5  and  N_6 
REMARK       I    between atoms: N_6  and  C_7 
REMARK    3  A    between atoms: C_7  and  C_8 
REMARK    4  A    between atoms: C_16  and  O_17 
ROOT
HETATM    1  C   UNL     1       4.635  27.149  50.811  1.00  0.00    -0.048 A 
HETATM    2  C   UNL     1       5.250  25.952  51.225  1.00  0.00     0.040 A 
HETATM    3  C   UNL     1       5.488  25.680  52.578  1.00  0.00     0.069 A 
HETATM    4  C   UNL     1       5.105  26.614  53.559  1.00  0.00     0.095 A 
HETATM    5  C   UNL     1       4.517  27.813  53.167  1.00  0.00     0.039 A 
HETATM    6  C   UNL     1       4.295  28.077  51.810  1.00  0.00     0.011 A 
ENDROOT
BRANCH   3   7
HETATM    7  N   UNL     1       6.096  24.489  53.041  1.00  0.00    -0.320 N 
HETATM    8  C   UNL     1       7.403  24.083  52.878  1.00  0.00     0.257 C 
HETATM    9  O   UNL     1       8.318  24.708  52.358  1.00  0.00    -0.267 OA
HETATM   10  H   UNL     1       5.486  23.948  53.646  1.00  0.00     0.169 HD
BRANCH   8  11
HETATM   11  C   UNL     1       7.714  22.759  53.456  1.00  0.00     0.051 A 
HETATM   12  C   UNL     1       7.869  21.635  52.652  1.00  0.00     0.133 A 
HETATM   13  N   UNL     1       8.149  20.400  53.134  1.00  0.00    -0.271 NA
HETATM   14  C   UNL     1       8.300  20.296  54.478  1.00  0.00     0.135 A 
HETATM   15  C   UNL     1       8.182  21.368  55.353  1.00  0.00     0.029 A 
HETATM   16 BR   UNL     1       8.405  21.124  57.208  1.00  0.00    -0.050 Br
HETATM   17  C   UNL     1       7.891  22.624  54.834  1.00  0.00     0.039 A 
ENDBRANCH   8  11
ENDBRANCH   3   7
BRANCH   4  18
HETATM   18  O   UNL     1       5.365  26.246  54.860  1.00  0.00    -0.354 OA
HETATM   19  C   UNL     1       6.232  27.091  55.606  1.00  0.00     0.210 C 
ENDBRANCH   4  18
BRANCH   1  20
HETATM   20  C   UNL     1       4.368  27.466  49.328  1.00  0.00    -0.024 C 
HETATM   21  C   UNL     1       5.436  28.379  48.683  1.00  0.00     0.019 C 
HETATM   22  C   UNL     1       3.006  28.180  49.213  1.00  0.00     0.019 C 
HETATM   23  C   UNL     1       4.330  26.169  48.486  1.00  0.00     0.019 C 
ENDBRANCH   1  20
TORSDOF 4
ENDMDL
MODEL 8
REMARK VINA RESULT:      -7.5      4.489      9.148
REMARK  4 active torsions:
REMARK  status: ('A' for Active; 'I' for Inactive)
REMARK    1  A    between atoms: C_2  and  C_3 
REMARK    2  A    between atoms: C_5  and  N_6 
REMARK       I    between atoms: N_6  and  C_7 
REMARK    3  A    between atoms: C_7  and  C_8 
REMARK    4  A    between atoms: C_16  and  O_17 
ROOT
HETATM    1  C   UNL     1       7.395  32.585  62.253  1.00  0.00    -0.048 A 
HETATM    2  C   UNL     1       6.756  31.953  61.169  1.00  0.00     0.040 A 
HETATM    3  C   UNL     1       7.485  31.285  60.177  1.00  0.00     0.069 A 
HETATM    4  C   UNL     1       8.890  31.231  60.255  1.00  0.00     0.095 A 
HETATM    5  C   UNL     1       9.540  31.870  61.307  1.00  0.00     0.039 A 
HETATM    6  C   UNL     1       8.800  32.544  62.286  1.00  0.00     0.011 A 
ENDROOT
BRANCH   3   7
HETATM    7  N   UNL     1       6.886  30.631  59.074  1.00  0.00    -0.320 N 
HETATM    8  C   UNL     1       6.211  31.196  58.015  1.00  0.00     0.257 C 
HETATM    9  O   UNL     1       6.054  32.388  57.783  1.00  0.00    -0.267 OA
HETATM   10  H   UNL     1       7.092  29.636  59.051  1.00  0.00     0.169 HD
BRANCH   8  11
HETATM   11  C   UNL     1       5.671  30.226  57.040  1.00  0.00     0.051 A 
HETATM   12  C   UNL     1       5.122  30.641  55.832  1.00  0.00     0.133 A 
HETATM   13  N   UNL     1       4.612  29.791  54.908  1.00  0.00    -0.271 NA
HETATM   14  C   UNL     1       4.673  28.469  55.203  1.00  0.00     0.135 A 
HETATM   15  C   UNL     1       5.222  27.965  56.376  1.00  0.00     0.029 A 
HETATM   16 BR   UNL     1       5.261  26.109  56.701  1.00  0.00    -0.050 Br
HETATM   17  C   UNL     1       5.737  28.858  57.310  1.00  0.00     0.039 A 
ENDBRANCH   8  11
ENDBRANCH   3   7
BRANCH   4  18
HETATM   18  O   UNL     1       9.512  30.536  59.244  1.00  0.00    -0.354 OA
HETATM   19  C   UNL     1      10.225  31.303  58.280  1.00  0.00     0.210 C 
ENDBRANCH   4  18
BRANCH   1  20
HETATM   20  C   UNL     1       6.611  33.327  63.352  1.00  0.00    -0.024 C 
HETATM   21  C   UNL     1       6.165  34.751  62.946  1.00  0.00     0.019 C 
HETATM   22  C   UNL     1       7.507  33.450  64.601  1.00  0.00     0.019 C 
HETATM   23  C   UNL     1       5.325  32.553  63.727  1.00  0.00     0.019 C 
ENDBRANCH   1  20
TORSDOF 4
ENDMDL
MODEL 9
REMARK VINA RESULT:      -7.2      3.445      5.394
REMARK  4 active torsions:
REMARK  status: ('A' for Active; 'I' for Inactive)
REMARK    1  A    between atoms: C_2  and  C_3 
REMARK    2  A    between atoms: C_5  and  N_6 
REMARK       I    between atoms: N_6  and  C_7 
REMARK    3  A    between atoms: C_7  and  C_8 
REMARK    4  A    between atoms: C_16  and  O_17 
ROOT
HETATM    1  C   UNL     1       6.603  28.160  56.335  1.00  0.00    -0.048 A 
HETATM    2  C   UNL     1       6.536  28.832  57.571  1.00  0.00     0.040 A 
HETATM    3  C   UNL     1       7.614  29.582  58.057  1.00  0.00     0.069 A 
HETATM    4  C   UNL     1       8.797  29.682  57.301  1.00  0.00     0.095 A 
HETATM    5  C   UNL     1       8.890  29.006  56.087  1.00  0.00     0.039 A 
HETATM    6  C   UNL     1       7.810  28.250  55.618  1.00  0.00     0.011 A 
ENDROOT
BRANCH   3   7
HETATM    7  N   UNL     1       7.590  30.278  59.290  1.00  0.00    -0.320 N 
HETATM    8  C   UNL     1       7.189  31.575  59.525  1.00  0.00     0.257 C 
HETATM    9  O   UNL     1       6.708  32.363  58.723  1.00  0.00    -0.267 OA
HETATM   10  H   UNL     1       7.806  29.678  60.081  1.00  0.00     0.169 HD
BRANCH   8  11
HETATM   11  C   UNL     1       7.322  32.015  60.930  1.00  0.00     0.051 A 
HETATM   12  C   UNL     1       8.154  31.350  61.823  1.00  0.00     0.133 A 
HETATM   13  N   UNL     1       8.306  31.712  63.120  1.00  0.00    -0.271 NA
HETATM   14  C   UNL     1       7.609  32.799  63.530  1.00  0.00     0.135 A 
HETATM   15  C   UNL     1       6.771  33.535  62.701  1.00  0.00     0.029 A 
HETATM   16 BR   UNL     1       5.837  35.033  63.362  1.00  0.00    -0.050 Br
HETATM   17  C   UNL     1       6.629  33.142  61.375  1.00  0.00     0.039 A 
ENDBRANCH   8  11
ENDBRANCH   3   7
BRANCH   4  18
HETATM   18  O   UNL     1       9.790  30.457  57.855  1.00  0.00    -0.354 OA
HETATM   19  C   UNL     1      11.122  30.201  57.424  1.00  0.00     0.210 C 
ENDBRANCH   4  18
BRANCH   1  20
HETATM   20  C   UNL     1       5.430  27.328  55.786  1.00  0.00    -0.024 C 
HETATM   21  C   UNL     1       5.681  26.754  54.372  1.00  0.00     0.019 C 
HETATM   22  C   UNL     1       4.178  28.226  55.715  1.00  0.00     0.019 C 
HETATM   23  C   UNL     1       5.134  26.121  56.706  1.00  0.00     0.019 C 
ENDBRANCH   1  20
TORSDOF 4
ENDMDL
MODEL 10
REMARK VINA RESULT:      -7.2      4.439      7.009
REMARK  4 active torsions:
REMARK  status: ('A' for Active; 'I' for Inactive)
REMARK    1  A    between atoms: C_2  and  C_3 
REMARK    2  A    between atoms: C_5  and  N_6 
REMARK       I    between atoms: N_6  and  C_7 
REMARK    3  A    between atoms: C_7  and  C_8 
REMARK    4  A    between atoms: C_16  and  O_17 
ROOT
HETATM    1  C   UNL     1       4.209  27.145  49.668  1.00  0.00    -0.048 A 
HETATM    2  C   UNL     1       4.898  26.229  50.485  1.00  0.00     0.040 A 
HETATM    3  C   UNL     1       5.110  26.476  51.847  1.00  0.00     0.069 A 
HETATM    4  C   UNL     1       4.622  27.661  52.430  1.00  0.00     0.095 A 
HETATM    5  C   UNL     1       3.958  28.590  51.632  1.00  0.00     0.039 A 
HETATM    6  C   UNL     1       3.764  28.336  50.270  1.00  0.00     0.011 A 
ENDROOT
BRANCH   3   7
HETATM    7  N   UNL     1       5.791  25.582  52.707  1.00  0.00    -0.320 N 
HETATM    8  C   UNL     1       6.965  24.902  52.469  1.00  0.00     0.257 C 
HETATM    9  O   UNL     1       7.691  24.991  51.487  1.00  0.00    -0.267 OA
HETATM   10  H   UNL     1       5.383  25.547  53.637  1.00  0.00     0.169 HD
BRANCH   8  11
HETATM   11  C   UNL     1       7.395  24.011  53.567  1.00  0.00     0.051 A 
HETATM   12  C   UNL     1       7.417  22.630  53.414  1.00  0.00     0.133 A 
HETATM   13  N   UNL     1       7.798  21.772  54.391  1.00  0.00    -0.271 NA
HETATM   14  C   UNL     1       8.194  22.328  55.563  1.00  0.00     0.135 A 
HETATM   15  C   UNL     1       8.223  23.697  55.796  1.00  0.00     0.029 A 
HETATM   16 BR   UNL     1       8.785  24.377  57.461  1.00  0.00    -0.050 Br
HETATM   17  C   UNL     1       7.824  24.556  54.779  1.00  0.00     0.039 A 
ENDBRANCH   8  11
ENDBRANCH   3   7
BRANCH   4  18
HETATM   18  O   UNL     1       4.864  27.802  53.777  1.00  0.00    -0.354 OA
HETATM   19  C   UNL     1       4.086  28.769  54.473  1.00  0.00     0.210 C 
ENDBRANCH   4  18
BRANCH   1  20
HETATM   20  C   UNL     1       3.970  26.893  48.168  1.00  0.00    -0.024 C 
HETATM   21  C   UNL     1       3.437  25.476  47.852  1.00  0.00     0.019 C 
HETATM   22  C   UNL     1       5.304  27.074  47.418  1.00  0.00     0.019 C 
HETATM   23  C   UNL     1       2.932  27.890  47.601  1.00  0.00     0.019 C 
ENDBRANCH   1  20
TORSDOF 4
ENDMDL
