MODEL 1
REMARK VINA RESULT:      -8.7      0.000      0.000
REMARK  6 active torsions:
REMARK  status: ('A' for Active; 'I' for Inactive)
REMARK    1  A    between atoms: O_2  and  C_3 
REMARK    2  A    between atoms: C_6  and  C_7 
REMARK    3  A    between atoms: C_7  and  N_8 
REMARK       I    between atoms: N_8  and  C_9 
REMARK       I    between atoms: C_9  and  N_10 
REMARK    4  A    between atoms: N_10  and  C_11 
REMARK    5  A    between atoms: C_11  and  C_12 
REMARK    6  A    between atoms: C_13  and  C_14 
ROOT
HETATM    1  N   UNL     1       7.122  28.093  56.029  1.00  0.00    -0.339 N 
HETATM    2  C   UNL     1       6.406  26.947  55.936  1.00  0.00     0.316 C 
HETATM    3  N   UNL     1       7.082  25.795  56.183  1.00  0.00    -0.339 N 
HETATM    4  O   UNL     1       5.225  27.000  55.608  1.00  0.00    -0.247 OA
HETATM    5  H   UNL     1       6.568  28.913  55.821  1.00  0.00     0.164 HD
HETATM    6  H   UNL     1       7.894  25.853  56.777  1.00  0.00     0.164 HD
ENDROOT
BRANCH   3   7
HETATM    7  C   UNL     1       6.461  24.491  56.036  1.00  0.00     0.163 C 
BRANCH   7   8
HETATM    8  C   UNL     1       7.281  23.513  55.214  1.00  0.00    -0.029 A 
HETATM    9  C   UNL     1       7.300  23.595  53.804  1.00  0.00    -0.018 A 
HETATM   10  C   UNL     1       8.100  22.717  53.054  1.00  0.00     0.013 A 
HETATM   11  C   UNL     1       8.883  21.754  53.686  1.00  0.00     0.001 A 
HETATM   12  C   UNL     1       8.880  21.667  55.073  1.00  0.00     0.001 A 
HETATM   13  C   UNL     1       8.092  22.540  55.828  1.00  0.00     0.010 A 
BRANCH   9  14
HETATM   14  C   UNL     1       6.536  24.597  53.074  1.00  0.00    -0.018 A 
HETATM   15  C   UNL     1       7.145  25.701  52.511  1.00  0.00     0.061 A 
HETATM   16  S   UNL     1       6.020  26.738  51.742  1.00  0.00    -0.113 SA
HETATM   17  C   UNL     1       4.708  25.734  52.184  1.00  0.00     0.050 A 
HETATM   18  C   UNL     1       5.118  24.628  52.895  1.00  0.00     0.020 A 
ENDBRANCH   9  14
ENDBRANCH   7   8
ENDBRANCH   3   7
BRANCH   1  19
HETATM   19  C   UNL     1       8.550  28.269  56.178  1.00  0.00     0.162 C 
BRANCH  19  20
HETATM   20  C   UNL     1       8.931  29.290  57.222  1.00  0.00    -0.040 A 
HETATM   21  C   UNL     1      10.084  30.068  57.043  1.00  0.00     0.011 A 
HETATM   22  C   UNL     1      10.421  31.078  57.953  1.00  0.00     0.037 A 
HETATM   23  C   UNL     1       9.602  31.334  59.052  1.00  0.00     0.068 A 
HETATM   24  C   UNL     1       8.455  30.563  59.238  1.00  0.00     0.037 A 
HETATM   25  C   UNL     1       8.115  29.556  58.330  1.00  0.00     0.011 A 
BRANCH  23  26
HETATM   26  O   UNL     1       9.806  32.295  60.003  1.00  0.00    -0.356 OA
HETATM   27  C   UNL     1       9.640  31.903  61.359  1.00  0.00     0.210 C 
ENDBRANCH  23  26
ENDBRANCH  19  20
ENDBRANCH   1  19
TORSDOF 6
ENDMDL
MODEL 2
REMARK VINA RESULT:      -8.3      4.299      8.660
REMARK  6 active torsions:
REMARK  status: ('A' for Active; 'I' for Inactive)
REMARK    1  A    between atoms: O_2  and  C_3 
REMARK    2  A    between atoms: C_6  and  C_7 
REMARK    3  A    between atoms: C_7  and  N_8 
REMARK       I    between atoms: N_8  and  C_9 
REMARK       I    between atoms: C_9  and  N_10 
REMARK    4  A    between atoms: N_10  and  C_11 
REMARK    5  A    between atoms: C_11  and  C_12 
REMARK    6  A    between atoms: C_13  and  C_14 
ROOT
HETATM    1  N   UNL     1       4.514  26.078  51.132  1.00  0.00    -0.339 N 
HETATM    2  C   UNL     1       5.277  25.932  52.242  1.00  0.00     0.316 C 
HETATM    3  N   UNL     1       6.619  25.867  52.044  1.00  0.00    -0.339 N 
HETATM    4  O   UNL     1       4.734  25.832  53.337  1.00  0.00    -0.247 OA
HETATM    5  H   UNL     1       3.526  26.107  51.343  1.00  0.00     0.164 HD
HETATM    6  H   UNL     1       6.987  26.308  51.216  1.00  0.00     0.164 HD
ENDROOT
BRANCH   3   7
HETATM    7  C   UNL     1       7.548  25.625  53.133  1.00  0.00     0.163 C 
BRANCH   7   8
HETATM    8  C   UNL     1       7.668  24.162  53.521  1.00  0.00    -0.029 A 
HETATM    9  C   UNL     1       7.460  23.751  54.857  1.00  0.00    -0.018 A 
HETATM   10  C   UNL     1       7.524  22.390  55.197  1.00  0.00     0.013 A 
HETATM   11  C   UNL     1       7.795  21.427  54.227  1.00  0.00     0.001 A 
HETATM   12  C   UNL     1       7.993  21.817  52.908  1.00  0.00     0.001 A 
HETATM   13  C   UNL     1       7.926  23.168  52.559  1.00  0.00     0.010 A 
BRANCH   9  14
HETATM   14  C   UNL     1       7.139  24.695  55.918  1.00  0.00    -0.018 A 
HETATM   15  C   UNL     1       8.126  25.343  56.632  1.00  0.00     0.061 A 
HETATM   16  S   UNL     1       7.482  26.368  57.842  1.00  0.00    -0.113 SA
HETATM   17  C   UNL     1       5.879  25.927  57.442  1.00  0.00     0.050 A 
HETATM   18  C   UNL     1       5.835  25.025  56.402  1.00  0.00     0.020 A 
ENDBRANCH   9  14
ENDBRANCH   7   8
ENDBRANCH   3   7
BRANCH   1  19
HETATM   19  C   UNL     1       4.901  25.998  49.740  1.00  0.00     0.162 C 
BRANCH  19  20
HETATM   20  C   UNL     1       3.893  26.604  48.794  1.00  0.00    -0.040 A 
HETATM   21  C   UNL     1       3.251  25.788  47.851  1.00  0.00     0.011 A 
HETATM   22  C   UNL     1       2.253  26.303  47.012  1.00  0.00     0.037 A 
HETATM   23  C   UNL     1       1.874  27.641  47.113  1.00  0.00     0.068 A 
HETATM   24  C   UNL     1       2.511  28.458  48.047  1.00  0.00     0.037 A 
HETATM   25  C   UNL     1       3.505  27.946  48.886  1.00  0.00     0.011 A 
BRANCH  23  26
HETATM   26  O   UNL     1       0.910  28.264  46.370  1.00  0.00    -0.356 OA
HETATM   27  C   UNL     1      -0.134  27.447  45.856  1.00  0.00     0.210 C 
ENDBRANCH  23  26
ENDBRANCH  19  20
ENDBRANCH   1  19
TORSDOF 6
ENDMDL
MODEL 3
REMARK VINA RESULT:      -8.3      3.021      8.502
REMARK  6 active torsions:
REMARK  status: ('A' for Active; 'I' for Inactive)
REMARK    1  A    between atoms: O_2  and  C_3 
REMARK    2  A    between atoms: C_6  and  C_7 
REMARK    3  A    between atoms: C_7  and  N_8 
REMARK       I    between atoms: N_8  and  C_9 
REMARK       I    between atoms: C_9  and  N_10 
REMARK    4  A    between atoms: N_10  and  C_11 
REMARK    5  A    between atoms: C_11  and  C_12 
REMARK    6  A    between atoms: C_13  and  C_14 
ROOT
HETATM    1  N   UNL     1       5.739  26.349  55.808  1.00  0.00    -0.339 N 
HETATM    2  C   UNL     1       5.917  27.642  56.170  1.00  0.00     0.316 C 
HETATM    3  N   UNL     1       6.722  27.860  57.241  1.00  0.00    -0.339 N 
HETATM    4  O   UNL     1       5.330  28.525  55.554  1.00  0.00    -0.247 OA
HETATM    5  H   UNL     1       5.120  26.251  55.014  1.00  0.00     0.164 HD
HETATM    6  H   UNL     1       7.422  27.164  57.444  1.00  0.00     0.164 HD
ENDROOT
BRANCH   3   7
HETATM    7  C   UNL     1       6.932  29.188  57.790  1.00  0.00     0.163 C 
BRANCH   7   8
HETATM    8  C   UNL     1       8.356  29.692  57.643  1.00  0.00    -0.029 A 
HETATM    9  C   UNL     1       8.871  30.666  58.528  1.00  0.00    -0.018 A 
HETATM   10  C   UNL     1      10.206  31.090  58.414  1.00  0.00     0.013 A 
HETATM   11  C   UNL     1      11.039  30.561  57.431  1.00  0.00     0.001 A 
HETATM   12  C   UNL     1      10.547  29.597  56.559  1.00  0.00     0.001 A 
HETATM   13  C   UNL     1       9.223  29.164  56.667  1.00  0.00     0.010 A 
BRANCH   9  14
HETATM   14  C   UNL     1       8.073  31.239  59.602  1.00  0.00    -0.018 A 
HETATM   15  C   UNL     1       8.321  30.938  60.926  1.00  0.00     0.061 A 
HETATM   16  S   UNL     1       7.221  31.713  61.983  1.00  0.00    -0.113 SA
HETATM   17  C   UNL     1       6.384  32.431  60.676  1.00  0.00     0.050 A 
HETATM   18  C   UNL     1       6.937  32.095  59.460  1.00  0.00     0.020 A 
ENDBRANCH   9  14
ENDBRANCH   7   8
ENDBRANCH   3   7
BRANCH   1  19
HETATM   19  C   UNL     1       6.137  25.143  56.501  1.00  0.00     0.162 C 
BRANCH  19  20
HETATM   20  C   UNL     1       6.991  24.218  55.669  1.00  0.00    -0.040 A 
HETATM   21  C   UNL     1       7.751  23.222  56.299  1.00  0.00     0.011 A 
HETATM   22  C   UNL     1       8.491  22.297  55.551  1.00  0.00     0.037 A 
HETATM   23  C   UNL     1       8.472  22.346  54.157  1.00  0.00     0.068 A 
HETATM   24  C   UNL     1       7.719  23.336  53.524  1.00  0.00     0.037 A 
HETATM   25  C   UNL     1       6.978  24.258  54.269  1.00  0.00     0.011 A 
BRANCH  23  26
HETATM   26  O   UNL     1       9.132  21.500  53.311  1.00  0.00    -0.356 OA
HETATM   27  C   UNL     1       8.405  20.379  52.825  1.00  0.00     0.210 C 
ENDBRANCH  23  26
ENDBRANCH  19  20
ENDBRANCH   1  19
TORSDOF 6
ENDMDL
MODEL 4
REMARK VINA RESULT:      -8.1      1.728      2.841
REMARK  6 active torsions:
REMARK  status: ('A' for Active; 'I' for Inactive)
REMARK    1  A    between atoms: O_2  and  C_3 
REMARK    2  A    between atoms: C_6  and  C_7 
REMARK    3  A    between atoms: C_7  and  N_8 
REMARK       I    between atoms: N_8  and  C_9 
REMARK       I    between atoms: C_9  and  N_10 
REMARK    4  A    between atoms: N_10  and  C_11 
REMARK    5  A    between atoms: C_11  and  C_12 
REMARK    6  A    between atoms: C_13  and  C_14 
ROOT
HETATM    1  N   UNL     1       7.621  28.564  54.086  1.00  0.00    -0.339 N 
HETATM    2  C   UNL     1       6.953  27.531  53.519  1.00  0.00     0.316 C 
HETATM    3  N   UNL     1       7.586  26.329  53.527  1.00  0.00    -0.339 N 
HETATM    4  O   UNL     1       5.856  27.731  53.008  1.00  0.00    -0.247 OA
HETATM    5  H   UNL     1       7.104  29.432  54.037  1.00  0.00     0.164 HD
HETATM    6  H   UNL     1       8.269  26.171  54.252  1.00  0.00     0.164 HD
ENDROOT
BRANCH   3   7
HETATM    7  C   UNL     1       7.024  25.158  52.880  1.00  0.00     0.163 C 
BRANCH   7   8
HETATM    8  C   UNL     1       7.454  23.846  53.510  1.00  0.00    -0.029 A 
HETATM    9  C   UNL     1       7.345  23.645  54.905  1.00  0.00    -0.018 A 
HETATM   10  C   UNL     1       7.698  22.409  55.472  1.00  0.00     0.013 A 
HETATM   11  C   UNL     1       8.163  21.367  54.673  1.00  0.00     0.001 A 
HETATM   12  C   UNL     1       8.267  21.548  53.299  1.00  0.00     0.001 A 
HETATM   13  C   UNL     1       7.913  22.771  52.725  1.00  0.00     0.010 A 
BRANCH   9  14
HETATM   14  C   UNL     1       6.835  24.674  55.799  1.00  0.00    -0.018 A 
HETATM   15  C   UNL     1       5.498  25.017  55.820  1.00  0.00     0.061 A 
HETATM   16  S   UNL     1       5.169  26.275  56.933  1.00  0.00    -0.113 SA
HETATM   17  C   UNL     1       6.818  26.393  57.372  1.00  0.00     0.050 A 
HETATM   18  C   UNL     1       7.601  25.487  56.692  1.00  0.00     0.020 A 
ENDBRANCH   9  14
ENDBRANCH   7   8
ENDBRANCH   3   7
BRANCH   1  19
HETATM   19  C   UNL     1       8.991  28.624  54.545  1.00  0.00     0.162 C 
BRANCH  19  20
HETATM   20  C   UNL     1       9.158  29.334  55.866  1.00  0.00    -0.040 A 
HETATM   21  C   UNL     1       8.046  29.517  56.701  1.00  0.00     0.011 A 
HETATM   22  C   UNL     1       8.182  30.100  57.967  1.00  0.00     0.037 A 
HETATM   23  C   UNL     1       9.437  30.501  58.424  1.00  0.00     0.068 A 
HETATM   24  C   UNL     1      10.548  30.325  57.598  1.00  0.00     0.037 A 
HETATM   25  C   UNL     1      10.415  29.740  56.335  1.00  0.00     0.011 A 
BRANCH  23  26
HETATM   26  O   UNL     1       9.711  31.067  59.638  1.00  0.00    -0.356 OA
HETATM   27  C   UNL     1       8.876  30.691  60.725  1.00  0.00     0.210 C 
ENDBRANCH  23  26
ENDBRANCH  19  20
ENDBRANCH   1  19
TORSDOF 6
ENDMDL
MODEL 5
REMARK VINA RESULT:      -8.0      4.241      8.658
REMARK  6 active torsions:
REMARK  status: ('A' for Active; 'I' for Inactive)
REMARK    1  A    between atoms: O_2  and  C_3 
REMARK    2  A    between atoms: C_6  and  C_7 
REMARK    3  A    between atoms: C_7  and  N_8 
REMARK       I    between atoms: N_8  and  C_9 
REMARK       I    between atoms: C_9  and  N_10 
REMARK    4  A    between atoms: N_10  and  C_11 
REMARK    5  A    between atoms: C_11  and  C_12 
REMARK    6  A    between atoms: C_13  and  C_14 
ROOT
HETATM    1  N   UNL     1       6.016  26.633  50.771  1.00  0.00    -0.339 N 
HETATM    2  C   UNL     1       6.305  25.672  51.682  1.00  0.00     0.316 C 
HETATM    3  N   UNL     1       5.354  25.430  52.620  1.00  0.00    -0.339 N 
HETATM    4  O   UNL     1       7.394  25.110  51.639  1.00  0.00    -0.247 OA
HETATM    5  H   UNL     1       6.767  26.776  50.109  1.00  0.00     0.164 HD
HETATM    6  H   UNL     1       4.399  25.646  52.379  1.00  0.00     0.164 HD
ENDROOT
BRANCH   3   7
HETATM    7  C   UNL     1       5.565  24.490  53.706  1.00  0.00     0.163 C 
BRANCH   7   8
HETATM    8  C   UNL     1       6.372  25.058  54.859  1.00  0.00    -0.029 A 
HETATM    9  C   UNL     1       7.453  24.334  55.409  1.00  0.00    -0.018 A 
HETATM   10  C   UNL     1       8.225  24.890  56.443  1.00  0.00     0.013 A 
HETATM   11  C   UNL     1       7.937  26.158  56.941  1.00  0.00     0.001 A 
HETATM   12  C   UNL     1       6.882  26.885  56.404  1.00  0.00     0.001 A 
HETATM   13  C   UNL     1       6.112  26.343  55.372  1.00  0.00     0.010 A 
BRANCH   9  14
HETATM   14  C   UNL     1       7.836  23.018  54.917  1.00  0.00    -0.018 A 
HETATM   15  C   UNL     1       7.609  21.875  55.658  1.00  0.00     0.061 A 
HETATM   16  S   UNL     1       8.184  20.468  54.870  1.00  0.00    -0.113 SA
HETATM   17  C   UNL     1       8.770  21.381  53.547  1.00  0.00     0.050 A 
HETATM   18  C   UNL     1       8.524  22.728  53.698  1.00  0.00     0.020 A 
ENDBRANCH   9  14
ENDBRANCH   7   8
ENDBRANCH   3   7
BRANCH   1  19
HETATM   19  C   UNL     1       4.915  27.570  50.750  1.00  0.00     0.162 C 
BRANCH  19  20
HETATM   20  C   UNL     1       3.963  27.364  49.597  1.00  0.00    -0.040 A 
HETATM   21  C   UNL     1       4.100  26.232  48.780  1.00  0.00     0.011 A 
HETATM   22  C   UNL     1       3.185  25.969  47.752  1.00  0.00     0.037 A 
HETATM   23  C   UNL     1       2.110  26.829  47.533  1.00  0.00     0.068 A 
HETATM   24  C   UNL     1       1.969  27.959  48.340  1.00  0.00     0.037 A 
HETATM   25  C   UNL     1       2.880  28.221  49.368  1.00  0.00     0.011 A 
BRANCH  23  26
HETATM   26  O   UNL     1       1.142  26.684  46.579  1.00  0.00    -0.356 OA
HETATM   27  C   UNL     1       0.189  27.733  46.464  1.00  0.00     0.210 C 
ENDBRANCH  23  26
ENDBRANCH  19  20
ENDBRANCH   1  19
TORSDOF 6
ENDMDL
MODEL 6
REMARK VINA RESULT:      -7.9      5.280      8.287
REMARK  6 active torsions:
REMARK  status: ('A' for Active; 'I' for Inactive)
REMARK    1  A    between atoms: O_2  and  C_3 
REMARK    2  A    between atoms: C_6  and  C_7 
REMARK    3  A    between atoms: C_7  and  N_8 
REMARK       I    between atoms: N_8  and  C_9 
REMARK       I    between atoms: C_9  and  N_10 
REMARK    4  A    between atoms: N_10  and  C_11 
REMARK    5  A    between atoms: C_11  and  C_12 
REMARK    6  A    between atoms: C_13  and  C_14 
ROOT
HETATM    1  N   UNL     1       5.930  25.809  52.460  1.00  0.00    -0.339 N 
HETATM    2  C   UNL     1       5.323  26.740  51.686  1.00  0.00     0.316 C 
HETATM    3  N   UNL     1       5.675  26.754  50.375  1.00  0.00    -0.339 N 
HETATM    4  O   UNL     1       4.534  27.527  52.199  1.00  0.00    -0.247 OA
HETATM    5  H   UNL     1       5.636  25.858  53.426  1.00  0.00     0.164 HD
HETATM    6  H   UNL     1       6.017  25.892  49.978  1.00  0.00     0.164 HD
ENDROOT
BRANCH   3   7
HETATM    7  C   UNL     1       5.169  27.752  49.451  1.00  0.00     0.163 C 
BRANCH   7   8
HETATM    8  C   UNL     1       3.953  27.296  48.664  1.00  0.00    -0.029 A 
HETATM    9  C   UNL     1       2.800  28.108  48.584  1.00  0.00    -0.018 A 
HETATM   10  C   UNL     1       1.699  27.700  47.812  1.00  0.00     0.013 A 
HETATM   11  C   UNL     1       1.726  26.492  47.118  1.00  0.00     0.001 A 
HETATM   12  C   UNL     1       2.857  25.688  47.181  1.00  0.00     0.001 A 
HETATM   13  C   UNL     1       3.959  26.087  47.942  1.00  0.00     0.010 A 
BRANCH   9  14
HETATM   14  C   UNL     1       2.711  29.398  49.252  1.00  0.00    -0.018 A 
HETATM   15  C   UNL     1       3.131  30.561  48.638  1.00  0.00     0.061 A 
HETATM   16  S   UNL     1       2.950  31.929  49.650  1.00  0.00    -0.113 SA
HETATM   17  C   UNL     1       2.339  30.972  50.929  1.00  0.00     0.050 A 
HETATM   18  C   UNL     1       2.265  29.639  50.589  1.00  0.00     0.020 A 
ENDBRANCH   9  14
ENDBRANCH   7   8
ENDBRANCH   3   7
BRANCH   1  19
HETATM   19  C   UNL     1       7.036  24.934  52.139  1.00  0.00     0.162 C 
BRANCH  19  20
HETATM   20  C   UNL     1       7.338  23.918  53.213  1.00  0.00    -0.040 A 
HETATM   21  C   UNL     1       7.060  24.222  54.553  1.00  0.00     0.011 A 
HETATM   22  C   UNL     1       7.254  23.272  55.565  1.00  0.00     0.037 A 
HETATM   23  C   UNL     1       7.719  21.996  55.248  1.00  0.00     0.068 A 
HETATM   24  C   UNL     1       8.001  21.687  53.917  1.00  0.00     0.037 A 
HETATM   25  C   UNL     1       7.805  22.633  52.906  1.00  0.00     0.011 A 
BRANCH  23  26
HETATM   26  O   UNL     1       7.937  20.975  56.131  1.00  0.00    -0.356 OA
HETATM   27  C   UNL     1       9.236  20.398  56.138  1.00  0.00     0.210 C 
ENDBRANCH  23  26
ENDBRANCH  19  20
ENDBRANCH   1  19
TORSDOF 6
ENDMDL
MODEL 7
REMARK VINA RESULT:      -7.7      2.389      2.963
REMARK  6 active torsions:
REMARK  status: ('A' for Active; 'I' for Inactive)
REMARK    1  A    between atoms: O_2  and  C_3 
REMARK    2  A    between atoms: C_6  and  C_7 
REMARK    3  A    between atoms: C_7  and  N_8 
REMARK       I    between atoms: N_8  and  C_9 
REMARK       I    between atoms: C_9  and  N_10 
REMARK    4  A    between atoms: N_10  and  C_11 
REMARK    5  A    between atoms: C_11  and  C_12 
REMARK    6  A    between atoms: C_13  and  C_14 
ROOT
HETATM    1  N   UNL     1       8.312  27.642  57.227  1.00  0.00    -0.339 N 
HETATM    2  C   UNL     1       7.889  26.355  57.208  1.00  0.00     0.316 C 
HETATM    3  N   UNL     1       7.137  25.986  56.139  1.00  0.00    -0.339 N 
HETATM    4  O   UNL     1       8.167  25.616  58.146  1.00  0.00    -0.247 OA
HETATM    5  H   UNL     1       8.856  27.858  58.052  1.00  0.00     0.164 HD
HETATM    6  H   UNL     1       7.262  26.504  55.284  1.00  0.00     0.164 HD
ENDROOT
BRANCH   3   7
HETATM    7  C   UNL     1       6.546  24.665  56.032  1.00  0.00     0.163 C 
BRANCH   7   8
HETATM    8  C   UNL     1       7.390  23.680  55.243  1.00  0.00    -0.029 A 
HETATM    9  C   UNL     1       7.371  23.684  53.830  1.00  0.00    -0.018 A 
HETATM   10  C   UNL     1       8.193  22.802  53.109  1.00  0.00     0.013 A 
HETATM   11  C   UNL     1       9.034  21.912  53.772  1.00  0.00     0.001 A 
HETATM   12  C   UNL     1       9.069  21.903  55.161  1.00  0.00     0.001 A 
HETATM   13  C   UNL     1       8.259  22.779  55.887  1.00  0.00     0.010 A 
BRANCH   9  14
HETATM   14  C   UNL     1       6.545  24.609  53.067  1.00  0.00    -0.018 A 
HETATM   15  C   UNL     1       7.093  25.691  52.407  1.00  0.00     0.061 A 
HETATM   16  S   UNL     1       5.904  26.636  51.617  1.00  0.00    -0.113 SA
HETATM   17  C   UNL     1       4.645  25.624  52.180  1.00  0.00     0.050 A 
HETATM   18  C   UNL     1       5.121  24.582  52.946  1.00  0.00     0.020 A 
ENDBRANCH   9  14
ENDBRANCH   7   8
ENDBRANCH   3   7
BRANCH   1  19
HETATM   19  C   UNL     1       7.935  28.741  56.366  1.00  0.00     0.162 C 
BRANCH  19  20
HETATM   20  C   UNL     1       6.738  29.516  56.859  1.00  0.00    -0.040 A 
HETATM   21  C   UNL     1       6.911  30.520  57.822  1.00  0.00     0.011 A 
HETATM   22  C   UNL     1       5.834  31.311  58.242  1.00  0.00     0.037 A 
HETATM   23  C   UNL     1       4.566  31.118  57.694  1.00  0.00     0.068 A 
HETATM   24  C   UNL     1       4.386  30.119  56.737  1.00  0.00     0.037 A 
HETATM   25  C   UNL     1       5.460  29.330  56.315  1.00  0.00     0.011 A 
BRANCH  23  26
HETATM   26  O   UNL     1       3.438  31.826  58.002  1.00  0.00    -0.356 OA
HETATM   27  C   UNL     1       3.529  33.243  57.935  1.00  0.00     0.210 C 
ENDBRANCH  23  26
ENDBRANCH  19  20
ENDBRANCH   1  19
TORSDOF 6
ENDMDL
MODEL 8
REMARK VINA RESULT:      -7.6      3.983      7.396
REMARK  6 active torsions:
REMARK  status: ('A' for Active; 'I' for Inactive)
REMARK    1  A    between atoms: O_2  and  C_3 
REMARK    2  A    between atoms: C_6  and  C_7 
REMARK    3  A    between atoms: C_7  and  N_8 
REMARK       I    between atoms: N_8  and  C_9 
REMARK       I    between atoms: C_9  and  N_10 
REMARK    4  A    between atoms: N_10  and  C_11 
REMARK    5  A    between atoms: C_11  and  C_12 
REMARK    6  A    between atoms: C_13  and  C_14 
ROOT
HETATM    1  N   UNL     1       4.490  26.069  51.282  1.00  0.00    -0.339 N 
HETATM    2  C   UNL     1       5.285  25.893  52.364  1.00  0.00     0.316 C 
HETATM    3  N   UNL     1       6.622  25.851  52.127  1.00  0.00    -0.339 N 
HETATM    4  O   UNL     1       4.774  25.748  53.469  1.00  0.00    -0.247 OA
HETATM    5  H   UNL     1       3.508  26.079  51.521  1.00  0.00     0.164 HD
HETATM    6  H   UNL     1       6.962  26.325  51.306  1.00  0.00     0.164 HD
ENDROOT
BRANCH   3   7
HETATM    7  C   UNL     1       7.583  25.582  53.181  1.00  0.00     0.163 C 
BRANCH   7   8
HETATM    8  C   UNL     1       7.693  24.113  53.549  1.00  0.00    -0.029 A 
HETATM    9  C   UNL     1       7.517  23.689  54.885  1.00  0.00    -0.018 A 
HETATM   10  C   UNL     1       7.572  22.322  55.207  1.00  0.00     0.013 A 
HETATM   11  C   UNL     1       7.802  21.368  54.218  1.00  0.00     0.001 A 
HETATM   12  C   UNL     1       7.969  21.771  52.899  1.00  0.00     0.001 A 
HETATM   13  C   UNL     1       7.911  23.127  52.568  1.00  0.00     0.010 A 
BRANCH   9  14
HETATM   14  C   UNL     1       7.238  24.623  55.966  1.00  0.00    -0.018 A 
HETATM   15  C   UNL     1       5.952  25.042  56.245  1.00  0.00     0.061 A 
HETATM   16  S   UNL     1       5.904  26.163  57.538  1.00  0.00    -0.113 SA
HETATM   17  C   UNL     1       7.605  26.121  57.712  1.00  0.00     0.050 A 
HETATM   18  C   UNL     1       8.197  25.264  56.811  1.00  0.00     0.020 A 
ENDBRANCH   9  14
ENDBRANCH   7   8
ENDBRANCH   3   7
BRANCH   1  19
HETATM   19  C   UNL     1       4.839  26.042  49.878  1.00  0.00     0.162 C 
BRANCH  19  20
HETATM   20  C   UNL     1       4.904  27.409  49.242  1.00  0.00    -0.040 A 
HETATM   21  C   UNL     1       4.311  27.619  47.988  1.00  0.00     0.011 A 
HETATM   22  C   UNL     1       4.284  28.893  47.407  1.00  0.00     0.037 A 
HETATM   23  C   UNL     1       4.839  29.982  48.078  1.00  0.00     0.068 A 
HETATM   24  C   UNL     1       5.433  29.780  49.324  1.00  0.00     0.037 A 
HETATM   25  C   UNL     1       5.459  28.510  49.907  1.00  0.00     0.011 A 
BRANCH  23  26
HETATM   26  O   UNL     1       4.867  31.275  47.633  1.00  0.00    -0.356 OA
HETATM   27  C   UNL     1       3.891  32.159  48.167  1.00  0.00     0.210 C 
ENDBRANCH  23  26
ENDBRANCH  19  20
ENDBRANCH   1  19
TORSDOF 6
ENDMDL
MODEL 9
REMARK VINA RESULT:      -7.5      2.524      4.620
REMARK  6 active torsions:
REMARK  status: ('A' for Active; 'I' for Inactive)
REMARK    1  A    between atoms: O_2  and  C_3 
REMARK    2  A    between atoms: C_6  and  C_7 
REMARK    3  A    between atoms: C_7  and  N_8 
REMARK       I    between atoms: N_8  and  C_9 
REMARK       I    between atoms: C_9  and  N_10 
REMARK    4  A    between atoms: N_10  and  C_11 
REMARK    5  A    between atoms: C_11  and  C_12 
REMARK    6  A    between atoms: C_13  and  C_14 
ROOT
HETATM    1  N   UNL     1       7.794  29.167  58.867  1.00  0.00    -0.339 N 
HETATM    2  C   UNL     1       7.746  28.296  57.831  1.00  0.00     0.316 C 
HETATM    3  N   UNL     1       7.683  28.843  56.590  1.00  0.00    -0.339 N 
HETATM    4  O   UNL     1       7.725  27.091  58.058  1.00  0.00    -0.247 OA
HETATM    5  H   UNL     1       7.826  28.699  59.764  1.00  0.00     0.164 HD
HETATM    6  H   UNL     1       8.062  29.769  56.472  1.00  0.00     0.164 HD
ENDROOT
BRANCH   3   7
HETATM    7  C   UNL     1       7.540  28.030  55.396  1.00  0.00     0.163 C 
BRANCH   7   8
HETATM    8  C   UNL     1       6.199  28.190  54.703  1.00  0.00    -0.029 A 
HETATM    9  C   UNL     1       5.701  27.179  53.851  1.00  0.00    -0.018 A 
HETATM   10  C   UNL     1       4.436  27.315  53.254  1.00  0.00     0.013 A 
HETATM   11  C   UNL     1       3.657  28.446  53.489  1.00  0.00     0.001 A 
HETATM   12  C   UNL     1       4.131  29.444  54.331  1.00  0.00     0.001 A 
HETATM   13  C   UNL     1       5.385  29.316  54.934  1.00  0.00     0.010 A 
BRANCH   9  14
HETATM   14  C   UNL     1       6.441  25.954  53.585  1.00  0.00    -0.018 A 
HETATM   15  C   UNL     1       6.274  24.825  54.362  1.00  0.00     0.061 A 
HETATM   16  S   UNL     1       7.285  23.539  53.860  1.00  0.00    -0.113 SA
HETATM   17  C   UNL     1       7.978  24.492  52.620  1.00  0.00     0.050 A 
HETATM   18  C   UNL     1       7.443  25.761  52.583  1.00  0.00     0.020 A 
ENDBRANCH   9  14
ENDBRANCH   7   8
ENDBRANCH   3   7
BRANCH   1  19
HETATM   19  C   UNL     1       7.609  30.601  58.865  1.00  0.00     0.162 C 
BRANCH  19  20
HETATM   20  C   UNL     1       7.697  31.228  60.235  1.00  0.00    -0.040 A 
HETATM   21  C   UNL     1       8.687  30.798  61.131  1.00  0.00     0.011 A 
HETATM   22  C   UNL     1       8.847  31.413  62.379  1.00  0.00     0.037 A 
HETATM   23  C   UNL     1       8.025  32.479  62.747  1.00  0.00     0.068 A 
HETATM   24  C   UNL     1       7.037  32.910  61.861  1.00  0.00     0.037 A 
HETATM   25  C   UNL     1       6.877  32.298  60.614  1.00  0.00     0.011 A 
BRANCH  23  26
HETATM   26  O   UNL     1       8.084  33.174  63.922  1.00  0.00    -0.356 OA
HETATM   27  C   UNL     1       6.869  33.317  64.646  1.00  0.00     0.210 C 
ENDBRANCH  23  26
ENDBRANCH  19  20
ENDBRANCH   1  19
TORSDOF 6
ENDMDL
MODEL 10
REMARK VINA RESULT:      -7.4      4.935      7.938
REMARK  6 active torsions:
REMARK  status: ('A' for Active; 'I' for Inactive)
REMARK    1  A    between atoms: O_2  and  C_3 
REMARK    2  A    between atoms: C_6  and  C_7 
REMARK    3  A    between atoms: C_7  and  N_8 
REMARK       I    between atoms: N_8  and  C_9 
REMARK       I    between atoms: C_9  and  N_10 
REMARK    4  A    between atoms: N_10  and  C_11 
REMARK    5  A    between atoms: C_11  and  C_12 
REMARK    6  A    between atoms: C_13  and  C_14 
ROOT
HETATM    1  N   UNL     1       5.345  26.264  53.731  1.00  0.00    -0.339 N 
HETATM    2  C   UNL     1       4.566  27.331  53.432  1.00  0.00     0.316 C 
HETATM    3  N   UNL     1       4.158  27.434  52.141  1.00  0.00    -0.339 N 
HETATM    4  O   UNL     1       4.304  28.149  54.307  1.00  0.00    -0.247 OA
HETATM    5  H   UNL     1       5.626  26.250  54.702  1.00  0.00     0.164 HD
HETATM    6  H   UNL     1       4.100  26.583  51.604  1.00  0.00     0.164 HD
ENDROOT
BRANCH   3   7
HETATM    7  C   UNL     1       3.393  28.571  51.663  1.00  0.00     0.163 C 
BRANCH   7   8
HETATM    8  C   UNL     1       4.157  29.462  50.701  1.00  0.00    -0.029 A 
HETATM    9  C   UNL     1       4.151  29.198  49.313  1.00  0.00    -0.018 A 
HETATM   10  C   UNL     1       4.821  30.057  48.425  1.00  0.00     0.013 A 
HETATM   11  C   UNL     1       5.500  31.178  48.898  1.00  0.00     0.001 A 
HETATM   12  C   UNL     1       5.506  31.455  50.260  1.00  0.00     0.001 A 
HETATM   13  C   UNL     1       4.839  30.609  51.150  1.00  0.00     0.010 A 
BRANCH   9  14
HETATM   14  C   UNL     1       3.436  28.066  48.741  1.00  0.00    -0.018 A 
HETATM   15  C   UNL     1       4.078  26.882  48.439  1.00  0.00     0.061 A 
HETATM   16  S   UNL     1       3.019  25.729  47.748  1.00  0.00    -0.113 SA
HETATM   17  C   UNL     1       1.700  26.816  47.817  1.00  0.00     0.050 A 
HETATM   18  C   UNL     1       2.057  28.029  48.363  1.00  0.00     0.020 A 
ENDBRANCH   9  14
ENDBRANCH   7   8
ENDBRANCH   3   7
BRANCH   1  19
HETATM   19  C   UNL     1       5.960  25.304  52.841  1.00  0.00     0.162 C 
BRANCH  19  20
HETATM   20  C   UNL     1       6.761  24.241  53.553  1.00  0.00    -0.040 A 
HETATM   21  C   UNL     1       7.554  23.356  52.809  1.00  0.00     0.011 A 
HETATM   22  C   UNL     1       8.370  22.411  53.443  1.00  0.00     0.037 A 
HETATM   23  C   UNL     1       8.415  22.344  54.836  1.00  0.00     0.068 A 
HETATM   24  C   UNL     1       7.626  23.220  55.582  1.00  0.00     0.037 A 
HETATM   25  C   UNL     1       6.813  24.166  54.951  1.00  0.00     0.011 A 
BRANCH  23  26
HETATM   26  O   UNL     1       9.175  21.484  55.578  1.00  0.00    -0.356 OA
HETATM   27  C   UNL     1       8.515  20.350  56.124  1.00  0.00     0.210 C 
ENDBRANCH  23  26
ENDBRANCH  19  20
ENDBRANCH   1  19
TORSDOF 6
ENDMDL
