MODEL 1
REMARK VINA RESULT:     -10.8      0.000      0.000
REMARK  7 active torsions:
REMARK  status: ('A' for Active; 'I' for Inactive)
REMARK    1  A    between atoms: C_2  and  O_3 
REMARK    2  A    between atoms: O_3  and  C_4 
REMARK    3  A    between atoms: C_4  and  C_5 
REMARK    4  A    between atoms: C_6  and  C_7 
REMARK    5  A    between atoms: C_18  and  S_19 
REMARK    6  A    between atoms: S_19  and  C_20 
REMARK    7  A    between atoms: C_20  and  C_21 
ROOT
HETATM    1  C   UNL     1       9.126  30.200  58.408  1.00  0.00     0.070 A 
HETATM    2  C   UNL     1       7.682  29.713  58.491  1.00  0.00     0.203 A 
HETATM    3  N   UNL     1       7.420  28.641  57.522  1.00  0.00    -0.082 N 
HETATM    4  C   UNL     1       8.354  28.137  56.661  1.00  0.00     0.726 A 
HETATM    5  N   UNL     1       9.603  28.634  56.680  1.00  0.00    -0.192 N 
HETATM    6  N   UNL     1       6.250  27.983  57.413  1.00  0.00    -0.128 NA
HETATM    7  C   UNL     1       6.522  27.149  56.402  1.00  0.00     0.226 A 
HETATM    8  N   UNL     1       7.811  27.196  55.930  1.00  0.00    -0.035 NA
HETATM    9  C   UNL     1      10.010  29.654  57.534  1.00  0.00     0.037 A 
HETATM   10  C   UNL     1      11.462  30.053  57.424  1.00  0.00     0.070 C 
HETATM   11  H   UNL     1      10.291  28.258  56.033  1.00  0.00     0.184 HD
ENDROOT
BRANCH   7  12
HETATM   12  S   UNL     1       5.288  26.113  55.749  1.00  0.00    -0.083 SA
BRANCH  12  13
HETATM   13  C   UNL     1       5.960  25.805  54.094  1.00  0.00     0.121 C 
BRANCH  13  14
HETATM   14  C   UNL     1       6.680  24.477  54.025  1.00  0.00    -0.048 A 
HETATM   15  C   UNL     1       6.951  23.747  55.194  1.00  0.00     0.020 A 
HETATM   16  C   UNL     1       7.595  22.500  55.142  1.00  0.00    -0.025 A 
HETATM   17  C   UNL     1       7.989  21.976  53.891  1.00  0.00    -0.026 A 
HETATM   18  C   UNL     1       7.850  21.758  56.307  1.00  0.00     0.012 A 
HETATM   19  C   UNL     1       7.724  22.711  52.726  1.00  0.00     0.013 A 
HETATM   20  C   UNL     1       8.630  20.727  53.839  1.00  0.00     0.012 A 
HETATM   21  C   UNL     1       7.073  23.945  52.791  1.00  0.00     0.009 A 
HETATM   22  C   UNL     1       8.875  20.003  55.007  1.00  0.00     0.001 A 
HETATM   23  C   UNL     1       8.485  20.517  56.240  1.00  0.00     0.001 A 
ENDBRANCH  13  14
ENDBRANCH  12  13
ENDBRANCH   7  12
BRANCH   2  24
HETATM   24  C   UNL     1       6.642  30.822  58.325  1.00  0.00    -0.028 A 
HETATM   25  C   UNL     1       6.203  31.596  59.414  1.00  0.00     0.012 A 
HETATM   26  C   UNL     1       5.249  32.599  59.227  1.00  0.00     0.043 A 
HETATM   27  C   UNL     1       4.740  32.838  57.956  1.00  0.00     0.116 A 
HETATM   28  F   UNL     1       3.825  33.800  57.781  1.00  0.00    -0.206 F 
HETATM   29  C   UNL     1       5.169  32.096  56.864  1.00  0.00     0.043 A 
HETATM   30  C   UNL     1       6.119  31.091  57.046  1.00  0.00     0.012 A 
ENDBRANCH   2  24
BRANCH   1  31
HETATM   31  C   UNL     1       9.502  31.336  59.278  1.00  0.00     0.293 C 
HETATM   32  O   UNL     1       9.724  32.466  58.873  1.00  0.00    -0.259 OA
BRANCH  31  33
HETATM   33  O   UNL     1       9.526  30.936  60.573  1.00  0.00    -0.318 OA
BRANCH  33  34
HETATM   34  C   UNL     1       9.640  31.992  61.542  1.00  0.00     0.174 C 
HETATM   35  C   UNL     1       8.410  32.037  62.431  1.00  0.00     0.034 C 
ENDBRANCH  33  34
ENDBRANCH  31  33
ENDBRANCH   1  31
TORSDOF 7
ENDMDL
MODEL 2
REMARK VINA RESULT:     -10.7      3.707      9.798
REMARK  7 active torsions:
REMARK  status: ('A' for Active; 'I' for Inactive)
REMARK    1  A    between atoms: C_2  and  O_3 
REMARK    2  A    between atoms: O_3  and  C_4 
REMARK    3  A    between atoms: C_4  and  C_5 
REMARK    4  A    between atoms: C_6  and  C_7 
REMARK    5  A    between atoms: C_18  and  S_19 
REMARK    6  A    between atoms: S_19  and  C_20 
REMARK    7  A    between atoms: C_20  and  C_21 
ROOT
HETATM    1  C   UNL     1       8.466  23.607  55.744  1.00  0.00     0.070 A 
HETATM    2  C   UNL     1       8.296  24.990  55.123  1.00  0.00     0.203 A 
HETATM    3  N   UNL     1       7.974  26.000  56.140  1.00  0.00    -0.082 N 
HETATM    4  C   UNL     1       7.852  25.735  57.475  1.00  0.00     0.726 A 
HETATM    5  N   UNL     1       8.034  24.478  57.916  1.00  0.00    -0.192 N 
HETATM    6  N   UNL     1       7.827  27.314  55.887  1.00  0.00    -0.128 NA
HETATM    7  C   UNL     1       7.531  27.774  57.109  1.00  0.00     0.226 A 
HETATM    8  N   UNL     1       7.561  26.840  58.114  1.00  0.00    -0.035 NA
HETATM    9  C   UNL     1       8.338  23.408  57.081  1.00  0.00     0.037 A 
HETATM   10  C   UNL     1       8.534  22.079  57.771  1.00  0.00     0.070 C 
HETATM   11  H   UNL     1       7.936  24.287  58.910  1.00  0.00     0.184 HD
ENDROOT
BRANCH   7  12
HETATM   12  S   UNL     1       7.120  29.447  57.351  1.00  0.00    -0.083 SA
BRANCH  12  13
HETATM   13  C   UNL     1       8.317  29.895  58.638  1.00  0.00     0.121 C 
BRANCH  13  14
HETATM   14  C   UNL     1       7.738  30.898  59.610  1.00  0.00    -0.048 A 
HETATM   15  C   UNL     1       8.252  31.012  60.912  1.00  0.00     0.020 A 
HETATM   16  C   UNL     1       7.743  31.958  61.817  1.00  0.00    -0.025 A 
HETATM   17  C   UNL     1       6.685  32.802  61.414  1.00  0.00    -0.026 A 
HETATM   18  C   UNL     1       8.269  32.088  63.114  1.00  0.00     0.012 A 
HETATM   19  C   UNL     1       6.169  32.681  60.115  1.00  0.00     0.013 A 
HETATM   20  C   UNL     1       6.179  33.751  62.318  1.00  0.00     0.012 A 
HETATM   21  C   UNL     1       6.692  31.743  59.221  1.00  0.00     0.009 A 
HETATM   22  C   UNL     1       6.712  33.866  63.602  1.00  0.00     0.001 A 
HETATM   23  C   UNL     1       7.757  33.037  64.000  1.00  0.00     0.001 A 
ENDBRANCH  13  14
ENDBRANCH  12  13
ENDBRANCH   7  12
BRANCH   2  24
HETATM   24  C   UNL     1       7.259  25.044  54.000  1.00  0.00    -0.028 A 
HETATM   25  C   UNL     1       5.889  24.845  54.245  1.00  0.00     0.012 A 
HETATM   26  C   UNL     1       4.969  24.897  53.195  1.00  0.00     0.043 A 
HETATM   27  C   UNL     1       5.411  25.156  51.903  1.00  0.00     0.116 A 
HETATM   28  F   UNL     1       4.527  25.204  50.899  1.00  0.00    -0.206 F 
HETATM   29  C   UNL     1       6.758  25.369  51.639  1.00  0.00     0.043 A 
HETATM   30  C   UNL     1       7.680  25.315  52.684  1.00  0.00     0.012 A 
ENDBRANCH   2  24
BRANCH   1  31
HETATM   31  C   UNL     1       8.714  22.481  54.816  1.00  0.00     0.293 C 
HETATM   32  O   UNL     1       9.790  22.254  54.286  1.00  0.00    -0.259 OA
BRANCH  31  33
HETATM   33  O   UNL     1       7.587  21.741  54.677  1.00  0.00    -0.318 OA
BRANCH  33  34
HETATM   34  C   UNL     1       7.776  20.430  54.119  1.00  0.00     0.174 C 
HETATM   35  C   UNL     1       7.975  20.512  52.616  1.00  0.00     0.034 C 
ENDBRANCH  33  34
ENDBRANCH  31  33
ENDBRANCH   1  31
TORSDOF 7
ENDMDL
MODEL 3
REMARK VINA RESULT:     -10.2      3.561      9.478
REMARK  7 active torsions:
REMARK  status: ('A' for Active; 'I' for Inactive)
REMARK    1  A    between atoms: C_2  and  O_3 
REMARK    2  A    between atoms: O_3  and  C_4 
REMARK    3  A    between atoms: C_4  and  C_5 
REMARK    4  A    between atoms: C_6  and  C_7 
REMARK    5  A    between atoms: C_18  and  S_19 
REMARK    6  A    between atoms: S_19  and  C_20 
REMARK    7  A    between atoms: C_20  and  C_21 
ROOT
HETATM    1  C   UNL     1       7.293  25.610  55.096  1.00  0.00     0.070 A 
HETATM    2  C   UNL     1       7.455  27.108  54.850  1.00  0.00     0.203 A 
HETATM    3  N   UNL     1       7.801  27.821  56.087  1.00  0.00    -0.082 N 
HETATM    4  C   UNL     1       7.967  27.217  57.302  1.00  0.00     0.726 A 
HETATM    5  N   UNL     1       7.811  25.885  57.403  1.00  0.00    -0.192 N 
HETATM    6  N   UNL     1       8.061  29.140  56.157  1.00  0.00    -0.128 NA
HETATM    7  C   UNL     1       8.294  29.282  57.467  1.00  0.00     0.226 A 
HETATM    8  N   UNL     1       8.270  28.120  58.200  1.00  0.00    -0.035 NA
HETATM    9  C   UNL     1       7.477  25.069  56.327  1.00  0.00     0.037 A 
HETATM   10  C   UNL     1       7.377  23.594  56.638  1.00  0.00     0.070 C 
HETATM   11  H   UNL     1       7.930  25.444  58.310  1.00  0.00     0.184 HD
ENDROOT
BRANCH   7  12
HETATM   12  S   UNL     1       8.579  30.855  58.153  1.00  0.00    -0.083 SA
BRANCH  12  13
HETATM   13  C   UNL     1       8.610  30.442  59.918  1.00  0.00     0.121 C 
BRANCH  13  14
HETATM   14  C   UNL     1       7.845  31.455  60.739  1.00  0.00    -0.048 A 
HETATM   15  C   UNL     1       8.210  31.720  62.070  1.00  0.00     0.020 A 
HETATM   16  C   UNL     1       7.526  32.678  62.836  1.00  0.00    -0.025 A 
HETATM   17  C   UNL     1       6.442  33.379  62.262  1.00  0.00    -0.026 A 
HETATM   18  C   UNL     1       7.900  32.960  64.160  1.00  0.00     0.012 A 
HETATM   19  C   UNL     1       6.076  33.106  60.935  1.00  0.00     0.013 A 
HETATM   20  C   UNL     1       5.760  34.340  63.027  1.00  0.00     0.012 A 
HETATM   21  C   UNL     1       6.772  32.159  60.181  1.00  0.00     0.009 A 
HETATM   22  C   UNL     1       6.146  34.608  64.342  1.00  0.00     0.001 A 
HETATM   23  C   UNL     1       7.215  33.920  64.908  1.00  0.00     0.001 A 
ENDBRANCH  13  14
ENDBRANCH  12  13
ENDBRANCH   7  12
BRANCH   2  24
HETATM   24  C   UNL     1       6.236  27.766  54.202  1.00  0.00    -0.028 A 
HETATM   25  C   UNL     1       5.026  27.935  54.898  1.00  0.00     0.012 A 
HETATM   26  C   UNL     1       3.932  28.537  54.274  1.00  0.00     0.043 A 
HETATM   27  C   UNL     1       4.043  28.979  52.961  1.00  0.00     0.116 A 
HETATM   28  F   UNL     1       2.991  29.555  52.366  1.00  0.00    -0.206 F 
HETATM   29  C   UNL     1       5.232  28.835  52.258  1.00  0.00     0.043 A 
HETATM   30  C   UNL     1       6.327  28.232  52.876  1.00  0.00     0.012 A 
ENDBRANCH   2  24
BRANCH   1  31
HETATM   31  C   UNL     1       6.865  24.784  53.945  1.00  0.00     0.293 C 
HETATM   32  O   UNL     1       5.700  24.573  53.649  1.00  0.00    -0.259 OA
BRANCH  31  33
HETATM   33  O   UNL     1       7.951  24.338  53.269  1.00  0.00    -0.318 OA
BRANCH  33  34
HETATM   34  C   UNL     1       7.893  22.965  52.847  1.00  0.00     0.174 C 
HETATM   35  C   UNL     1       8.888  22.124  53.626  1.00  0.00     0.034 C 
ENDBRANCH  33  34
ENDBRANCH  31  33
ENDBRANCH   1  31
TORSDOF 7
ENDMDL
MODEL 4
REMARK VINA RESULT:     -10.1      6.449      8.833
REMARK  7 active torsions:
REMARK  status: ('A' for Active; 'I' for Inactive)
REMARK    1  A    between atoms: C_2  and  O_3 
REMARK    2  A    between atoms: O_3  and  C_4 
REMARK    3  A    between atoms: C_4  and  C_5 
REMARK    4  A    between atoms: C_6  and  C_7 
REMARK    5  A    between atoms: C_18  and  S_19 
REMARK    6  A    between atoms: S_19  and  C_20 
REMARK    7  A    between atoms: C_20  and  C_21 
ROOT
HETATM    1  C   UNL     1       4.213  30.430  49.312  1.00  0.00     0.070 A 
HETATM    2  C   UNL     1       3.591  29.199  49.966  1.00  0.00     0.203 A 
HETATM    3  N   UNL     1       4.408  28.715  51.086  1.00  0.00    -0.082 N 
HETATM    4  C   UNL     1       5.574  29.298  51.496  1.00  0.00     0.726 A 
HETATM    5  N   UNL     1       6.026  30.389  50.853  1.00  0.00    -0.192 N 
HETATM    6  N   UNL     1       4.074  27.681  51.881  1.00  0.00    -0.128 NA
HETATM    7  C   UNL     1       5.130  27.641  52.702  1.00  0.00     0.226 A 
HETATM    8  N   UNL     1       6.061  28.633  52.513  1.00  0.00    -0.035 NA
HETATM    9  C   UNL     1       5.372  30.968  49.770  1.00  0.00     0.037 A 
HETATM   10  C   UNL     1       6.024  32.206  49.203  1.00  0.00     0.070 C 
HETATM   11  H   UNL     1       6.897  30.815  51.160  1.00  0.00     0.184 HD
ENDROOT
BRANCH   7  12
HETATM   12  S   UNL     1       5.281  26.385  53.895  1.00  0.00    -0.083 SA
BRANCH  12  13
HETATM   13  C   UNL     1       7.077  26.141  53.890  1.00  0.00     0.121 C 
BRANCH  13  14
HETATM   14  C   UNL     1       7.440  24.676  53.959  1.00  0.00    -0.048 A 
HETATM   15  C   UNL     1       7.715  24.063  55.193  1.00  0.00     0.020 A 
HETATM   16  C   UNL     1       8.026  22.697  55.276  1.00  0.00    -0.025 A 
HETATM   17  C   UNL     1       8.078  21.925  54.094  1.00  0.00    -0.026 A 
HETATM   18  C   UNL     1       8.282  22.077  56.511  1.00  0.00     0.012 A 
HETATM   19  C   UNL     1       7.811  22.542  52.862  1.00  0.00     0.013 A 
HETATM   20  C   UNL     1       8.386  20.557  54.177  1.00  0.00     0.012 A 
HETATM   21  C   UNL     1       7.491  23.900  52.795  1.00  0.00     0.009 A 
HETATM   22  C   UNL     1       8.637  19.958  55.412  1.00  0.00     0.001 A 
HETATM   23  C   UNL     1       8.584  20.716  56.578  1.00  0.00     0.001 A 
ENDBRANCH  13  14
ENDBRANCH  12  13
ENDBRANCH   7  12
BRANCH   2  24
HETATM   24  C   UNL     1       3.318  28.050  48.994  1.00  0.00    -0.028 A 
HETATM   25  C   UNL     1       2.015  27.725  48.577  1.00  0.00     0.012 A 
HETATM   26  C   UNL     1       1.802  26.667  47.691  1.00  0.00     0.043 A 
HETATM   27  C   UNL     1       2.885  25.939  47.212  1.00  0.00     0.116 A 
HETATM   28  F   UNL     1       2.676  24.925  46.363  1.00  0.00    -0.206 F 
HETATM   29  C   UNL     1       4.181  26.251  47.599  1.00  0.00     0.043 A 
HETATM   30  C   UNL     1       4.399  27.305  48.486  1.00  0.00     0.012 A 
ENDBRANCH   2  24
BRANCH   1  31
HETATM   31  C   UNL     1       3.528  30.972  48.117  1.00  0.00     0.293 C 
HETATM   32  O   UNL     1       3.843  30.707  46.968  1.00  0.00    -0.259 OA
BRANCH  31  33
HETATM   33  O   UNL     1       2.499  31.767  48.497  1.00  0.00    -0.318 OA
BRANCH  33  34
HETATM   34  C   UNL     1       1.207  31.381  48.000  1.00  0.00     0.174 C 
HETATM   35  C   UNL     1       0.247  31.121  49.148  1.00  0.00     0.034 C 
ENDBRANCH  33  34
ENDBRANCH  31  33
ENDBRANCH   1  31
TORSDOF 7
ENDMDL
MODEL 5
REMARK VINA RESULT:     -10.0      5.737      8.114
REMARK  7 active torsions:
REMARK  status: ('A' for Active; 'I' for Inactive)
REMARK    1  A    between atoms: C_2  and  O_3 
REMARK    2  A    between atoms: O_3  and  C_4 
REMARK    3  A    between atoms: C_4  and  C_5 
REMARK    4  A    between atoms: C_6  and  C_7 
REMARK    5  A    between atoms: C_18  and  S_19 
REMARK    6  A    between atoms: S_19  and  C_20 
REMARK    7  A    between atoms: C_20  and  C_21 
ROOT
HETATM    1  C   UNL     1       4.862  27.580  48.973  1.00  0.00     0.070 A 
HETATM    2  C   UNL     1       5.488  28.300  50.165  1.00  0.00     0.203 A 
HETATM    3  N   UNL     1       5.367  27.507  51.395  1.00  0.00    -0.082 N 
HETATM    4  C   UNL     1       4.777  26.276  51.462  1.00  0.00     0.726 A 
HETATM    5  N   UNL     1       4.267  25.728  50.344  1.00  0.00    -0.192 N 
HETATM    6  N   UNL     1       5.880  27.867  52.587  1.00  0.00    -0.128 NA
HETATM    7  C   UNL     1       5.487  26.843  53.352  1.00  0.00     0.226 A 
HETATM    8  N   UNL     1       4.829  25.833  52.693  1.00  0.00    -0.035 NA
HETATM    9  C   UNL     1       4.295  26.354  49.102  1.00  0.00     0.037 A 
HETATM   10  C   UNL     1       3.697  25.563  47.963  1.00  0.00     0.070 C 
HETATM   11  H   UNL     1       3.825  24.815  50.403  1.00  0.00     0.184 HD
ENDROOT
BRANCH   7  12
HETATM   12  S   UNL     1       5.791  26.845  55.064  1.00  0.00    -0.083 SA
BRANCH  12  13
HETATM   13  C   UNL     1       7.560  26.449  55.084  1.00  0.00     0.121 C 
BRANCH  13  14
HETATM   14  C   UNL     1       7.796  24.962  55.215  1.00  0.00    -0.048 A 
HETATM   15  C   UNL     1       7.785  24.132  54.082  1.00  0.00     0.020 A 
HETATM   16  C   UNL     1       8.029  22.753  54.186  1.00  0.00    -0.025 A 
HETATM   17  C   UNL     1       8.278  22.187  55.456  1.00  0.00    -0.026 A 
HETATM   18  C   UNL     1       8.038  21.923  53.052  1.00  0.00     0.012 A 
HETATM   19  C   UNL     1       8.280  23.018  56.587  1.00  0.00     0.013 A 
HETATM   20  C   UNL     1       8.525  20.808  55.559  1.00  0.00     0.012 A 
HETATM   21  C   UNL     1       8.047  24.390  56.468  1.00  0.00     0.009 A 
HETATM   22  C   UNL     1       8.531  19.999  54.422  1.00  0.00     0.001 A 
HETATM   23  C   UNL     1       8.289  20.555  53.170  1.00  0.00     0.001 A 
ENDBRANCH  13  14
ENDBRANCH  12  13
ENDBRANCH   7  12
BRANCH   2  24
HETATM   24  C   UNL     1       4.933  29.705  50.403  1.00  0.00    -0.028 A 
HETATM   25  C   UNL     1       5.699  30.857  50.152  1.00  0.00     0.012 A 
HETATM   26  C   UNL     1       5.162  32.126  50.384  1.00  0.00     0.043 A 
HETATM   27  C   UNL     1       3.861  32.248  50.855  1.00  0.00     0.116 A 
HETATM   28  F   UNL     1       3.349  33.466  51.077  1.00  0.00    -0.206 F 
HETATM   29  C   UNL     1       3.081  31.125  51.097  1.00  0.00     0.043 A 
HETATM   30  C   UNL     1       3.613  29.856  50.870  1.00  0.00     0.012 A 
ENDBRANCH   2  24
BRANCH   1  31
HETATM   31  C   UNL     1       4.845  28.308  47.685  1.00  0.00     0.293 C 
HETATM   32  O   UNL     1       5.767  28.308  46.885  1.00  0.00    -0.259 OA
BRANCH  31  33
HETATM   33  O   UNL     1       3.653  28.934  47.525  1.00  0.00    -0.318 OA
BRANCH  33  34
HETATM   34  C   UNL     1       3.706  30.190  46.827  1.00  0.00     0.174 C 
HETATM   35  C   UNL     1       2.704  31.169  47.412  1.00  0.00     0.034 C 
ENDBRANCH  33  34
ENDBRANCH  31  33
ENDBRANCH   1  31
TORSDOF 7
ENDMDL
MODEL 6
REMARK VINA RESULT:      -9.9      3.394      5.531
REMARK  7 active torsions:
REMARK  status: ('A' for Active; 'I' for Inactive)
REMARK    1  A    between atoms: C_2  and  O_3 
REMARK    2  A    between atoms: O_3  and  C_4 
REMARK    3  A    between atoms: C_4  and  C_5 
REMARK    4  A    between atoms: C_6  and  C_7 
REMARK    5  A    between atoms: C_18  and  S_19 
REMARK    6  A    between atoms: S_19  and  C_20 
REMARK    7  A    between atoms: C_20  and  C_21 
ROOT
HETATM    1  C   UNL     1       4.776  33.620  61.321  1.00  0.00     0.070 A 
HETATM    2  C   UNL     1       5.647  33.000  60.232  1.00  0.00     0.203 A 
HETATM    3  N   UNL     1       4.882  32.060  59.402  1.00  0.00    -0.082 N 
HETATM    4  C   UNL     1       3.555  31.782  59.579  1.00  0.00     0.726 A 
HETATM    5  N   UNL     1       2.880  32.396  60.566  1.00  0.00    -0.192 N 
HETATM    6  N   UNL     1       5.379  31.411  58.332  1.00  0.00    -0.128 NA
HETATM    7  C   UNL     1       4.316  30.689  57.959  1.00  0.00     0.226 A 
HETATM    8  N   UNL     1       3.170  30.908  58.684  1.00  0.00    -0.035 NA
HETATM    9  C   UNL     1       3.460  33.308  61.441  1.00  0.00     0.037 A 
HETATM   10  C   UNL     1       2.527  33.912  62.464  1.00  0.00     0.070 C 
HETATM   11  H   UNL     1       1.895  32.181  60.695  1.00  0.00     0.184 HD
ENDROOT
BRANCH   7  12
HETATM   12  S   UNL     1       4.433  29.547  56.652  1.00  0.00    -0.083 SA
BRANCH  12  13
HETATM   13  C   UNL     1       6.043  28.798  57.016  1.00  0.00     0.121 C 
BRANCH  13  14
HETATM   14  C   UNL     1       6.233  27.497  56.268  1.00  0.00    -0.048 A 
HETATM   15  C   UNL     1       6.884  27.475  55.023  1.00  0.00     0.020 A 
HETATM   16  C   UNL     1       7.091  26.272  54.330  1.00  0.00    -0.025 A 
HETATM   17  C   UNL     1       6.625  25.061  54.890  1.00  0.00    -0.026 A 
HETATM   18  C   UNL     1       7.759  26.243  53.095  1.00  0.00     0.012 A 
HETATM   19  C   UNL     1       5.969  25.088  56.130  1.00  0.00     0.013 A 
HETATM   20  C   UNL     1       6.836  23.857  54.198  1.00  0.00     0.012 A 
HETATM   21  C   UNL     1       5.779  26.291  56.814  1.00  0.00     0.009 A 
HETATM   22  C   UNL     1       7.502  23.847  52.971  1.00  0.00     0.001 A 
HETATM   23  C   UNL     1       7.964  25.038  52.420  1.00  0.00     0.001 A 
ENDBRANCH  13  14
ENDBRANCH  12  13
ENDBRANCH   7  12
BRANCH   2  24
HETATM   24  C   UNL     1       6.906  32.313  60.760  1.00  0.00    -0.028 A 
HETATM   25  C   UNL     1       8.173  32.550  60.198  1.00  0.00     0.012 A 
HETATM   26  C   UNL     1       9.302  31.902  60.704  1.00  0.00     0.043 A 
HETATM   27  C   UNL     1       9.173  31.026  61.774  1.00  0.00     0.116 A 
HETATM   28  F   UNL     1      10.258  30.406  62.256  1.00  0.00    -0.206 F 
HETATM   29  C   UNL     1       7.935  30.786  62.354  1.00  0.00     0.043 A 
HETATM   30  C   UNL     1       6.804  31.428  61.851  1.00  0.00     0.012 A 
ENDBRANCH   2  24
BRANCH   1  31
HETATM   31  C   UNL     1       5.445  34.528  62.279  1.00  0.00     0.293 C 
HETATM   32  O   UNL     1       5.861  35.640  61.993  1.00  0.00    -0.259 OA
BRANCH  31  33
HETATM   33  O   UNL     1       5.493  33.951  63.505  1.00  0.00    -0.318 OA
BRANCH  33  34
HETATM   34  C   UNL     1       6.476  34.493  64.402  1.00  0.00     0.174 C 
HETATM   35  C   UNL     1       7.396  33.398  64.912  1.00  0.00     0.034 C 
ENDBRANCH  33  34
ENDBRANCH  31  33
ENDBRANCH   1  31
TORSDOF 7
ENDMDL
MODEL 7
REMARK VINA RESULT:      -9.8      2.238      3.417
REMARK  7 active torsions:
REMARK  status: ('A' for Active; 'I' for Inactive)
REMARK    1  A    between atoms: C_2  and  O_3 
REMARK    2  A    between atoms: O_3  and  C_4 
REMARK    3  A    between atoms: C_4  and  C_5 
REMARK    4  A    between atoms: C_6  and  C_7 
REMARK    5  A    between atoms: C_18  and  S_19 
REMARK    6  A    between atoms: S_19  and  C_20 
REMARK    7  A    between atoms: C_20  and  C_21 
ROOT
HETATM    1  C   UNL     1       5.753  31.017  57.853  1.00  0.00     0.070 A 
HETATM    2  C   UNL     1       4.832  30.309  56.863  1.00  0.00     0.203 A 
HETATM    3  N   UNL     1       5.555  29.292  56.090  1.00  0.00    -0.082 N 
HETATM    4  C   UNL     1       6.883  29.008  56.245  1.00  0.00     0.726 A 
HETATM    5  N   UNL     1       7.600  29.687  57.158  1.00  0.00    -0.192 N 
HETATM    6  N   UNL     1       4.983  28.473  55.186  1.00  0.00    -0.128 NA
HETATM    7  C   UNL     1       6.046  27.775  54.769  1.00  0.00     0.226 A 
HETATM    8  N   UNL     1       7.226  28.057  55.413  1.00  0.00    -0.035 NA
HETATM    9  C   UNL     1       7.064  30.686  57.965  1.00  0.00     0.037 A 
HETATM   10  C   UNL     1       8.024  31.311  58.949  1.00  0.00     0.070 C 
HETATM   11  H   UNL     1       8.588  29.475  57.264  1.00  0.00     0.184 HD
ENDROOT
BRANCH   7  12
HETATM   12  S   UNL     1       5.898  26.617  53.480  1.00  0.00    -0.083 SA
BRANCH  12  13
HETATM   13  C   UNL     1       7.624  26.088  53.315  1.00  0.00     0.121 C 
BRANCH  13  14
HETATM   14  C   UNL     1       7.788  24.619  53.633  1.00  0.00    -0.048 A 
HETATM   15  C   UNL     1       7.997  24.192  54.955  1.00  0.00     0.020 A 
HETATM   16  C   UNL     1       8.124  22.829  55.269  1.00  0.00    -0.025 A 
HETATM   17  C   UNL     1       8.053  21.870  54.234  1.00  0.00    -0.026 A 
HETATM   18  C   UNL     1       8.313  22.396  56.592  1.00  0.00     0.012 A 
HETATM   19  C   UNL     1       7.852  22.301  52.914  1.00  0.00     0.013 A 
HETATM   20  C   UNL     1       8.176  20.506  54.549  1.00  0.00     0.012 A 
HETATM   21  C   UNL     1       7.716  23.659  52.617  1.00  0.00     0.009 A 
HETATM   22  C   UNL     1       8.364  20.094  55.869  1.00  0.00     0.001 A 
HETATM   23  C   UNL     1       8.431  21.038  56.890  1.00  0.00     0.001 A 
ENDBRANCH  13  14
ENDBRANCH  12  13
ENDBRANCH   7  12
BRANCH   2  24
HETATM   24  C   UNL     1       4.101  31.255  55.909  1.00  0.00    -0.028 A 
HETATM   25  C   UNL     1       4.785  31.997  54.930  1.00  0.00     0.012 A 
HETATM   26  C   UNL     1       4.086  32.855  54.078  1.00  0.00     0.043 A 
HETATM   27  C   UNL     1       2.706  32.967  54.193  1.00  0.00     0.116 A 
HETATM   28  F   UNL     1       2.039  33.792  53.374  1.00  0.00    -0.206 F 
HETATM   29  C   UNL     1       2.007  32.235  55.143  1.00  0.00     0.043 A 
HETATM   30  C   UNL     1       2.701  31.379  55.998  1.00  0.00     0.012 A 
ENDBRANCH   2  24
BRANCH   1  31
HETATM   31  C   UNL     1       5.165  32.124  58.641  1.00  0.00     0.293 C 
HETATM   32  O   UNL     1       4.506  31.968  59.656  1.00  0.00    -0.259 OA
BRANCH  31  33
HETATM   33  O   UNL     1       5.498  33.314  58.083  1.00  0.00    -0.318 OA
BRANCH  33  34
HETATM   34  C   UNL     1       4.426  34.267  57.979  1.00  0.00     0.174 C 
HETATM   35  C   UNL     1       4.699  35.260  56.864  1.00  0.00     0.034 C 
ENDBRANCH  33  34
ENDBRANCH  31  33
ENDBRANCH   1  31
TORSDOF 7
ENDMDL
MODEL 8
REMARK VINA RESULT:      -9.6      2.521      4.085
REMARK  7 active torsions:
REMARK  status: ('A' for Active; 'I' for Inactive)
REMARK    1  A    between atoms: C_2  and  O_3 
REMARK    2  A    between atoms: O_3  and  C_4 
REMARK    3  A    between atoms: C_4  and  C_5 
REMARK    4  A    between atoms: C_6  and  C_7 
REMARK    5  A    between atoms: C_18  and  S_19 
REMARK    6  A    between atoms: S_19  and  C_20 
REMARK    7  A    between atoms: C_20  and  C_21 
ROOT
HETATM    1  C   UNL     1       4.765  32.038  59.096  1.00  0.00     0.070 A 
HETATM    2  C   UNL     1       4.535  31.089  57.923  1.00  0.00     0.203 A 
HETATM    3  N   UNL     1       5.731  30.286  57.639  1.00  0.00    -0.082 N 
HETATM    4  C   UNL     1       6.899  30.371  58.343  1.00  0.00     0.726 A 
HETATM    5  N   UNL     1       6.989  31.236  59.369  1.00  0.00    -0.192 N 
HETATM    6  N   UNL     1       5.797  29.326  56.698  1.00  0.00    -0.128 NA
HETATM    7  C   UNL     1       7.068  28.928  56.831  1.00  0.00     0.226 A 
HETATM    8  N   UNL     1       7.770  29.529  57.847  1.00  0.00    -0.035 NA
HETATM    9  C   UNL     1       5.948  32.072  59.760  1.00  0.00     0.037 A 
HETATM   10  C   UNL     1       6.235  32.951  60.954  1.00  0.00     0.070 C 
HETATM   11  H   UNL     1       7.863  31.298  59.884  1.00  0.00     0.184 HD
ENDROOT
BRANCH   7  12
HETATM   12  S   UNL     1       7.746  27.746  55.750  1.00  0.00    -0.083 SA
BRANCH  12  13
HETATM   13  C   UNL     1       6.699  26.316  56.131  1.00  0.00     0.121 C 
BRANCH  13  14
HETATM   14  C   UNL     1       7.056  25.122  55.275  1.00  0.00    -0.048 A 
HETATM   15  C   UNL     1       7.269  23.861  55.856  1.00  0.00     0.020 A 
HETATM   16  C   UNL     1       7.574  22.738  55.071  1.00  0.00    -0.025 A 
HETATM   17  C   UNL     1       7.682  22.881  53.670  1.00  0.00    -0.026 A 
HETATM   18  C   UNL     1       7.768  21.471  55.648  1.00  0.00     0.012 A 
HETATM   19  C   UNL     1       7.477  24.143  53.093  1.00  0.00     0.013 A 
HETATM   20  C   UNL     1       7.985  21.756  52.884  1.00  0.00     0.012 A 
HETATM   21  C   UNL     1       7.163  25.250  53.885  1.00  0.00     0.009 A 
HETATM   22  C   UNL     1       8.174  20.506  53.474  1.00  0.00     0.001 A 
HETATM   23  C   UNL     1       8.065  20.362  54.854  1.00  0.00     0.001 A 
ENDBRANCH  13  14
ENDBRANCH  12  13
ENDBRANCH   7  12
BRANCH   2  24
HETATM   24  C   UNL     1       4.068  31.785  56.644  1.00  0.00    -0.028 A 
HETATM   25  C   UNL     1       2.813  31.518  56.069  1.00  0.00     0.012 A 
HETATM   26  C   UNL     1       2.420  32.169  54.898  1.00  0.00     0.043 A 
HETATM   27  C   UNL     1       3.270  33.094  54.304  1.00  0.00     0.116 A 
HETATM   28  F   UNL     1       2.890  33.716  53.181  1.00  0.00    -0.206 F 
HETATM   29  C   UNL     1       4.508  33.385  54.861  1.00  0.00     0.043 A 
HETATM   30  C   UNL     1       4.907  32.735  56.029  1.00  0.00     0.012 A 
ENDBRANCH   2  24
BRANCH   1  31
HETATM   31  C   UNL     1       3.662  32.964  59.436  1.00  0.00     0.293 C 
HETATM   32  O   UNL     1       2.637  32.629  60.007  1.00  0.00    -0.259 OA
BRANCH  31  33
HETATM   33  O   UNL     1       3.981  34.223  59.047  1.00  0.00    -0.318 OA
BRANCH  33  34
HETATM   34  C   UNL     1       2.867  35.117  58.880  1.00  0.00     0.174 C 
HETATM   35  C   UNL     1       2.370  35.089  57.445  1.00  0.00     0.034 C 
ENDBRANCH  33  34
ENDBRANCH  31  33
ENDBRANCH   1  31
TORSDOF 7
ENDMDL
MODEL 9
REMARK VINA RESULT:      -9.4      5.618      7.891
REMARK  7 active torsions:
REMARK  status: ('A' for Active; 'I' for Inactive)
REMARK    1  A    between atoms: C_2  and  O_3 
REMARK    2  A    between atoms: O_3  and  C_4 
REMARK    3  A    between atoms: C_4  and  C_5 
REMARK    4  A    between atoms: C_6  and  C_7 
REMARK    5  A    between atoms: C_18  and  S_19 
REMARK    6  A    between atoms: S_19  and  C_20 
REMARK    7  A    between atoms: C_20  and  C_21 
ROOT
HETATM    1  C   UNL     1       2.974  30.905  51.723  1.00  0.00     0.070 A 
HETATM    2  C   UNL     1       3.176  29.392  51.743  1.00  0.00     0.203 A 
HETATM    3  N   UNL     1       3.940  28.968  52.923  1.00  0.00    -0.082 N 
HETATM    4  C   UNL     1       4.403  29.820  53.887  1.00  0.00     0.726 A 
HETATM    5  N   UNL     1       4.157  31.137  53.774  1.00  0.00    -0.192 N 
HETATM    6  N   UNL     1       4.217  27.687  53.230  1.00  0.00    -0.128 NA
HETATM    7  C   UNL     1       4.928  27.844  54.353  1.00  0.00     0.226 A 
HETATM    8  N   UNL     1       5.043  29.137  54.802  1.00  0.00    -0.035 NA
HETATM    9  C   UNL     1       3.454  31.699  52.714  1.00  0.00     0.037 A 
HETATM   10  C   UNL     1       3.257  33.194  52.784  1.00  0.00     0.070 C 
HETATM   11  H   UNL     1       4.510  31.765  54.491  1.00  0.00     0.184 HD
ENDROOT
BRANCH   7  12
HETATM   12  S   UNL     1       5.657  26.475  55.141  1.00  0.00    -0.083 SA
BRANCH  12  13
HETATM   13  C   UNL     1       7.106  26.221  54.081  1.00  0.00     0.121 C 
BRANCH  13  14
HETATM   14  C   UNL     1       7.502  24.763  54.022  1.00  0.00    -0.048 A 
HETATM   15  C   UNL     1       7.724  24.032  55.201  1.00  0.00     0.020 A 
HETATM   16  C   UNL     1       8.066  22.671  55.161  1.00  0.00    -0.025 A 
HETATM   17  C   UNL     1       8.202  22.027  53.911  1.00  0.00    -0.026 A 
HETATM   18  C   UNL     1       8.269  21.932  56.339  1.00  0.00     0.012 A 
HETATM   19  C   UNL     1       7.987  22.761  52.736  1.00  0.00     0.013 A 
HETATM   20  C   UNL     1       8.540  20.664  53.872  1.00  0.00     0.012 A 
HETATM   21  C   UNL     1       7.636  24.113  52.790  1.00  0.00     0.009 A 
HETATM   22  C   UNL     1       8.738  19.945  55.052  1.00  0.00     0.001 A 
HETATM   23  C   UNL     1       8.602  20.577  56.284  1.00  0.00     0.001 A 
ENDBRANCH  13  14
ENDBRANCH  12  13
ENDBRANCH   7  12
BRANCH   2  24
HETATM   24  C   UNL     1       3.832  28.837  50.479  1.00  0.00    -0.028 A 
HETATM   25  C   UNL     1       5.175  29.105  50.161  1.00  0.00     0.012 A 
HETATM   26  C   UNL     1       5.742  28.585  48.995  1.00  0.00     0.043 A 
HETATM   27  C   UNL     1       4.976  27.789  48.152  1.00  0.00     0.116 A 
HETATM   28  F   UNL     1       5.523  27.292  47.035  1.00  0.00    -0.206 F 
HETATM   29  C   UNL     1       3.652  27.499  48.452  1.00  0.00     0.043 A 
HETATM   30  C   UNL     1       3.080  28.019  49.613  1.00  0.00     0.012 A 
ENDBRANCH   2  24
BRANCH   1  31
HETATM   31  C   UNL     1       2.286  31.474  50.542  1.00  0.00     0.293 C 
HETATM   32  O   UNL     1       1.074  31.555  50.429  1.00  0.00    -0.259 OA
BRANCH  31  33
HETATM   33  O   UNL     1       3.201  31.910  49.642  1.00  0.00    -0.318 OA
BRANCH  33  34
HETATM   34  C   UNL     1       2.726  32.027  48.290  1.00  0.00     0.174 C 
HETATM   35  C   UNL     1       3.548  31.154  47.358  1.00  0.00     0.034 C 
ENDBRANCH  33  34
ENDBRANCH  31  33
ENDBRANCH   1  31
TORSDOF 7
ENDMDL
MODEL 10
REMARK VINA RESULT:      -9.4      3.759      5.921
REMARK  7 active torsions:
REMARK  status: ('A' for Active; 'I' for Inactive)
REMARK    1  A    between atoms: C_2  and  O_3 
REMARK    2  A    between atoms: O_3  and  C_4 
REMARK    3  A    between atoms: C_4  and  C_5 
REMARK    4  A    between atoms: C_6  and  C_7 
REMARK    5  A    between atoms: C_18  and  S_19 
REMARK    6  A    between atoms: S_19  and  C_20 
REMARK    7  A    between atoms: C_20  and  C_21 
ROOT
HETATM    1  C   UNL     1       4.961  33.852  62.027  1.00  0.00     0.070 A 
HETATM    2  C   UNL     1       5.732  33.277  60.841  1.00  0.00     0.203 A 
HETATM    3  N   UNL     1       4.869  32.445  59.993  1.00  0.00    -0.082 N 
HETATM    4  C   UNL     1       3.541  32.221  60.230  1.00  0.00     0.726 A 
HETATM    5  N   UNL     1       2.959  32.788  61.301  1.00  0.00    -0.192 N 
HETATM    6  N   UNL     1       5.265  31.859  58.847  1.00  0.00    -0.128 NA
HETATM    7  C   UNL     1       4.144  31.224  58.487  1.00  0.00     0.226 A 
HETATM    8  N   UNL     1       3.057  31.442  59.297  1.00  0.00    -0.035 NA
HETATM    9  C   UNL     1       3.640  33.598  62.206  1.00  0.00     0.037 A 
HETATM   10  C   UNL     1       2.803  34.165  63.328  1.00  0.00     0.070 C 
HETATM   11  H   UNL     1       1.974  32.613  61.475  1.00  0.00     0.184 HD
ENDROOT
BRANCH   7  12
HETATM   12  S   UNL     1       4.122  30.184  57.093  1.00  0.00    -0.083 SA
BRANCH  12  13
HETATM   13  C   UNL     1       5.885  29.789  56.950  1.00  0.00     0.121 C 
BRANCH  13  14
HETATM   14  C   UNL     1       6.103  28.330  56.619  1.00  0.00    -0.048 A 
HETATM   15  C   UNL     1       7.208  27.635  57.138  1.00  0.00     0.020 A 
HETATM   16  C   UNL     1       7.409  26.273  56.860  1.00  0.00    -0.025 A 
HETATM   17  C   UNL     1       6.488  25.592  56.033  1.00  0.00    -0.026 A 
HETATM   18  C   UNL     1       8.502  25.569  57.394  1.00  0.00     0.012 A 
HETATM   19  C   UNL     1       5.390  26.291  55.510  1.00  0.00     0.013 A 
HETATM   20  C   UNL     1       6.687  24.228  55.759  1.00  0.00     0.012 A 
HETATM   21  C   UNL     1       5.197  27.643  55.803  1.00  0.00     0.009 A 
HETATM   22  C   UNL     1       7.778  23.545  56.297  1.00  0.00     0.001 A 
HETATM   23  C   UNL     1       8.684  24.214  57.114  1.00  0.00     0.001 A 
ENDBRANCH  13  14
ENDBRANCH  12  13
ENDBRANCH   7  12
BRANCH   2  24
HETATM   24  C   UNL     1       6.980  32.487  61.236  1.00  0.00    -0.028 A 
HETATM   25  C   UNL     1       6.957  31.528  62.263  1.00  0.00     0.012 A 
HETATM   26  C   UNL     1       8.117  30.827  62.601  1.00  0.00     0.043 A 
HETATM   27  C   UNL     1       9.297  31.073  61.910  1.00  0.00     0.116 A 
HETATM   28  F   UNL     1      10.408  30.400  62.237  1.00  0.00    -0.206 F 
HETATM   29  C   UNL     1       9.341  32.007  60.883  1.00  0.00     0.043 A 
HETATM   30  C   UNL     1       8.186  32.711  60.544  1.00  0.00     0.012 A 
ENDBRANCH   2  24
BRANCH   1  31
HETATM   31  C   UNL     1       5.735  34.646  63.007  1.00  0.00     0.293 C 
HETATM   32  O   UNL     1       6.111  34.223  64.088  1.00  0.00    -0.259 OA
BRANCH  31  33
HETATM   33  O   UNL     1       5.980  35.882  62.508  1.00  0.00    -0.318 OA
BRANCH  33  34
HETATM   34  C   UNL     1       5.335  36.965  63.199  1.00  0.00     0.174 C 
HETATM   35  C   UNL     1       6.169  38.230  63.107  1.00  0.00     0.034 C 
ENDBRANCH  33  34
ENDBRANCH  31  33
ENDBRANCH   1  31
TORSDOF 7
ENDMDL
