MODEL 1
REMARK VINA RESULT:      -9.5      0.000      0.000
REMARK  5 active torsions:
REMARK  status: ('A' for Active; 'I' for Inactive)
REMARK    1  A    between atoms: C_6  and  O_7 
REMARK    2  A    between atoms: O_7  and  C_8 
REMARK    3  A    between atoms: C_8  and  C_9 
REMARK       I    between atoms: C_9  and  N_10 
REMARK    4  A    between atoms: N_10  and  N_11 
REMARK    5  A    between atoms: C_12  and  C_13 
ROOT
HETATM    1  C   UNL     1       7.502  26.982  56.754  1.00  0.00     0.261 C 
HETATM    2  N   UNL     1       6.771  28.139  56.529  1.00  0.00    -0.246 N 
HETATM    3  O   UNL     1       7.960  26.626  57.840  1.00  0.00    -0.269 OA
HETATM    4  H   UNL     1       6.471  28.364  55.585  1.00  0.00     0.192 HD
ENDROOT
BRANCH   2   5
HETATM    5  N   UNL     1       6.515  28.988  57.566  1.00  0.00    -0.184 NA
HETATM    6  C   UNL     1       7.186  30.092  57.585  1.00  0.00     0.152 C 
BRANCH   6   7
HETATM    7  C   UNL     1       6.951  31.039  58.655  1.00  0.00     0.011 A 
HETATM    8  C   UNL     1       7.704  31.207  59.863  1.00  0.00     0.004 A 
HETATM    9  C   UNL     1       7.112  32.248  60.583  1.00  0.00     0.043 A 
HETATM   10  C   UNL     1       8.845  30.582  60.411  1.00  0.00     0.014 A 
HETATM   11  C   UNL     1       7.600  32.692  61.818  1.00  0.00     0.030 A 
HETATM   12  N   UNL     1       6.039  32.692  59.848  1.00  0.00    -0.364 N 
HETATM   13  C   UNL     1       8.731  32.057  62.335  1.00  0.00     0.002 A 
HETATM   14  C   UNL     1       9.347  31.017  61.644  1.00  0.00     0.001 A 
HETATM   15  H   UNL     1       5.424  33.445  60.124  1.00  0.00     0.165 HD
HETATM   16  C   UNL     1       5.936  31.979  58.687  1.00  0.00     0.102 A 
ENDBRANCH   6   7
ENDBRANCH   2   5
BRANCH   1  17
HETATM   17  C   UNL     1       7.607  26.091  55.520  1.00  0.00     0.280 C 
BRANCH  17  18
HETATM   18  O   UNL     1       6.661  25.023  55.568  1.00  0.00    -0.342 OA
BRANCH  18  19
HETATM   19  C   UNL     1       7.107  23.869  54.979  1.00  0.00     0.069 A 
HETATM   20  C   UNL     1       7.420  22.702  55.680  1.00  0.00     0.044 A 
HETATM   21  C   UNL     1       7.858  21.550  55.004  1.00  0.00    -0.053 A 
HETATM   22  C   UNL     1       7.996  21.581  53.602  1.00  0.00    -0.056 A 
HETATM   23  C   UNL     1       8.196  20.318  55.800  1.00  0.00     0.049 C 
HETATM   24  C   UNL     1       8.469  20.380  52.829  1.00  0.00     0.049 C 
HETATM   25  C   UNL     1       7.646  22.750  52.907  1.00  0.00     0.010 A 
HETATM   26  C   UNL     1       7.198  23.881  53.591  1.00  0.00     0.037 A 
ENDBRANCH  18  19
ENDBRANCH  17  18
ENDBRANCH   1  17
TORSDOF 5
ENDMDL
MODEL 2
REMARK VINA RESULT:      -9.5      1.887     10.208
REMARK  5 active torsions:
REMARK  status: ('A' for Active; 'I' for Inactive)
REMARK    1  A    between atoms: C_6  and  O_7 
REMARK    2  A    between atoms: O_7  and  C_8 
REMARK    3  A    between atoms: C_8  and  C_9 
REMARK       I    between atoms: C_9  and  N_10 
REMARK    4  A    between atoms: N_10  and  N_11 
REMARK    5  A    between atoms: C_12  and  C_13 
ROOT
HETATM    1  C   UNL     1       8.223  28.391  57.254  1.00  0.00     0.261 C 
HETATM    2  N   UNL     1       7.197  27.786  56.542  1.00  0.00    -0.246 N 
HETATM    3  O   UNL     1       9.425  28.261  57.022  1.00  0.00    -0.269 OA
HETATM    4  H   UNL     1       6.236  27.925  56.839  1.00  0.00     0.192 HD
ENDROOT
BRANCH   2   5
HETATM    5  N   UNL     1       7.494  26.970  55.491  1.00  0.00    -0.184 NA
HETATM    6  C   UNL     1       7.251  25.710  55.653  1.00  0.00     0.152 C 
BRANCH   6   7
HETATM    7  C   UNL     1       7.536  24.794  54.569  1.00  0.00     0.011 A 
HETATM    8  C   UNL     1       7.665  23.368  54.632  1.00  0.00     0.004 A 
HETATM    9  C   UNL     1       7.927  22.914  53.338  1.00  0.00     0.043 A 
HETATM   10  C   UNL     1       7.571  22.413  55.668  1.00  0.00     0.014 A 
HETATM   11  C   UNL     1       8.102  21.561  53.026  1.00  0.00     0.030 A 
HETATM   12  N   UNL     1       7.963  24.018  52.519  1.00  0.00    -0.364 N 
HETATM   13  C   UNL     1       8.002  20.637  54.070  1.00  0.00     0.002 A 
HETATM   14  C   UNL     1       7.740  21.054  55.372  1.00  0.00     0.001 A 
HETATM   15  H   UNL     1       8.131  23.991  51.523  1.00  0.00     0.165 HD
HETATM   16  C   UNL     1       7.723  25.151  53.245  1.00  0.00     0.102 A 
ENDBRANCH   6   7
ENDBRANCH   2   5
BRANCH   1  17
HETATM   17  C   UNL     1       7.723  29.355  58.325  1.00  0.00     0.280 C 
BRANCH  17  18
HETATM   18  O   UNL     1       8.752  30.253  58.738  1.00  0.00    -0.342 OA
BRANCH  18  19
HETATM   19  C   UNL     1       8.472  30.904  59.911  1.00  0.00     0.069 A 
HETATM   20  C   UNL     1       7.394  31.775  60.085  1.00  0.00     0.044 A 
HETATM   21  C   UNL     1       7.161  32.395  61.326  1.00  0.00    -0.053 A 
HETATM   22  C   UNL     1       8.038  32.143  62.400  1.00  0.00    -0.056 A 
HETATM   23  C   UNL     1       5.995  33.335  61.466  1.00  0.00     0.049 C 
HETATM   24  C   UNL     1       7.841  32.787  63.745  1.00  0.00     0.049 C 
HETATM   25  C   UNL     1       9.098  31.241  62.220  1.00  0.00     0.010 A 
HETATM   26  C   UNL     1       9.308  30.621  60.987  1.00  0.00     0.037 A 
ENDBRANCH  18  19
ENDBRANCH  17  18
ENDBRANCH   1  17
TORSDOF 5
ENDMDL
MODEL 3
REMARK VINA RESULT:      -9.5      2.052     10.149
REMARK  5 active torsions:
REMARK  status: ('A' for Active; 'I' for Inactive)
REMARK    1  A    between atoms: C_6  and  O_7 
REMARK    2  A    between atoms: O_7  and  C_8 
REMARK    3  A    between atoms: C_8  and  C_9 
REMARK       I    between atoms: C_9  and  N_10 
REMARK    4  A    between atoms: N_10  and  N_11 
REMARK    5  A    between atoms: C_12  and  C_13 
ROOT
HETATM    1  C   UNL     1       8.285  29.361  57.803  1.00  0.00     0.261 C 
HETATM    2  N   UNL     1       7.489  28.245  58.021  1.00  0.00    -0.246 N 
HETATM    3  O   UNL     1       9.426  29.343  57.340  1.00  0.00    -0.269 OA
HETATM    4  H   UNL     1       6.574  28.362  58.446  1.00  0.00     0.192 HD
ENDROOT
BRANCH   2   5
HETATM    5  N   UNL     1       7.966  27.005  57.716  1.00  0.00    -0.184 NA
HETATM    6  C   UNL     1       7.394  26.394  56.730  1.00  0.00     0.152 C 
BRANCH   6   7
HETATM    7  C   UNL     1       7.863  25.077  56.351  1.00  0.00     0.011 A 
HETATM    8  C   UNL     1       7.822  24.468  55.055  1.00  0.00     0.004 A 
HETATM    9  C   UNL     1       8.399  23.201  55.171  1.00  0.00     0.043 A 
HETATM   10  C   UNL     1       7.361  24.877  53.785  1.00  0.00     0.014 A 
HETATM   11  C   UNL     1       8.536  22.325  54.088  1.00  0.00     0.030 A 
HETATM   12  N   UNL     1       8.771  23.042  56.485  1.00  0.00    -0.364 N 
HETATM   13  C   UNL     1       8.073  22.757  52.842  1.00  0.00     0.002 A 
HETATM   14  C   UNL     1       7.493  24.013  52.690  1.00  0.00     0.001 A 
HETATM   15  H   UNL     1       9.219  22.218  56.861  1.00  0.00     0.165 HD
HETATM   16  C   UNL     1       8.460  24.164  57.201  1.00  0.00     0.102 A 
ENDBRANCH   6   7
ENDBRANCH   2   5
BRANCH   1  17
HETATM   17  C   UNL     1       7.567  30.675  58.092  1.00  0.00     0.280 C 
BRANCH  17  18
HETATM   18  O   UNL     1       8.467  31.656  58.609  1.00  0.00    -0.342 OA
BRANCH  18  19
HETATM   19  C   UNL     1       8.217  31.995  59.913  1.00  0.00     0.069 A 
HETATM   20  C   UNL     1       7.026  32.572  60.358  1.00  0.00     0.044 A 
HETATM   21  C   UNL     1       6.837  32.878  61.717  1.00  0.00    -0.053 A 
HETATM   22  C   UNL     1       7.870  32.611  62.636  1.00  0.00    -0.056 A 
HETATM   23  C   UNL     1       5.542  33.510  62.152  1.00  0.00     0.049 C 
HETATM   24  C   UNL     1       7.725  32.927  64.100  1.00  0.00     0.049 C 
HETATM   25  C   UNL     1       9.050  32.000  62.181  1.00  0.00     0.010 A 
HETATM   26  C   UNL     1       9.217  31.688  60.830  1.00  0.00     0.037 A 
ENDBRANCH  18  19
ENDBRANCH  17  18
ENDBRANCH   1  17
TORSDOF 5
ENDMDL
MODEL 4
REMARK VINA RESULT:      -9.1      1.720      2.386
REMARK  5 active torsions:
REMARK  status: ('A' for Active; 'I' for Inactive)
REMARK    1  A    between atoms: C_6  and  O_7 
REMARK    2  A    between atoms: O_7  and  C_8 
REMARK    3  A    between atoms: C_8  and  C_9 
REMARK       I    between atoms: C_9  and  N_10 
REMARK    4  A    between atoms: N_10  and  N_11 
REMARK    5  A    between atoms: C_12  and  C_13 
ROOT
HETATM    1  C   UNL     1       7.010  27.624  53.826  1.00  0.00     0.261 C 
HETATM    2  N   UNL     1       5.953  27.970  54.655  1.00  0.00    -0.246 N 
HETATM    3  O   UNL     1       8.083  28.223  53.751  1.00  0.00    -0.269 OA
HETATM    4  H   UNL     1       5.091  27.433  54.614  1.00  0.00     0.192 HD
ENDROOT
BRANCH   2   5
HETATM    5  N   UNL     1       6.062  29.057  55.471  1.00  0.00    -0.184 NA
HETATM    6  C   UNL     1       6.027  28.828  56.743  1.00  0.00     0.152 C 
BRANCH   6   7
HETATM    7  C   UNL     1       6.148  29.941  57.662  1.00  0.00     0.011 A 
HETATM    8  C   UNL     1       7.335  30.433  58.296  1.00  0.00     0.004 A 
HETATM    9  C   UNL     1       6.965  31.527  59.082  1.00  0.00     0.043 A 
HETATM   10  C   UNL     1       8.697  30.062  58.268  1.00  0.00     0.014 A 
HETATM   11  C   UNL     1       7.883  32.264  59.840  1.00  0.00     0.030 A 
HETATM   12  N   UNL     1       5.608  31.692  58.938  1.00  0.00    -0.364 N 
HETATM   13  C   UNL     1       9.224  31.876  59.792  1.00  0.00     0.002 A 
HETATM   14  C   UNL     1       9.628  30.791  59.018  1.00  0.00     0.001 A 
HETATM   15  H   UNL     1       5.064  32.412  59.392  1.00  0.00     0.165 HD
HETATM   16  C   UNL     1       5.108  30.749  58.084  1.00  0.00     0.102 A 
ENDBRANCH   6   7
ENDBRANCH   2   5
BRANCH   1  17
HETATM   17  C   UNL     1       6.772  26.326  53.061  1.00  0.00     0.280 C 
BRANCH  17  18
HETATM   18  O   UNL     1       7.973  25.563  52.943  1.00  0.00    -0.342 OA
BRANCH  18  19
HETATM   19  C   UNL     1       7.910  24.344  53.566  1.00  0.00     0.069 A 
HETATM   20  C   UNL     1       8.067  23.121  52.909  1.00  0.00     0.044 A 
HETATM   21  C   UNL     1       8.006  21.909  53.620  1.00  0.00    -0.053 A 
HETATM   22  C   UNL     1       7.768  21.932  55.008  1.00  0.00    -0.056 A 
HETATM   23  C   UNL     1       8.168  20.613  52.871  1.00  0.00     0.049 C 
HETATM   24  C   UNL     1       7.684  20.665  55.815  1.00  0.00     0.049 C 
HETATM   25  C   UNL     1       7.646  23.169  55.660  1.00  0.00     0.010 A 
HETATM   26  C   UNL     1       7.724  24.365  54.944  1.00  0.00     0.037 A 
ENDBRANCH  18  19
ENDBRANCH  17  18
ENDBRANCH   1  17
TORSDOF 5
ENDMDL
MODEL 5
REMARK VINA RESULT:      -9.0      6.142      9.777
REMARK  5 active torsions:
REMARK  status: ('A' for Active; 'I' for Inactive)
REMARK    1  A    between atoms: C_6  and  O_7 
REMARK    2  A    between atoms: O_7  and  C_8 
REMARK    3  A    between atoms: C_8  and  C_9 
REMARK       I    between atoms: C_9  and  N_10 
REMARK    4  A    between atoms: N_10  and  N_11 
REMARK    5  A    between atoms: C_12  and  C_13 
ROOT
HETATM    1  C   UNL     1       5.610  26.308  52.504  1.00  0.00     0.261 C 
HETATM    2  N   UNL     1       5.549  27.184  51.430  1.00  0.00    -0.246 N 
HETATM    3  O   UNL     1       4.786  25.429  52.756  1.00  0.00    -0.269 OA
HETATM    4  H   UNL     1       6.260  27.902  51.332  1.00  0.00     0.192 HD
ENDROOT
BRANCH   2   5
HETATM    5  N   UNL     1       4.507  27.106  50.553  1.00  0.00    -0.184 NA
HETATM    6  C   UNL     1       4.794  26.730  49.350  1.00  0.00     0.152 C 
BRANCH   6   7
HETATM    7  C   UNL     1       3.728  26.618  48.376  1.00  0.00     0.011 A 
HETATM    8  C   UNL     1       2.695  27.569  48.088  1.00  0.00     0.004 A 
HETATM    9  C   UNL     1       1.908  27.034  47.066  1.00  0.00     0.043 A 
HETATM   10  C   UNL     1       2.360  28.845  48.591  1.00  0.00     0.014 A 
HETATM   11  C   UNL     1       0.805  27.705  46.525  1.00  0.00     0.030 A 
HETATM   12  N   UNL     1       2.434  25.805  46.748  1.00  0.00    -0.364 N 
HETATM   13  C   UNL     1       0.497  28.967  47.040  1.00  0.00     0.002 A 
HETATM   14  C   UNL     1       1.261  29.531  48.057  1.00  0.00     0.001 A 
HETATM   15  H   UNL     1       2.068  25.188  46.036  1.00  0.00     0.165 HD
HETATM   16  C   UNL     1       3.531  25.548  47.522  1.00  0.00     0.102 A 
ENDBRANCH   6   7
ENDBRANCH   2   5
BRANCH   1  17
HETATM   17  C   UNL     1       6.888  26.453  53.324  1.00  0.00     0.280 C 
BRANCH  17  18
HETATM   18  O   UNL     1       7.897  25.547  52.879  1.00  0.00    -0.342 OA
BRANCH  18  19
HETATM   19  C   UNL     1       7.867  24.336  53.520  1.00  0.00     0.069 A 
HETATM   20  C   UNL     1       8.002  23.105  52.874  1.00  0.00     0.044 A 
HETATM   21  C   UNL     1       7.977  21.902  53.602  1.00  0.00    -0.053 A 
HETATM   22  C   UNL     1       7.797  21.943  54.999  1.00  0.00    -0.056 A 
HETATM   23  C   UNL     1       8.114  20.598  52.865  1.00  0.00     0.049 C 
HETATM   24  C   UNL     1       7.753  20.687  55.825  1.00  0.00     0.049 C 
HETATM   25  C   UNL     1       7.696  23.188  55.639  1.00  0.00     0.010 A 
HETATM   26  C   UNL     1       7.738  24.375  54.904  1.00  0.00     0.037 A 
ENDBRANCH  18  19
ENDBRANCH  17  18
ENDBRANCH   1  17
TORSDOF 5
ENDMDL
MODEL 6
REMARK VINA RESULT:      -8.8      5.725      9.280
REMARK  5 active torsions:
REMARK  status: ('A' for Active; 'I' for Inactive)
REMARK    1  A    between atoms: C_6  and  O_7 
REMARK    2  A    between atoms: O_7  and  C_8 
REMARK    3  A    between atoms: C_8  and  C_9 
REMARK       I    between atoms: C_9  and  N_10 
REMARK    4  A    between atoms: N_10  and  N_11 
REMARK    5  A    between atoms: C_12  and  C_13 
ROOT
HETATM    1  C   UNL     1       5.080  27.768  53.223  1.00  0.00     0.261 C 
HETATM    2  N   UNL     1       6.126  26.897  52.956  1.00  0.00    -0.246 N 
HETATM    3  O   UNL     1       4.451  27.824  54.280  1.00  0.00    -0.269 OA
HETATM    4  H   UNL     1       6.556  26.902  52.036  1.00  0.00     0.192 HD
ENDROOT
BRANCH   2   5
HETATM    5  N   UNL     1       6.527  26.009  53.910  1.00  0.00    -0.184 NA
HETATM    6  C   UNL     1       7.208  24.990  53.500  1.00  0.00     0.152 C 
BRANCH   6   7
HETATM    7  C   UNL     1       7.670  24.016  54.467  1.00  0.00     0.011 A 
HETATM    8  C   UNL     1       7.979  22.634  54.247  1.00  0.00     0.004 A 
HETATM    9  C   UNL     1       8.397  22.100  55.468  1.00  0.00     0.043 A 
HETATM   10  C   UNL     1       7.956  21.785  53.120  1.00  0.00     0.014 A 
HETATM   11  C   UNL     1       8.790  20.765  55.620  1.00  0.00     0.030 A 
HETATM   12  N   UNL     1       8.340  23.113  56.396  1.00  0.00    -0.364 N 
HETATM   13  C   UNL     1       8.760  19.948  54.487  1.00  0.00     0.002 A 
HETATM   14  C   UNL     1       8.349  20.447  53.254  1.00  0.00     0.001 A 
HETATM   15  H   UNL     1       8.590  23.016  57.371  1.00  0.00     0.165 HD
HETATM   16  C   UNL     1       7.911  24.269  55.806  1.00  0.00     0.102 A 
ENDBRANCH   6   7
ENDBRANCH   2   5
BRANCH   1  17
HETATM   17  C   UNL     1       4.829  28.766  52.098  1.00  0.00     0.280 C 
BRANCH  17  18
HETATM   18  O   UNL     1       5.260  28.249  50.838  1.00  0.00    -0.342 OA
BRANCH  18  19
HETATM   19  C   UNL     1       4.227  27.923  49.998  1.00  0.00     0.069 A 
HETATM   20  C   UNL     1       4.208  26.787  49.185  1.00  0.00     0.044 A 
HETATM   21  C   UNL     1       3.103  26.510  48.360  1.00  0.00    -0.053 A 
HETATM   22  C   UNL     1       2.011  27.399  48.345  1.00  0.00    -0.056 A 
HETATM   23  C   UNL     1       3.130  25.282  47.491  1.00  0.00     0.049 C 
HETATM   24  C   UNL     1       0.808  27.156  47.475  1.00  0.00     0.049 C 
HETATM   25  C   UNL     1       2.029  28.519  49.192  1.00  0.00     0.010 A 
HETATM   26  C   UNL     1       3.126  28.773  50.017  1.00  0.00     0.037 A 
ENDBRANCH  18  19
ENDBRANCH  17  18
ENDBRANCH   1  17
TORSDOF 5
ENDMDL
MODEL 7
REMARK VINA RESULT:      -8.7      2.356      9.986
REMARK  5 active torsions:
REMARK  status: ('A' for Active; 'I' for Inactive)
REMARK    1  A    between atoms: C_6  and  O_7 
REMARK    2  A    between atoms: O_7  and  C_8 
REMARK    3  A    between atoms: C_8  and  C_9 
REMARK       I    between atoms: C_9  and  N_10 
REMARK    4  A    between atoms: N_10  and  N_11 
REMARK    5  A    between atoms: C_12  and  C_13 
ROOT
HETATM    1  C   UNL     1       9.412  29.920  57.935  1.00  0.00     0.261 C 
HETATM    2  N   UNL     1       8.350  29.055  57.712  1.00  0.00    -0.246 N 
HETATM    3  O   UNL     1      10.526  29.830  57.418  1.00  0.00    -0.269 OA
HETATM    4  H   UNL     1       7.481  29.193  58.219  1.00  0.00     0.192 HD
ENDROOT
BRANCH   2   5
HETATM    5  N   UNL     1       8.505  28.001  56.861  1.00  0.00    -0.184 NA
HETATM    6  C   UNL     1       7.423  27.504  56.357  1.00  0.00     0.152 C 
BRANCH   6   7
HETATM    7  C   UNL     1       7.524  26.389  55.438  1.00  0.00     0.011 A 
HETATM    8  C   UNL     1       7.827  25.021  55.744  1.00  0.00     0.004 A 
HETATM    9  C   UNL     1       7.798  24.309  54.542  1.00  0.00     0.043 A 
HETATM   10  C   UNL     1       8.110  24.314  56.932  1.00  0.00     0.014 A 
HETATM   11  C   UNL     1       8.040  22.933  54.468  1.00  0.00     0.030 A 
HETATM   12  N   UNL     1       7.498  25.206  53.544  1.00  0.00    -0.364 N 
HETATM   13  C   UNL     1       8.316  22.258  55.660  1.00  0.00     0.002 A 
HETATM   14  C   UNL     1       8.351  22.936  56.875  1.00  0.00     0.001 A 
HETATM   15  H   UNL     1       7.407  24.970  52.566  1.00  0.00     0.165 HD
HETATM   16  C   UNL     1       7.324  26.455  54.071  1.00  0.00     0.102 A 
ENDBRANCH   6   7
ENDBRANCH   2   5
BRANCH   1  17
HETATM   17  C   UNL     1       9.044  31.104  58.823  1.00  0.00     0.280 C 
BRANCH  17  18
HETATM   18  O   UNL     1       7.789  30.898  59.472  1.00  0.00    -0.342 OA
BRANCH  18  19
HETATM   19  C   UNL     1       7.672  31.566  60.663  1.00  0.00     0.069 A 
HETATM   20  C   UNL     1       6.856  32.682  60.858  1.00  0.00     0.044 A 
HETATM   21  C   UNL     1       6.775  33.305  62.116  1.00  0.00    -0.053 A 
HETATM   22  C   UNL     1       7.542  32.804  63.186  1.00  0.00    -0.056 A 
HETATM   23  C   UNL     1       5.892  34.513  62.278  1.00  0.00     0.049 C 
HETATM   24  C   UNL     1       7.501  33.438  64.550  1.00  0.00     0.049 C 
HETATM   25  C   UNL     1       8.333  31.661  62.985  1.00  0.00     0.010 A 
HETATM   26  C   UNL     1       8.390  31.044  61.734  1.00  0.00     0.037 A 
ENDBRANCH  18  19
ENDBRANCH  17  18
ENDBRANCH   1  17
TORSDOF 5
ENDMDL
MODEL 8
REMARK VINA RESULT:      -8.6      5.434      8.918
REMARK  5 active torsions:
REMARK  status: ('A' for Active; 'I' for Inactive)
REMARK    1  A    between atoms: C_6  and  O_7 
REMARK    2  A    between atoms: O_7  and  C_8 
REMARK    3  A    between atoms: C_8  and  C_9 
REMARK       I    between atoms: C_9  and  N_10 
REMARK    4  A    between atoms: N_10  and  N_11 
REMARK    5  A    between atoms: C_12  and  C_13 
ROOT
HETATM    1  C   UNL     1       5.365  26.058  53.806  1.00  0.00     0.261 C 
HETATM    2  N   UNL     1       5.149  27.375  53.429  1.00  0.00    -0.246 N 
HETATM    3  O   UNL     1       4.859  25.071  53.271  1.00  0.00    -0.269 OA
HETATM    4  H   UNL     1       5.584  28.123  53.961  1.00  0.00     0.192 HD
ENDROOT
BRANCH   2   5
HETATM    5  N   UNL     1       4.314  27.652  52.388  1.00  0.00    -0.184 NA
HETATM    6  C   UNL     1       4.868  27.812  51.231  1.00  0.00     0.152 C 
BRANCH   6   7
HETATM    7  C   UNL     1       4.032  28.099  50.084  1.00  0.00     0.011 A 
HETATM    8  C   UNL     1       3.600  27.192  49.061  1.00  0.00     0.004 A 
HETATM    9  C   UNL     1       2.800  27.915  48.173  1.00  0.00     0.043 A 
HETATM   10  C   UNL     1       3.801  25.817  48.810  1.00  0.00     0.014 A 
HETATM   11  C   UNL     1       2.196  27.336  47.051  1.00  0.00     0.030 A 
HETATM   12  N   UNL     1       2.752  29.210  48.631  1.00  0.00    -0.364 N 
HETATM   13  C   UNL     1       2.410  25.974  46.828  1.00  0.00     0.002 A 
HETATM   14  C   UNL     1       3.200  25.223  47.693  1.00  0.00     0.001 A 
HETATM   15  H   UNL     1       2.240  29.959  48.186  1.00  0.00     0.165 HD
HETATM   16  C   UNL     1       3.482  29.331  49.780  1.00  0.00     0.102 A 
ENDBRANCH   6   7
ENDBRANCH   2   5
BRANCH   1  17
HETATM   17  C   UNL     1       6.406  25.913  54.911  1.00  0.00     0.280 C 
BRANCH  17  18
HETATM   18  O   UNL     1       7.639  25.403  54.402  1.00  0.00    -0.342 OA
BRANCH  18  19
HETATM   19  C   UNL     1       7.834  24.074  54.670  1.00  0.00     0.069 A 
HETATM   20  C   UNL     1       7.761  23.062  53.710  1.00  0.00     0.044 A 
HETATM   21  C   UNL     1       7.990  21.719  54.058  1.00  0.00    -0.053 A 
HETATM   22  C   UNL     1       8.281  21.392  55.398  1.00  0.00    -0.056 A 
HETATM   23  C   UNL     1       7.890  20.660  52.994  1.00  0.00     0.049 C 
HETATM   24  C   UNL     1       8.524  19.971  55.828  1.00  0.00     0.049 C 
HETATM   25  C   UNL     1       8.383  22.423  56.346  1.00  0.00     0.010 A 
HETATM   26  C   UNL     1       8.168  23.753  55.982  1.00  0.00     0.037 A 
ENDBRANCH  18  19
ENDBRANCH  17  18
ENDBRANCH   1  17
TORSDOF 5
ENDMDL
MODEL 9
REMARK VINA RESULT:      -8.4      2.109      3.535
REMARK  5 active torsions:
REMARK  status: ('A' for Active; 'I' for Inactive)
REMARK    1  A    between atoms: C_6  and  O_7 
REMARK    2  A    between atoms: O_7  and  C_8 
REMARK    3  A    between atoms: C_8  and  C_9 
REMARK       I    between atoms: C_9  and  N_10 
REMARK    4  A    between atoms: N_10  and  N_11 
REMARK    5  A    between atoms: C_12  and  C_13 
ROOT
HETATM    1  C   UNL     1       8.741  30.278  58.326  1.00  0.00     0.261 C 
HETATM    2  N   UNL     1       7.495  30.885  58.395  1.00  0.00    -0.246 N 
HETATM    3  O   UNL     1       9.720  30.578  59.008  1.00  0.00    -0.269 OA
HETATM    4  H   UNL     1       6.761  30.590  57.759  1.00  0.00     0.192 HD
ENDROOT
BRANCH   2   5
HETATM    5  N   UNL     1       7.290  31.907  59.275  1.00  0.00    -0.184 NA
HETATM    6  C   UNL     1       6.137  31.943  59.857  1.00  0.00     0.152 C 
BRANCH   6   7
HETATM    7  C   UNL     1       5.863  32.999  60.810  1.00  0.00     0.011 A 
HETATM    8  C   UNL     1       6.437  33.183  62.110  1.00  0.00     0.004 A 
HETATM    9  C   UNL     1       5.879  34.343  62.653  1.00  0.00     0.043 A 
HETATM   10  C   UNL     1       7.392  32.480  62.876  1.00  0.00     0.014 A 
HETATM   11  C   UNL     1       6.224  34.833  63.918  1.00  0.00     0.030 A 
HETATM   12  N   UNL     1       4.996  34.842  61.725  1.00  0.00    -0.364 N 
HETATM   13  C   UNL     1       7.173  34.118  64.654  1.00  0.00     0.002 A 
HETATM   14  C   UNL     1       7.750  32.959  64.143  1.00  0.00     0.001 A 
HETATM   15  H   UNL     1       4.447  35.682  61.847  1.00  0.00     0.165 HD
HETATM   16  C   UNL     1       4.983  34.048  60.613  1.00  0.00     0.102 A 
ENDBRANCH   6   7
ENDBRANCH   2   5
BRANCH   1  17
HETATM   17  C   UNL     1       8.773  29.086  57.375  1.00  0.00     0.280 C 
BRANCH  17  18
HETATM   18  O   UNL     1       8.109  27.953  57.937  1.00  0.00    -0.342 OA
BRANCH  18  19
HETATM   19  C   UNL     1       7.992  26.901  57.067  1.00  0.00     0.069 A 
HETATM   20  C   UNL     1       8.276  25.575  57.401  1.00  0.00     0.044 A 
HETATM   21  C   UNL     1       8.116  24.544  56.457  1.00  0.00    -0.053 A 
HETATM   22  C   UNL     1       7.677  24.859  55.157  1.00  0.00    -0.056 A 
HETATM   23  C   UNL     1       8.446  23.130  56.855  1.00  0.00     0.049 C 
HETATM   24  C   UNL     1       7.498  23.797  54.106  1.00  0.00     0.049 C 
HETATM   25  C   UNL     1       7.363  26.192  54.845  1.00  0.00     0.010 A 
HETATM   26  C   UNL     1       7.513  27.202  55.797  1.00  0.00     0.037 A 
ENDBRANCH  18  19
ENDBRANCH  17  18
ENDBRANCH   1  17
TORSDOF 5
ENDMDL
MODEL 10
REMARK VINA RESULT:      -8.1      1.509      2.533
REMARK  5 active torsions:
REMARK  status: ('A' for Active; 'I' for Inactive)
REMARK    1  A    between atoms: C_6  and  O_7 
REMARK    2  A    between atoms: O_7  and  C_8 
REMARK    3  A    between atoms: C_8  and  C_9 
REMARK       I    between atoms: C_9  and  N_10 
REMARK    4  A    between atoms: N_10  and  N_11 
REMARK    5  A    between atoms: C_12  and  C_13 
ROOT
HETATM    1  C   UNL     1       6.326  27.653  55.193  1.00  0.00     0.261 C 
HETATM    2  N   UNL     1       7.412  28.239  55.828  1.00  0.00    -0.246 N 
HETATM    3  O   UNL     1       5.183  28.108  55.169  1.00  0.00    -0.269 OA
HETATM    4  H   UNL     1       8.309  27.763  55.823  1.00  0.00     0.192 HD
ENDROOT
BRANCH   2   5
HETATM    5  N   UNL     1       7.248  29.415  56.498  1.00  0.00    -0.184 NA
HETATM    6  C   UNL     1       7.289  29.353  57.789  1.00  0.00     0.152 C 
BRANCH   6   7
HETATM    7  C   UNL     1       7.131  30.571  58.557  1.00  0.00     0.011 A 
HETATM    8  C   UNL     1       5.956  31.382  58.690  1.00  0.00     0.004 A 
HETATM    9  C   UNL     1       6.276  32.444  59.539  1.00  0.00     0.043 A 
HETATM   10  C   UNL     1       4.642  31.308  58.180  1.00  0.00     0.014 A 
HETATM   11  C   UNL     1       5.354  33.433  59.901  1.00  0.00     0.030 A 
HETATM   12  N   UNL     1       7.594  32.292  59.903  1.00  0.00    -0.364 N 
HETATM   13  C   UNL     1       4.061  33.334  59.383  1.00  0.00     0.002 A 
HETATM   14  C   UNL     1       3.707  32.288  58.536  1.00  0.00     0.001 A 
HETATM   15  H   UNL     1       8.097  32.915  60.519  1.00  0.00     0.165 HD
HETATM   16  C   UNL     1       8.115  31.168  59.325  1.00  0.00     0.102 A 
ENDBRANCH   6   7
ENDBRANCH   2   5
BRANCH   1  17
HETATM   17  C   UNL     1       6.698  26.405  54.400  1.00  0.00     0.280 C 
BRANCH  17  18
HETATM   18  O   UNL     1       7.681  25.628  55.084  1.00  0.00    -0.342 OA
BRANCH  18  19
HETATM   19  C   UNL     1       7.782  24.342  54.622  1.00  0.00     0.069 A 
HETATM   20  C   UNL     1       7.718  23.209  55.436  1.00  0.00     0.044 A 
HETATM   21  C   UNL     1       7.813  21.918  54.885  1.00  0.00    -0.053 A 
HETATM   22  C   UNL     1       7.990  21.771  53.496  1.00  0.00    -0.056 A 
HETATM   23  C   UNL     1       7.751  20.726  55.801  1.00  0.00     0.049 C 
HETATM   24  C   UNL     1       8.108  20.415  52.855  1.00  0.00     0.049 C 
HETATM   25  C   UNL     1       8.019  22.917  52.685  1.00  0.00     0.010 A 
HETATM   26  C   UNL     1       7.909  24.192  53.245  1.00  0.00     0.037 A 
ENDBRANCH  18  19
ENDBRANCH  17  18
ENDBRANCH   1  17
TORSDOF 5
ENDMDL
