MODEL 1
REMARK VINA RESULT:     -10.1      0.000      0.000
REMARK  7 active torsions:
REMARK  status: ('A' for Active; 'I' for Inactive)
REMARK    1  A    between atoms: C_3  and  O_4 
REMARK    2  A    between atoms: C_5  and  C_6 
REMARK       I    between atoms: C_6  and  N_7 
REMARK    3  A    between atoms: N_7  and  C_8 
REMARK    4  A    between atoms: C_8  and  C_9 
REMARK    5  A    between atoms: C_9  and  C_10 
REMARK    6  A    between atoms: C_10  and  C_11 
REMARK    7  A    between atoms: C_15  and  C_16 
ROOT
HETATM    1  C   UNL     1       8.264  29.271  58.347  1.00  0.00     0.126 C 
ENDROOT
BRANCH   1   2
HETATM    2  N   UNL     1       9.095  30.426  57.994  1.00  0.00    -0.352 N 
HETATM    3  C   UNL     1       9.230  31.568  58.792  1.00  0.00     0.256 C 
HETATM    4  O   UNL     1      10.228  32.292  58.757  1.00  0.00    -0.267 OA
HETATM    5  C   UNL     1      10.175  30.168  57.051  1.00  0.00     0.152 C 
BRANCH   3   6
HETATM    6  C   UNL     1       8.189  31.942  59.781  1.00  0.00     0.065 A 
HETATM    7  C   UNL     1       8.554  32.107  61.129  1.00  0.00     0.087 A 
HETATM    8  C   UNL     1       7.601  32.455  62.094  1.00  0.00    -0.028 A 
HETATM    9  C   UNL     1       7.992  32.626  63.534  1.00  0.00     0.051 C 
HETATM   10  C   UNL     1       6.276  32.664  61.689  1.00  0.00     0.009 A 
HETATM   11  C   UNL     1       5.918  32.559  60.343  1.00  0.00     0.002 A 
HETATM   12  C   UNL     1       6.876  32.217  59.386  1.00  0.00     0.020 A 
BRANCH   7  13
HETATM   13  O   UNL     1       9.854  31.955  61.544  1.00  0.00    -0.359 OA
HETATM   14  H   UNL     1      10.430  32.376  60.867  1.00  0.00     0.218 HD
ENDBRANCH   7  13
ENDBRANCH   3   6
ENDBRANCH   1   2
BRANCH   1  15
HETATM   15  C   UNL     1       8.285  28.170  57.281  1.00  0.00     0.026 C 
BRANCH  15  16
HETATM   16  C   UNL     1       7.326  27.046  57.674  1.00  0.00     0.060 C 
BRANCH  16  17
HETATM   17  C   UNL     1       7.719  25.681  57.221  1.00  0.00     0.030 A 
HETATM   18  N   UNL     1       8.413  24.769  57.964  1.00  0.00    -0.282 N 
HETATM   19  H   UNL     1       8.772  24.867  58.908  1.00  0.00     0.189 HD
HETATM   20  N   UNL     1       8.628  23.606  57.334  1.00  0.00    -0.174 NA
HETATM   21  C   UNL     1       8.034  23.743  56.136  1.00  0.00     0.089 A 
HETATM   22  C   UNL     1       7.463  25.040  56.027  1.00  0.00     0.060 A 
BRANCH  21  23
HETATM   23  C   UNL     1       8.021  22.656  55.147  1.00  0.00    -0.006 A 
HETATM   24  C   UNL     1       7.979  22.942  53.773  1.00  0.00     0.014 A 
HETATM   25  C   UNL     1       7.973  21.916  52.824  1.00  0.00     0.001 A 
HETATM   26  C   UNL     1       8.010  20.586  53.236  1.00  0.00     0.000 A 
HETATM   27  C   UNL     1       8.054  20.282  54.595  1.00  0.00     0.001 A 
HETATM   28  C   UNL     1       8.059  21.310  55.544  1.00  0.00     0.014 A 
ENDBRANCH  21  23
ENDBRANCH  16  17
ENDBRANCH  15  16
ENDBRANCH   1  15
TORSDOF 7
ENDMDL
MODEL 2
REMARK VINA RESULT:      -9.8      2.974      9.733
REMARK  7 active torsions:
REMARK  status: ('A' for Active; 'I' for Inactive)
REMARK    1  A    between atoms: C_3  and  O_4 
REMARK    2  A    between atoms: C_5  and  C_6 
REMARK       I    between atoms: C_6  and  N_7 
REMARK    3  A    between atoms: N_7  and  C_8 
REMARK    4  A    between atoms: C_8  and  C_9 
REMARK    5  A    between atoms: C_9  and  C_10 
REMARK    6  A    between atoms: C_10  and  C_11 
REMARK    7  A    between atoms: C_15  and  C_16 
ROOT
HETATM    1  C   UNL     1       7.675  27.952  55.959  1.00  0.00     0.126 C 
ENDROOT
BRANCH   1   2
HETATM    2  N   UNL     1       6.301  27.637  56.359  1.00  0.00    -0.352 N 
HETATM    3  C   UNL     1       5.759  26.346  56.353  1.00  0.00     0.256 C 
HETATM    4  O   UNL     1       4.830  26.009  57.093  1.00  0.00    -0.267 OA
HETATM    5  C   UNL     1       5.659  28.602  57.242  1.00  0.00     0.152 C 
BRANCH   3   6
HETATM    6  C   UNL     1       6.319  25.281  55.487  1.00  0.00     0.065 A 
HETATM    7  C   UNL     1       7.172  24.317  56.052  1.00  0.00     0.087 A 
HETATM    8  C   UNL     1       7.726  23.298  55.267  1.00  0.00    -0.028 A 
HETATM    9  C   UNL     1       8.640  22.272  55.872  1.00  0.00     0.051 C 
HETATM   10  C   UNL     1       7.392  23.238  53.907  1.00  0.00     0.009 A 
HETATM   11  C   UNL     1       6.499  24.157  53.351  1.00  0.00     0.002 A 
HETATM   12  C   UNL     1       5.948  25.167  54.143  1.00  0.00     0.020 A 
BRANCH   7  13
HETATM   13  O   UNL     1       7.477  24.325  57.391  1.00  0.00    -0.359 OA
HETATM   14  H   UNL     1       7.527  23.388  57.685  1.00  0.00     0.218 HD
ENDBRANCH   7  13
ENDBRANCH   3   6
ENDBRANCH   1   2
BRANCH   1  15
HETATM   15  C   UNL     1       8.652  27.979  57.138  1.00  0.00     0.026 C 
BRANCH  15  16
HETATM   16  C   UNL     1       9.585  29.185  57.016  1.00  0.00     0.060 C 
BRANCH  16  17
HETATM   17  C   UNL     1       9.415  30.235  58.060  1.00  0.00     0.030 A 
HETATM   18  N   UNL     1      10.096  31.418  58.111  1.00  0.00    -0.282 N 
HETATM   19  H   UNL     1      10.811  31.763  57.478  1.00  0.00     0.189 HD
HETATM   20  N   UNL     1       9.749  32.200  59.142  1.00  0.00    -0.174 NA
HETATM   21  C   UNL     1       8.785  31.521  59.788  1.00  0.00     0.089 A 
HETATM   22  C   UNL     1       8.559  30.275  59.140  1.00  0.00     0.060 A 
BRANCH  21  23
HETATM   23  C   UNL     1       8.114  32.065  60.976  1.00  0.00    -0.006 A 
HETATM   24  C   UNL     1       8.733  32.006  62.235  1.00  0.00     0.014 A 
HETATM   25  C   UNL     1       8.106  32.527  63.370  1.00  0.00     0.001 A 
HETATM   26  C   UNL     1       6.849  33.117  63.264  1.00  0.00     0.000 A 
HETATM   27  C   UNL     1       6.220  33.186  62.022  1.00  0.00     0.001 A 
HETATM   28  C   UNL     1       6.847  32.664  60.887  1.00  0.00     0.014 A 
ENDBRANCH  21  23
ENDBRANCH  16  17
ENDBRANCH  15  16
ENDBRANCH   1  15
TORSDOF 7
ENDMDL
MODEL 3
REMARK VINA RESULT:      -9.7      1.331      1.860
REMARK  7 active torsions:
REMARK  status: ('A' for Active; 'I' for Inactive)
REMARK    1  A    between atoms: C_3  and  O_4 
REMARK    2  A    between atoms: C_5  and  C_6 
REMARK       I    between atoms: C_6  and  N_7 
REMARK    3  A    between atoms: N_7  and  C_8 
REMARK    4  A    between atoms: C_8  and  C_9 
REMARK    5  A    between atoms: C_9  and  C_10 
REMARK    6  A    between atoms: C_10  and  C_11 
REMARK    7  A    between atoms: C_15  and  C_16 
ROOT
HETATM    1  C   UNL     1       8.367  29.195  58.438  1.00  0.00     0.126 C 
ENDROOT
BRANCH   1   2
HETATM    2  N   UNL     1       9.147  30.321  57.914  1.00  0.00    -0.352 N 
HETATM    3  C   UNL     1       9.569  31.409  58.685  1.00  0.00     0.256 C 
HETATM    4  O   UNL     1      10.567  32.079  58.404  1.00  0.00    -0.267 OA
HETATM    5  C   UNL     1       9.911  30.054  56.701  1.00  0.00     0.152 C 
BRANCH   3   6
HETATM    6  C   UNL     1       8.864  31.785  59.934  1.00  0.00     0.065 A 
HETATM    7  C   UNL     1       7.553  32.287  59.855  1.00  0.00     0.087 A 
HETATM    8  C   UNL     1       6.855  32.658  61.011  1.00  0.00    -0.028 A 
HETATM    9  C   UNL     1       5.456  33.199  60.924  1.00  0.00     0.051 C 
HETATM   10  C   UNL     1       7.476  32.494  62.256  1.00  0.00     0.009 A 
HETATM   11  C   UNL     1       8.756  31.941  62.347  1.00  0.00     0.002 A 
HETATM   12  C   UNL     1       9.442  31.569  61.189  1.00  0.00     0.020 A 
BRANCH   7  13
HETATM   13  O   UNL     1       6.904  32.413  58.652  1.00  0.00    -0.359 OA
HETATM   14  H   UNL     1       7.233  31.696  58.065  1.00  0.00     0.218 HD
ENDBRANCH   7  13
ENDBRANCH   3   6
ENDBRANCH   1   2
BRANCH   1  15
HETATM   15  C   UNL     1       7.477  28.538  57.379  1.00  0.00     0.026 C 
BRANCH  15  16
HETATM   16  C   UNL     1       7.244  27.069  57.731  1.00  0.00     0.060 C 
BRANCH  16  17
HETATM   17  C   UNL     1       7.354  26.111  56.594  1.00  0.00     0.030 A 
HETATM   18  N   UNL     1       7.383  26.453  55.272  1.00  0.00    -0.282 N 
HETATM   19  H   UNL     1       7.325  27.377  54.857  1.00  0.00     0.189 HD
HETATM   20  N   UNL     1       7.505  25.406  54.443  1.00  0.00    -0.174 NA
HETATM   21  C   UNL     1       7.582  24.331  55.247  1.00  0.00     0.089 A 
HETATM   22  C   UNL     1       7.479  24.738  56.606  1.00  0.00     0.060 A 
BRANCH  21  23
HETATM   23  C   UNL     1       7.755  22.973  54.713  1.00  0.00    -0.006 A 
HETATM   24  C   UNL     1       7.964  22.768  53.340  1.00  0.00     0.014 A 
HETATM   25  C   UNL     1       8.137  21.481  52.823  1.00  0.00     0.001 A 
HETATM   26  C   UNL     1       8.103  20.378  53.673  1.00  0.00     0.000 A 
HETATM   27  C   UNL     1       7.898  20.562  55.039  1.00  0.00     0.001 A 
HETATM   28  C   UNL     1       7.725  21.850  55.555  1.00  0.00     0.014 A 
ENDBRANCH  21  23
ENDBRANCH  16  17
ENDBRANCH  15  16
ENDBRANCH   1  15
TORSDOF 7
ENDMDL
MODEL 4
REMARK VINA RESULT:      -9.4      2.995      9.924
REMARK  7 active torsions:
REMARK  status: ('A' for Active; 'I' for Inactive)
REMARK    1  A    between atoms: C_3  and  O_4 
REMARK    2  A    between atoms: C_5  and  C_6 
REMARK       I    between atoms: C_6  and  N_7 
REMARK    3  A    between atoms: N_7  and  C_8 
REMARK    4  A    between atoms: C_8  and  C_9 
REMARK    5  A    between atoms: C_9  and  C_10 
REMARK    6  A    between atoms: C_10  and  C_11 
REMARK    7  A    between atoms: C_15  and  C_16 
ROOT
HETATM    1  C   UNL     1       7.582  27.996  56.070  1.00  0.00     0.126 C 
ENDROOT
BRANCH   1   2
HETATM    2  N   UNL     1       6.239  27.459  56.311  1.00  0.00    -0.352 N 
HETATM    3  C   UNL     1       5.966  26.104  56.535  1.00  0.00     0.256 C 
HETATM    4  O   UNL     1       4.984  25.720  57.177  1.00  0.00    -0.267 OA
HETATM    5  C   UNL     1       5.256  28.408  56.817  1.00  0.00     0.152 C 
BRANCH   3   6
HETATM    6  C   UNL     1       6.886  25.045  56.056  1.00  0.00     0.065 A 
HETATM    7  C   UNL     1       6.849  24.665  54.703  1.00  0.00     0.087 A 
HETATM    8  C   UNL     1       7.698  23.666  54.213  1.00  0.00    -0.028 A 
HETATM    9  C   UNL     1       7.653  23.258  52.768  1.00  0.00     0.051 C 
HETATM   10  C   UNL     1       8.611  23.067  55.091  1.00  0.00     0.009 A 
HETATM   11  C   UNL     1       8.695  23.479  56.423  1.00  0.00     0.002 A 
HETATM   12  C   UNL     1       7.847  24.481  56.901  1.00  0.00     0.020 A 
BRANCH   7  13
HETATM   13  O   UNL     1       5.997  25.270  53.812  1.00  0.00    -0.359 OA
HETATM   14  H   UNL     1       5.234  24.664  53.678  1.00  0.00     0.218 HD
ENDBRANCH   7  13
ENDBRANCH   3   6
ENDBRANCH   1   2
BRANCH   1  15
HETATM   15  C   UNL     1       8.427  28.092  57.344  1.00  0.00     0.026 C 
BRANCH  15  16
HETATM   16  C   UNL     1       9.414  29.254  57.229  1.00  0.00     0.060 C 
BRANCH  16  17
HETATM   17  C   UNL     1       9.268  30.323  58.257  1.00  0.00     0.030 A 
HETATM   18  N   UNL     1       9.945  31.510  58.268  1.00  0.00    -0.282 N 
HETATM   19  H   UNL     1      10.641  31.845  57.610  1.00  0.00     0.189 HD
HETATM   20  N   UNL     1       9.622  32.310  59.293  1.00  0.00    -0.174 NA
HETATM   21  C   UNL     1       8.679  31.639  59.977  1.00  0.00     0.089 A 
HETATM   22  C   UNL     1       8.441  30.381  59.359  1.00  0.00     0.060 A 
BRANCH  21  23
HETATM   23  C   UNL     1       8.038  32.203  61.172  1.00  0.00    -0.006 A 
HETATM   24  C   UNL     1       6.822  32.898  61.069  1.00  0.00     0.014 A 
HETATM   25  C   UNL     1       6.200  33.433  62.200  1.00  0.00     0.001 A 
HETATM   26  C   UNL     1       6.785  33.279  63.455  1.00  0.00     0.000 A 
HETATM   27  C   UNL     1       7.990  32.591  63.578  1.00  0.00     0.001 A 
HETATM   28  C   UNL     1       8.612  32.057  62.445  1.00  0.00     0.014 A 
ENDBRANCH  21  23
ENDBRANCH  16  17
ENDBRANCH  15  16
ENDBRANCH   1  15
TORSDOF 7
ENDMDL
MODEL 5
REMARK VINA RESULT:      -9.4      2.713      4.241
REMARK  7 active torsions:
REMARK  status: ('A' for Active; 'I' for Inactive)
REMARK    1  A    between atoms: C_3  and  O_4 
REMARK    2  A    between atoms: C_5  and  C_6 
REMARK       I    between atoms: C_6  and  N_7 
REMARK    3  A    between atoms: N_7  and  C_8 
REMARK    4  A    between atoms: C_8  and  C_9 
REMARK    5  A    between atoms: C_9  and  C_10 
REMARK    6  A    between atoms: C_10  and  C_11 
REMARK    7  A    between atoms: C_15  and  C_16 
ROOT
HETATM    1  C   UNL     1       6.418  28.541  55.491  1.00  0.00     0.126 C 
ENDROOT
BRANCH   1   2
HETATM    2  N   UNL     1       6.762  27.484  56.447  1.00  0.00    -0.352 N 
HETATM    3  C   UNL     1       7.656  27.649  57.511  1.00  0.00     0.256 C 
HETATM    4  O   UNL     1       7.596  26.974  58.543  1.00  0.00    -0.267 OA
HETATM    5  C   UNL     1       5.788  26.409  56.583  1.00  0.00     0.152 C 
BRANCH   3   6
HETATM    6  C   UNL     1       8.700  28.702  57.482  1.00  0.00     0.065 A 
HETATM    7  C   UNL     1       8.611  29.779  58.380  1.00  0.00     0.087 A 
HETATM    8  C   UNL     1       9.574  30.796  58.381  1.00  0.00    -0.028 A 
HETATM    9  C   UNL     1       9.474  31.950  59.337  1.00  0.00     0.051 C 
HETATM   10  C   UNL     1      10.649  30.707  57.487  1.00  0.00     0.009 A 
HETATM   11  C   UNL     1      10.776  29.609  56.632  1.00  0.00     0.002 A 
HETATM   12  C   UNL     1       9.814  28.598  56.642  1.00  0.00     0.020 A 
BRANCH   7  13
HETATM   13  O   UNL     1       7.594  29.866  59.299  1.00  0.00    -0.359 OA
HETATM   14  H   UNL     1       7.246  28.957  59.438  1.00  0.00     0.218 HD
ENDBRANCH   7  13
ENDBRANCH   3   6
ENDBRANCH   1   2
BRANCH   1  15
HETATM   15  C   UNL     1       7.122  28.381  54.140  1.00  0.00     0.026 C 
BRANCH  15  16
HETATM   16  C   UNL     1       6.300  27.470  53.228  1.00  0.00     0.060 C 
BRANCH  16  17
HETATM   17  C   UNL     1       6.862  26.107  53.010  1.00  0.00     0.030 A 
HETATM   18  N   UNL     1       7.350  25.632  51.825  1.00  0.00    -0.282 N 
HETATM   19  H   UNL     1       7.401  26.105  50.929  1.00  0.00     0.189 HD
HETATM   20  N   UNL     1       7.815  24.377  51.894  1.00  0.00    -0.174 NA
HETATM   21  C   UNL     1       7.649  24.012  53.177  1.00  0.00     0.089 A 
HETATM   22  C   UNL     1       7.042  25.072  53.904  1.00  0.00     0.060 A 
BRANCH  21  23
HETATM   23  C   UNL     1       8.070  22.693  53.670  1.00  0.00    -0.006 A 
HETATM   24  C   UNL     1       7.932  21.553  52.863  1.00  0.00     0.014 A 
HETATM   25  C   UNL     1       8.336  20.295  53.319  1.00  0.00     0.001 A 
HETATM   26  C   UNL     1       8.885  20.159  54.592  1.00  0.00     0.000 A 
HETATM   27  C   UNL     1       9.031  21.280  55.407  1.00  0.00     0.001 A 
HETATM   28  C   UNL     1       8.626  22.538  54.950  1.00  0.00     0.014 A 
ENDBRANCH  21  23
ENDBRANCH  16  17
ENDBRANCH  15  16
ENDBRANCH   1  15
TORSDOF 7
ENDMDL
MODEL 6
REMARK VINA RESULT:      -9.2      4.073      6.668
REMARK  7 active torsions:
REMARK  status: ('A' for Active; 'I' for Inactive)
REMARK    1  A    between atoms: C_3  and  O_4 
REMARK    2  A    between atoms: C_5  and  C_6 
REMARK       I    between atoms: C_6  and  N_7 
REMARK    3  A    between atoms: N_7  and  C_8 
REMARK    4  A    between atoms: C_8  and  C_9 
REMARK    5  A    between atoms: C_9  and  C_10 
REMARK    6  A    between atoms: C_10  and  C_11 
REMARK    7  A    between atoms: C_15  and  C_16 
ROOT
HETATM    1  C   UNL     1       7.605  28.212  55.217  1.00  0.00     0.126 C 
ENDROOT
BRANCH   1   2
HETATM    2  N   UNL     1       6.312  28.901  55.281  1.00  0.00    -0.352 N 
HETATM    3  C   UNL     1       5.104  28.341  54.850  1.00  0.00     0.256 C 
HETATM    4  O   UNL     1       4.010  28.684  55.307  1.00  0.00    -0.267 OA
HETATM    5  C   UNL     1       6.213  29.976  56.259  1.00  0.00     0.152 C 
BRANCH   3   6
HETATM    6  C   UNL     1       5.077  27.248  53.848  1.00  0.00     0.065 A 
HETATM    7  C   UNL     1       5.116  27.573  52.480  1.00  0.00     0.087 A 
HETATM    8  C   UNL     1       5.087  26.570  51.503  1.00  0.00    -0.028 A 
HETATM    9  C   UNL     1       5.124  26.918  50.043  1.00  0.00     0.051 C 
HETATM   10  C   UNL     1       5.048  25.230  51.912  1.00  0.00     0.009 A 
HETATM   11  C   UNL     1       5.068  24.899  53.269  1.00  0.00     0.002 A 
HETATM   12  C   UNL     1       5.102  25.905  54.236  1.00  0.00     0.020 A 
BRANCH   7  13
HETATM   13  O   UNL     1       5.204  28.875  52.053  1.00  0.00    -0.359 OA
HETATM   14  H   UNL     1       5.289  29.440  52.853  1.00  0.00     0.218 HD
ENDBRANCH   7  13
ENDBRANCH   3   6
ENDBRANCH   1   2
BRANCH   1  15
HETATM   15  C   UNL     1       8.297  28.109  56.579  1.00  0.00     0.026 C 
BRANCH  15  16
HETATM   16  C   UNL     1       7.607  27.046  57.436  1.00  0.00     0.060 C 
BRANCH  16  17
HETATM   17  C   UNL     1       7.922  25.633  57.081  1.00  0.00     0.030 A 
HETATM   18  N   UNL     1       8.390  24.685  57.945  1.00  0.00    -0.282 N 
HETATM   19  H   UNL     1       8.603  24.781  58.933  1.00  0.00     0.189 HD
HETATM   20  N   UNL     1       8.579  23.483  57.383  1.00  0.00    -0.174 NA
HETATM   21  C   UNL     1       8.202  23.634  56.102  1.00  0.00     0.089 A 
HETATM   22  C   UNL     1       7.794  24.977  55.875  1.00  0.00     0.060 A 
BRANCH  21  23
HETATM   23  C   UNL     1       8.232  22.517  55.147  1.00  0.00    -0.006 A 
HETATM   24  C   UNL     1       7.939  22.730  53.791  1.00  0.00     0.014 A 
HETATM   25  C   UNL     1       7.972  21.677  52.873  1.00  0.00     0.001 A 
HETATM   26  C   UNL     1       8.301  20.392  53.298  1.00  0.00     0.000 A 
HETATM   27  C   UNL     1       8.597  20.161  54.640  1.00  0.00     0.001 A 
HETATM   28  C   UNL     1       8.563  21.216  55.558  1.00  0.00     0.014 A 
ENDBRANCH  21  23
ENDBRANCH  16  17
ENDBRANCH  15  16
ENDBRANCH   1  15
TORSDOF 7
ENDMDL
MODEL 7
REMARK VINA RESULT:      -9.1      3.816      5.258
REMARK  7 active torsions:
REMARK  status: ('A' for Active; 'I' for Inactive)
REMARK    1  A    between atoms: C_3  and  O_4 
REMARK    2  A    between atoms: C_5  and  C_6 
REMARK       I    between atoms: C_6  and  N_7 
REMARK    3  A    between atoms: N_7  and  C_8 
REMARK    4  A    between atoms: C_8  and  C_9 
REMARK    5  A    between atoms: C_9  and  C_10 
REMARK    6  A    between atoms: C_10  and  C_11 
REMARK    7  A    between atoms: C_15  and  C_16 
ROOT
HETATM    1  C   UNL     1       4.859  30.249  54.437  1.00  0.00     0.126 C 
ENDROOT
BRANCH   1   2
HETATM    2  N   UNL     1       3.989  30.277  55.617  1.00  0.00    -0.352 N 
HETATM    3  C   UNL     1       4.420  29.981  56.915  1.00  0.00     0.256 C 
HETATM    4  O   UNL     1       3.867  30.436  57.921  1.00  0.00    -0.267 OA
HETATM    5  C   UNL     1       2.794  31.103  55.506  1.00  0.00     0.152 C 
BRANCH   3   6
HETATM    6  C   UNL     1       5.617  29.139  57.155  1.00  0.00     0.065 A 
HETATM    7  C   UNL     1       5.485  27.740  57.133  1.00  0.00     0.087 A 
HETATM    8  C   UNL     1       6.590  26.910  57.360  1.00  0.00    -0.028 A 
HETATM    9  C   UNL     1       6.446  25.415  57.341  1.00  0.00     0.051 C 
HETATM   10  C   UNL     1       7.841  27.499  57.582  1.00  0.00     0.009 A 
HETATM   11  C   UNL     1       7.991  28.888  57.547  1.00  0.00     0.002 A 
HETATM   12  C   UNL     1       6.885  29.707  57.315  1.00  0.00     0.020 A 
BRANCH   7  13
HETATM   13  O   UNL     1       4.279  27.136  56.870  1.00  0.00    -0.359 OA
HETATM   14  H   UNL     1       4.388  26.614  56.044  1.00  0.00     0.218 HD
ENDBRANCH   7  13
ENDBRANCH   3   6
ENDBRANCH   1   2
BRANCH   1  15
HETATM   15  C   UNL     1       4.731  28.954  53.628  1.00  0.00     0.026 C 
BRANCH  15  16
HETATM   16  C   UNL     1       6.090  28.262  53.531  1.00  0.00     0.060 C 
BRANCH  16  17
HETATM   17  C   UNL     1       6.072  26.784  53.726  1.00  0.00     0.030 A 
HETATM   18  N   UNL     1       4.951  26.019  53.879  1.00  0.00    -0.282 N 
HETATM   19  H   UNL     1       3.981  26.317  53.896  1.00  0.00     0.189 HD
HETATM   20  N   UNL     1       5.202  24.711  54.022  1.00  0.00    -0.174 NA
HETATM   21  C   UNL     1       6.539  24.600  53.939  1.00  0.00     0.089 A 
HETATM   22  C   UNL     1       7.118  25.886  53.764  1.00  0.00     0.060 A 
BRANCH  21  23
HETATM   23  C   UNL     1       7.216  23.298  54.019  1.00  0.00    -0.006 A 
HETATM   24  C   UNL     1       7.424  22.678  55.261  1.00  0.00     0.014 A 
HETATM   25  C   UNL     1       8.062  21.437  55.349  1.00  0.00     0.001 A 
HETATM   26  C   UNL     1       8.501  20.797  54.193  1.00  0.00     0.000 A 
HETATM   27  C   UNL     1       8.301  21.396  52.951  1.00  0.00     0.001 A 
HETATM   28  C   UNL     1       7.664  22.638  52.864  1.00  0.00     0.014 A 
ENDBRANCH  21  23
ENDBRANCH  16  17
ENDBRANCH  15  16
ENDBRANCH   1  15
TORSDOF 7
ENDMDL
MODEL 8
REMARK VINA RESULT:      -9.0      5.324      6.388
REMARK  7 active torsions:
REMARK  status: ('A' for Active; 'I' for Inactive)
REMARK    1  A    between atoms: C_3  and  O_4 
REMARK    2  A    between atoms: C_5  and  C_6 
REMARK       I    between atoms: C_6  and  N_7 
REMARK    3  A    between atoms: N_7  and  C_8 
REMARK    4  A    between atoms: C_8  and  C_9 
REMARK    5  A    between atoms: C_9  and  C_10 
REMARK    6  A    between atoms: C_10  and  C_11 
REMARK    7  A    between atoms: C_15  and  C_16 
ROOT
HETATM    1  C   UNL     1       5.029  29.280  51.872  1.00  0.00     0.126 C 
ENDROOT
BRANCH   1   2
HETATM    2  N   UNL     1       4.236  29.780  53.000  1.00  0.00    -0.352 N 
HETATM    3  C   UNL     1       4.621  29.666  54.341  1.00  0.00     0.256 C 
HETATM    4  O   UNL     1       4.239  30.450  55.213  1.00  0.00    -0.267 OA
HETATM    5  C   UNL     1       3.289  30.842  52.689  1.00  0.00     0.152 C 
BRANCH   3   6
HETATM    6  C   UNL     1       5.571  28.615  54.781  1.00  0.00     0.065 A 
HETATM    7  C   UNL     1       5.149  27.663  55.725  1.00  0.00     0.087 A 
HETATM    8  C   UNL     1       6.017  26.658  56.170  1.00  0.00    -0.028 A 
HETATM    9  C   UNL     1       5.565  25.644  57.182  1.00  0.00     0.051 C 
HETATM   10  C   UNL     1       7.311  26.600  55.635  1.00  0.00     0.009 A 
HETATM   11  C   UNL     1       7.718  27.507  54.655  1.00  0.00     0.002 A 
HETATM   12  C   UNL     1       6.844  28.502  54.213  1.00  0.00     0.020 A 
BRANCH   7  13
HETATM   13  O   UNL     1       3.871  27.668  56.228  1.00  0.00    -0.359 OA
HETATM   14  H   UNL     1       3.939  27.544  57.201  1.00  0.00     0.218 HD
ENDBRANCH   7  13
ENDBRANCH   3   6
ENDBRANCH   1   2
BRANCH   1  15
HETATM   15  C   UNL     1       4.340  28.142  51.113  1.00  0.00     0.026 C 
BRANCH  15  16
HETATM   16  C   UNL     1       5.364  27.069  50.740  1.00  0.00     0.060 C 
BRANCH  16  17
HETATM   17  C   UNL     1       5.588  26.013  51.767  1.00  0.00     0.030 A 
HETATM   18  N   UNL     1       4.685  25.626  52.717  1.00  0.00    -0.282 N 
HETATM   19  H   UNL     1       3.751  25.986  52.882  1.00  0.00     0.189 HD
HETATM   20  N   UNL     1       5.123  24.642  53.514  1.00  0.00    -0.174 NA
HETATM   21  C   UNL     1       6.354  24.348  53.063  1.00  0.00     0.089 A 
HETATM   22  C   UNL     1       6.683  25.199  51.972  1.00  0.00     0.060 A 
BRANCH  21  23
HETATM   23  C   UNL     1       7.168  23.283  53.665  1.00  0.00    -0.006 A 
HETATM   24  C   UNL     1       7.229  23.134  55.059  1.00  0.00     0.014 A 
HETATM   25  C   UNL     1       7.995  22.120  55.642  1.00  0.00     0.001 A 
HETATM   26  C   UNL     1       8.711  21.238  54.837  1.00  0.00     0.000 A 
HETATM   27  C   UNL     1       8.661  21.369  53.450  1.00  0.00     0.001 A 
HETATM   28  C   UNL     1       7.896  22.385  52.868  1.00  0.00     0.014 A 
ENDBRANCH  21  23
ENDBRANCH  16  17
ENDBRANCH  15  16
ENDBRANCH   1  15
TORSDOF 7
ENDMDL
MODEL 9
REMARK VINA RESULT:      -9.0      3.486      9.714
REMARK  7 active torsions:
REMARK  status: ('A' for Active; 'I' for Inactive)
REMARK    1  A    between atoms: C_3  and  O_4 
REMARK    2  A    between atoms: C_5  and  C_6 
REMARK       I    between atoms: C_6  and  N_7 
REMARK    3  A    between atoms: N_7  and  C_8 
REMARK    4  A    between atoms: C_8  and  C_9 
REMARK    5  A    between atoms: C_9  and  C_10 
REMARK    6  A    between atoms: C_10  and  C_11 
REMARK    7  A    between atoms: C_15  and  C_16 
ROOT
HETATM    1  C   UNL     1       7.680  26.952  53.464  1.00  0.00     0.126 C 
ENDROOT
BRANCH   1   2
HETATM    2  N   UNL     1       6.385  26.384  53.075  1.00  0.00    -0.352 N 
HETATM    3  C   UNL     1       5.946  25.107  53.444  1.00  0.00     0.256 C 
HETATM    4  O   UNL     1       4.751  24.814  53.534  1.00  0.00    -0.267 OA
HETATM    5  C   UNL     1       5.349  27.346  52.724  1.00  0.00     0.152 C 
BRANCH   3   6
HETATM    6  C   UNL     1       6.908  24.040  53.811  1.00  0.00     0.065 A 
HETATM    7  C   UNL     1       7.108  23.736  55.169  1.00  0.00     0.087 A 
HETATM    8  C   UNL     1       8.011  22.739  55.557  1.00  0.00    -0.028 A 
HETATM    9  C   UNL     1       8.228  22.420  57.009  1.00  0.00     0.051 C 
HETATM   10  C   UNL     1       8.694  22.024  54.564  1.00  0.00     0.009 A 
HETATM   11  C   UNL     1       8.456  22.280  53.212  1.00  0.00     0.002 A 
HETATM   12  C   UNL     1       7.551  23.273  52.834  1.00  0.00     0.020 A 
BRANCH   7  13
HETATM   13  O   UNL     1       6.416  24.388  56.160  1.00  0.00    -0.359 OA
HETATM   14  H   UNL     1       6.670  23.975  57.015  1.00  0.00     0.218 HD
ENDBRANCH   7  13
ENDBRANCH   3   6
ENDBRANCH   1   2
BRANCH   1  15
HETATM   15  C   UNL     1       7.548  28.187  54.360  1.00  0.00     0.026 C 
BRANCH  15  16
HETATM   16  C   UNL     1       7.520  27.765  55.829  1.00  0.00     0.060 C 
BRANCH  16  17
HETATM   17  C   UNL     1       7.406  28.878  56.814  1.00  0.00     0.030 A 
HETATM   18  N   UNL     1       6.515  29.912  56.741  1.00  0.00    -0.282 N 
HETATM   19  H   UNL     1       5.816  30.093  56.028  1.00  0.00     0.189 HD
HETATM   20  N   UNL     1       6.603  30.777  57.760  1.00  0.00    -0.174 NA
HETATM   21  C   UNL     1       7.573  30.288  58.551  1.00  0.00     0.089 A 
HETATM   22  C   UNL     1       8.107  29.101  57.980  1.00  0.00     0.060 A 
BRANCH  21  23
HETATM   23  C   UNL     1       7.956  30.947  59.808  1.00  0.00    -0.006 A 
HETATM   24  C   UNL     1       7.170  31.982  60.339  1.00  0.00     0.014 A 
HETATM   25  C   UNL     1       7.521  32.610  61.537  1.00  0.00     0.001 A 
HETATM   26  C   UNL     1       8.664  32.210  62.225  1.00  0.00     0.000 A 
HETATM   27  C   UNL     1       9.455  31.182  61.715  1.00  0.00     0.001 A 
HETATM   28  C   UNL     1       9.104  30.555  60.515  1.00  0.00     0.014 A 
ENDBRANCH  21  23
ENDBRANCH  16  17
ENDBRANCH  15  16
ENDBRANCH   1  15
TORSDOF 7
ENDMDL
MODEL 10
REMARK VINA RESULT:      -8.5      5.702      9.224
REMARK  7 active torsions:
REMARK  status: ('A' for Active; 'I' for Inactive)
REMARK    1  A    between atoms: C_3  and  O_4 
REMARK    2  A    between atoms: C_5  and  C_6 
REMARK       I    between atoms: C_6  and  N_7 
REMARK    3  A    between atoms: N_7  and  C_8 
REMARK    4  A    between atoms: C_8  and  C_9 
REMARK    5  A    between atoms: C_9  and  C_10 
REMARK    6  A    between atoms: C_10  and  C_11 
REMARK    7  A    between atoms: C_15  and  C_16 
ROOT
HETATM    1  C   UNL     1       5.700  25.744  55.283  1.00  0.00     0.126 C 
ENDROOT
BRANCH   1   2
HETATM    2  N   UNL     1       6.695  25.547  56.341  1.00  0.00    -0.352 N 
HETATM    3  C   UNL     1       7.867  24.797  56.186  1.00  0.00     0.256 C 
HETATM    4  O   UNL     1       8.884  25.003  56.855  1.00  0.00    -0.267 OA
HETATM    5  C   UNL     1       6.707  26.550  57.398  1.00  0.00     0.152 C 
BRANCH   3   6
HETATM    6  C   UNL     1       7.971  23.739  55.152  1.00  0.00     0.065 A 
HETATM    7  C   UNL     1       8.194  22.410  55.554  1.00  0.00     0.087 A 
HETATM    8  C   UNL     1       8.304  21.383  54.609  1.00  0.00    -0.028 A 
HETATM    9  C   UNL     1       8.548  19.964  55.039  1.00  0.00     0.051 C 
HETATM   10  C   UNL     1       8.157  21.697  53.251  1.00  0.00     0.009 A 
HETATM   11  C   UNL     1       7.877  23.005  52.849  1.00  0.00     0.002 A 
HETATM   12  C   UNL     1       7.764  24.022  53.799  1.00  0.00     0.020 A 
BRANCH   7  13
HETATM   13  O   UNL     1       8.294  22.068  56.880  1.00  0.00    -0.359 OA
HETATM   14  H   UNL     1       7.392  21.825  57.188  1.00  0.00     0.218 HD
ENDBRANCH   7  13
ENDBRANCH   3   6
ENDBRANCH   1   2
BRANCH   1  15
HETATM   15  C   UNL     1       5.608  27.198  54.810  1.00  0.00     0.026 C 
BRANCH  15  16
HETATM   16  C   UNL     1       6.515  27.410  53.598  1.00  0.00     0.060 C 
BRANCH  16  17
HETATM   17  C   UNL     1       5.813  27.658  52.307  1.00  0.00     0.030 A 
HETATM   18  N   UNL     1       5.742  28.860  51.661  1.00  0.00    -0.282 N 
HETATM   19  H   UNL     1       6.132  29.753  51.946  1.00  0.00     0.189 HD
HETATM   20  N   UNL     1       5.065  28.817  50.506  1.00  0.00    -0.174 NA
HETATM   21  C   UNL     1       4.691  27.533  50.367  1.00  0.00     0.089 A 
HETATM   22  C   UNL     1       5.135  26.779  51.488  1.00  0.00     0.060 A 
BRANCH  21  23
HETATM   23  C   UNL     1       3.941  27.065  49.194  1.00  0.00    -0.006 A 
HETATM   24  C   UNL     1       3.288  27.980  48.353  1.00  0.00     0.014 A 
HETATM   25  C   UNL     1       2.577  27.546  47.230  1.00  0.00     0.001 A 
HETATM   26  C   UNL     1       2.511  26.187  46.930  1.00  0.00     0.000 A 
HETATM   27  C   UNL     1       3.156  25.264  47.751  1.00  0.00     0.001 A 
HETATM   28  C   UNL     1       3.865  25.699  48.875  1.00  0.00     0.014 A 
ENDBRANCH  21  23
ENDBRANCH  16  17
ENDBRANCH  15  16
ENDBRANCH   1  15
TORSDOF 7
ENDMDL
