MODEL 1
REMARK VINA RESULT:      -9.9      0.000      0.000
REMARK  3 active torsions:
REMARK  status: ('A' for Active; 'I' for Inactive)
REMARK    1  A    between atoms: C_8  and  C_9 
REMARK    2  A    between atoms: C_12  and  C_13 
REMARK    3  A    between atoms: C_24  and  N_25 
ROOT
HETATM    1  C   UNL     1       4.213  28.723  54.508  1.00  0.00     0.073 C 
HETATM    2  C   UNL     1       4.612  29.238  55.841  1.00  0.00     0.062 A 
HETATM    3  N   UNL     1       3.676  29.615  56.729  1.00  0.00    -0.177 NA
HETATM    4  N   UNL     1       4.381  30.011  57.808  1.00  0.00    -0.256 N 
HETATM    5  H   UNL     1       3.881  30.352  58.621  1.00  0.00     0.191 HD
HETATM    6  C   UNL     1       5.721  29.896  57.631  1.00  0.00     0.175 A 
HETATM    7  C   UNL     1       5.916  29.392  56.372  1.00  0.00     0.034 A 
HETATM    8  C   UNL     1       7.297  29.165  55.866  1.00  0.00     0.105 A 
HETATM    9  C   UNL     1       8.328  29.591  56.915  1.00  0.00     0.080 A 
HETATM   10  C   UNL     1       9.698  29.498  56.534  1.00  0.00     0.100 C 
HETATM   11  N   UNL     1      10.815  29.422  56.228  1.00  0.00    -0.191 NA
HETATM   12  C   UNL     1       7.981  30.083  58.137  1.00  0.00     0.140 A 
HETATM   13  O   UNL     1       6.638  30.226  58.531  1.00  0.00    -0.279 OA
ENDROOT
BRANCH   8  14
HETATM   14  C   UNL     1       7.371  27.689  55.499  1.00  0.00    -0.044 A 
HETATM   15  C   UNL     1       7.328  26.722  56.515  1.00  0.00     0.009 A 
HETATM   16  C   UNL     1       7.424  25.359  56.212  1.00  0.00     0.013 A 
HETATM   17  C   UNL     1       7.558  24.917  54.887  1.00  0.00    -0.026 A 
HETATM   18  C   UNL     1       7.576  25.886  53.873  1.00  0.00     0.013 A 
HETATM   19  C   UNL     1       7.481  27.250  54.170  1.00  0.00     0.009 A 
BRANCH  17  20
HETATM   20  C   UNL     1       7.692  23.482  54.574  1.00  0.00    -0.026 A 
HETATM   21  C   UNL     1       7.658  22.510  55.588  1.00  0.00     0.012 A 
HETATM   22  C   UNL     1       7.799  21.151  55.290  1.00  0.00     0.001 A 
HETATM   23  C   UNL     1       7.977  20.741  53.972  1.00  0.00     0.000 A 
HETATM   24  C   UNL     1       8.011  21.687  52.951  1.00  0.00     0.001 A 
HETATM   25  C   UNL     1       7.870  23.045  53.250  1.00  0.00     0.012 A 
ENDBRANCH  17  20
ENDBRANCH   8  14
BRANCH  12  26
HETATM   26  N   UNL     1       8.863  30.494  59.111  1.00  0.00    -0.282 NA
HETATM   27  H   UNL     1       8.441  30.838  59.971  1.00  0.00     0.126 HD
HETATM   28  H   UNL     1       9.580  31.114  58.742  1.00  0.00     0.126 HD
ENDBRANCH  12  26
TORSDOF 3
ENDMDL
MODEL 2
REMARK VINA RESULT:      -9.6      1.801      2.574
REMARK  3 active torsions:
REMARK  status: ('A' for Active; 'I' for Inactive)
REMARK    1  A    between atoms: C_8  and  C_9 
REMARK    2  A    between atoms: C_12  and  C_13 
REMARK    3  A    between atoms: C_24  and  N_25 
ROOT
HETATM    1  C   UNL     1       5.755  28.319  51.650  1.00  0.00     0.073 C 
HETATM    2  C   UNL     1       4.861  28.790  52.736  1.00  0.00     0.062 A 
HETATM    3  N   UNL     1       3.613  29.200  52.454  1.00  0.00    -0.177 NA
HETATM    4  N   UNL     1       3.096  29.541  53.653  1.00  0.00    -0.256 N 
HETATM    5  H   UNL     1       2.147  29.895  53.694  1.00  0.00     0.191 HD
HETATM    6  C   UNL     1       3.972  29.358  54.673  1.00  0.00     0.175 A 
HETATM    7  C   UNL     1       5.127  28.866  54.124  1.00  0.00     0.034 A 
HETATM    8  C   UNL     1       6.299  28.574  54.995  1.00  0.00     0.105 A 
HETATM    9  C   UNL     1       5.986  28.928  56.451  1.00  0.00     0.080 A 
HETATM   10  C   UNL     1       7.049  28.769  57.386  1.00  0.00     0.100 C 
HETATM   11  N   UNL     1       7.912  28.639  58.152  1.00  0.00    -0.191 NA
HETATM   12  C   UNL     1       4.779  29.417  56.851  1.00  0.00     0.140 A 
HETATM   13  O   UNL     1       3.720  29.624  55.948  1.00  0.00    -0.279 OA
ENDROOT
BRANCH   8  14
HETATM   14  C   UNL     1       6.625  27.103  54.778  1.00  0.00    -0.044 A 
HETATM   15  C   UNL     1       5.900  26.124  55.476  1.00  0.00     0.009 A 
HETATM   16  C   UNL     1       6.197  24.766  55.321  1.00  0.00     0.013 A 
HETATM   17  C   UNL     1       7.220  24.339  54.460  1.00  0.00    -0.026 A 
HETATM   18  C   UNL     1       7.925  25.318  53.745  1.00  0.00     0.013 A 
HETATM   19  C   UNL     1       7.633  26.679  53.898  1.00  0.00     0.009 A 
BRANCH  17  20
HETATM   20  C   UNL     1       7.551  22.909  54.324  1.00  0.00    -0.026 A 
HETATM   21  C   UNL     1       7.555  22.053  55.439  1.00  0.00     0.012 A 
HETATM   22  C   UNL     1       7.883  20.700  55.309  1.00  0.00     0.001 A 
HETATM   23  C   UNL     1       8.213  20.179  54.061  1.00  0.00     0.000 A 
HETATM   24  C   UNL     1       8.212  21.008  52.943  1.00  0.00     0.001 A 
HETATM   25  C   UNL     1       7.885  22.360  53.074  1.00  0.00     0.012 A 
ENDBRANCH  17  20
ENDBRANCH   8  14
BRANCH  12  26
HETATM   26  N   UNL     1       4.447  29.765  58.141  1.00  0.00    -0.282 NA
HETATM   27  H   UNL     1       4.653  30.725  58.406  1.00  0.00     0.126 HD
HETATM   28  H   UNL     1       4.779  29.082  58.819  1.00  0.00     0.126 HD
ENDBRANCH  12  26
TORSDOF 3
ENDMDL
MODEL 3
REMARK VINA RESULT:      -9.1      4.171      6.790
REMARK  3 active torsions:
REMARK  status: ('A' for Active; 'I' for Inactive)
REMARK    1  A    between atoms: C_8  and  C_9 
REMARK    2  A    between atoms: C_12  and  C_13 
REMARK    3  A    between atoms: C_24  and  N_25 
ROOT
HETATM    1  C   UNL     1       7.491  21.650  52.830  1.00  0.00     0.073 C 
HETATM    2  C   UNL     1       8.269  22.216  53.959  1.00  0.00     0.062 A 
HETATM    3  N   UNL     1       9.548  21.850  54.150  1.00  0.00    -0.177 NA
HETATM    4  N   UNL     1       9.936  22.551  55.235  1.00  0.00    -0.256 N 
HETATM    5  H   UNL     1      10.881  22.433  55.582  1.00  0.00     0.191 HD
HETATM    6  C   UNL     1       8.951  23.342  55.729  1.00  0.00     0.175 A 
HETATM    7  C   UNL     1       7.854  23.161  54.928  1.00  0.00     0.034 A 
HETATM    8  C   UNL     1       6.588  23.887  55.224  1.00  0.00     0.105 A 
HETATM    9  C   UNL     1       6.747  24.749  56.479  1.00  0.00     0.080 A 
HETATM   10  C   UNL     1       5.584  25.444  56.923  1.00  0.00     0.100 C 
HETATM   11  N   UNL     1       4.641  26.014  57.287  1.00  0.00    -0.191 NA
HETATM   12  C   UNL     1       7.911  24.828  57.181  1.00  0.00     0.140 A 
HETATM   13  O   UNL     1       9.067  24.124  56.794  1.00  0.00    -0.279 OA
ENDROOT
BRANCH   8  14
HETATM   14  C   UNL     1       6.261  24.685  53.969  1.00  0.00    -0.044 A 
HETATM   15  C   UNL     1       5.047  24.458  53.304  1.00  0.00     0.009 A 
HETATM   16  C   UNL     1       4.732  25.154  52.131  1.00  0.00     0.013 A 
HETATM   17  C   UNL     1       5.613  26.102  51.589  1.00  0.00    -0.026 A 
HETATM   18  C   UNL     1       6.815  26.343  52.271  1.00  0.00     0.013 A 
HETATM   19  C   UNL     1       7.136  25.650  53.443  1.00  0.00     0.009 A 
BRANCH  17  20
HETATM   20  C   UNL     1       5.292  26.809  50.336  1.00  0.00    -0.026 A 
HETATM   21  C   UNL     1       5.606  28.168  50.165  1.00  0.00     0.012 A 
HETATM   22  C   UNL     1       5.288  28.839  48.981  1.00  0.00     0.001 A 
HETATM   23  C   UNL     1       4.649  28.162  47.945  1.00  0.00     0.000 A 
HETATM   24  C   UNL     1       4.331  26.815  48.092  1.00  0.00     0.001 A 
HETATM   25  C   UNL     1       4.649  26.145  49.277  1.00  0.00     0.012 A 
ENDBRANCH  17  20
ENDBRANCH   8  14
BRANCH  12  26
HETATM   26  N   UNL     1       8.106  25.574  58.322  1.00  0.00    -0.282 NA
HETATM   27  H   UNL     1       8.067  26.584  58.201  1.00  0.00     0.126 HD
HETATM   28  H   UNL     1       8.921  25.266  58.848  1.00  0.00     0.126 HD
ENDBRANCH  12  26
TORSDOF 3
ENDMDL
MODEL 4
REMARK VINA RESULT:      -8.9      4.929      6.638
REMARK  3 active torsions:
REMARK  status: ('A' for Active; 'I' for Inactive)
REMARK    1  A    between atoms: C_8  and  C_9 
REMARK    2  A    between atoms: C_12  and  C_13 
REMARK    3  A    between atoms: C_24  and  N_25 
ROOT
HETATM    1  C   UNL     1       4.904  28.895  53.433  1.00  0.00     0.073 C 
HETATM    2  C   UNL     1       5.173  29.151  51.996  1.00  0.00     0.062 A 
HETATM    3  N   UNL     1       5.734  30.309  51.608  1.00  0.00    -0.177 NA
HETATM    4  N   UNL     1       5.836  30.196  50.269  1.00  0.00    -0.256 N 
HETATM    5  H   UNL     1       6.232  30.967  49.741  1.00  0.00     0.191 HD
HETATM    6  C   UNL     1       5.363  29.013  49.803  1.00  0.00     0.175 A 
HETATM    7  C   UNL     1       4.928  28.301  50.890  1.00  0.00     0.034 A 
HETATM    8  C   UNL     1       4.330  26.951  50.705  1.00  0.00     0.105 A 
HETATM    9  C   UNL     1       4.282  26.586  49.219  1.00  0.00     0.080 A 
HETATM   10  C   UNL     1       3.662  25.346  48.889  1.00  0.00     0.100 C 
HETATM   11  N   UNL     1       3.160  24.335  48.616  1.00  0.00    -0.191 NA
HETATM   12  C   UNL     1       4.755  27.406  48.240  1.00  0.00     0.140 A 
HETATM   13  O   UNL     1       5.337  28.654  48.526  1.00  0.00    -0.279 OA
ENDROOT
BRANCH   8  14
HETATM   14  C   UNL     1       5.176  26.001  51.542  1.00  0.00    -0.044 A 
HETATM   15  C   UNL     1       6.521  25.791  51.202  1.00  0.00     0.009 A 
HETATM   16  C   UNL     1       7.314  24.901  51.934  1.00  0.00     0.013 A 
HETATM   17  C   UNL     1       6.795  24.198  53.033  1.00  0.00    -0.026 A 
HETATM   18  C   UNL     1       5.457  24.430  53.384  1.00  0.00     0.013 A 
HETATM   19  C   UNL     1       4.658  25.317  52.655  1.00  0.00     0.009 A 
BRANCH  17  20
HETATM   20  C   UNL     1       7.626  23.237  53.781  1.00  0.00    -0.026 A 
HETATM   21  C   UNL     1       8.037  22.024  53.201  1.00  0.00     0.012 A 
HETATM   22  C   UNL     1       8.812  21.108  53.919  1.00  0.00     0.001 A 
HETATM   23  C   UNL     1       9.191  21.390  55.229  1.00  0.00     0.000 A 
HETATM   24  C   UNL     1       8.797  22.586  55.821  1.00  0.00     0.001 A 
HETATM   25  C   UNL     1       8.021  23.500  55.104  1.00  0.00     0.012 A 
ENDBRANCH  17  20
ENDBRANCH   8  14
BRANCH  12  26
HETATM   26  N   UNL     1       4.725  27.136  46.889  1.00  0.00    -0.282 NA
HETATM   27  H   UNL     1       3.916  26.613  46.562  1.00  0.00     0.126 HD
HETATM   28  H   UNL     1       5.608  26.758  46.555  1.00  0.00     0.126 HD
ENDBRANCH  12  26
TORSDOF 3
ENDMDL
MODEL 5
REMARK VINA RESULT:      -8.9      3.665      7.013
REMARK  3 active torsions:
REMARK  status: ('A' for Active; 'I' for Inactive)
REMARK    1  A    between atoms: C_8  and  C_9 
REMARK    2  A    between atoms: C_12  and  C_13 
REMARK    3  A    between atoms: C_24  and  N_25 
ROOT
HETATM    1  C   UNL     1       4.309  27.662  53.628  1.00  0.00     0.073 C 
HETATM    2  C   UNL     1       5.183  26.747  52.854  1.00  0.00     0.062 A 
HETATM    3  N   UNL     1       5.243  26.840  51.514  1.00  0.00    -0.177 NA
HETATM    4  N   UNL     1       6.123  25.884  51.153  1.00  0.00    -0.256 N 
HETATM    5  H   UNL     1       6.329  25.755  50.169  1.00  0.00     0.191 HD
HETATM    6  C   UNL     1       6.615  25.196  52.214  1.00  0.00     0.175 A 
HETATM    7  C   UNL     1       6.038  25.728  53.337  1.00  0.00     0.034 A 
HETATM    8  C   UNL     1       6.367  25.170  54.678  1.00  0.00     0.105 A 
HETATM    9  C   UNL     1       7.344  23.999  54.546  1.00  0.00     0.080 A 
HETATM   10  C   UNL     1       7.687  23.319  55.750  1.00  0.00     0.100 C 
HETATM   11  N   UNL     1       7.972  22.764  56.729  1.00  0.00    -0.191 NA
HETATM   12  C   UNL     1       7.836  23.577  53.347  1.00  0.00     0.140 A 
HETATM   13  O   UNL     1       7.487  24.199  52.135  1.00  0.00    -0.279 OA
ENDROOT
BRANCH   8  14
HETATM   14  C   UNL     1       6.912  26.334  55.493  1.00  0.00    -0.044 A 
HETATM   15  C   UNL     1       7.723  27.295  54.868  1.00  0.00     0.009 A 
HETATM   16  C   UNL     1       8.264  28.359  55.597  1.00  0.00     0.013 A 
HETATM   17  C   UNL     1       8.008  28.505  56.970  1.00  0.00    -0.026 A 
HETATM   18  C   UNL     1       7.178  27.556  57.585  1.00  0.00     0.013 A 
HETATM   19  C   UNL     1       6.635  26.488  56.861  1.00  0.00     0.009 A 
BRANCH  17  20
HETATM   20  C   UNL     1       8.607  29.609  57.741  1.00  0.00    -0.026 A 
HETATM   21  C   UNL     1       7.949  30.160  58.854  1.00  0.00     0.012 A 
HETATM   22  C   UNL     1       8.513  31.217  59.575  1.00  0.00     0.001 A 
HETATM   23  C   UNL     1       9.745  31.742  59.196  1.00  0.00     0.000 A 
HETATM   24  C   UNL     1      10.415  31.210  58.098  1.00  0.00     0.001 A 
HETATM   25  C   UNL     1       9.851  30.154  57.377  1.00  0.00     0.012 A 
ENDBRANCH  17  20
ENDBRANCH   8  14
BRANCH  12  26
HETATM   26  N   UNL     1       8.704  22.523  53.168  1.00  0.00    -0.282 NA
HETATM   27  H   UNL     1       9.636  22.649  53.556  1.00  0.00     0.126 HD
HETATM   28  H   UNL     1       8.712  22.193  52.206  1.00  0.00     0.126 HD
ENDBRANCH  12  26
TORSDOF 3
ENDMDL
MODEL 6
REMARK VINA RESULT:      -8.5      4.592      6.757
REMARK  3 active torsions:
REMARK  status: ('A' for Active; 'I' for Inactive)
REMARK    1  A    between atoms: C_8  and  C_9 
REMARK    2  A    between atoms: C_12  and  C_13 
REMARK    3  A    between atoms: C_24  and  N_25 
ROOT
HETATM    1  C   UNL     1       7.942  27.426  55.184  1.00  0.00     0.073 C 
HETATM    2  C   UNL     1       7.658  26.220  56.000  1.00  0.00     0.062 A 
HETATM    3  N   UNL     1       7.274  26.346  57.282  1.00  0.00    -0.177 NA
HETATM    4  N   UNL     1       7.098  25.077  57.703  1.00  0.00    -0.256 N 
HETATM    5  H   UNL     1       6.810  24.914  58.661  1.00  0.00     0.191 HD
HETATM    6  C   UNL     1       7.355  24.162  56.734  1.00  0.00     0.175 A 
HETATM    7  C   UNL     1       7.715  24.860  55.611  1.00  0.00     0.034 A 
HETATM    8  C   UNL     1       8.079  24.130  54.366  1.00  0.00     0.105 A 
HETATM    9  C   UNL     1       8.005  22.618  54.591  1.00  0.00     0.080 A 
HETATM   10  C   UNL     1       8.403  21.792  53.499  1.00  0.00     0.100 C 
HETATM   11  N   UNL     1       8.724  21.117  52.612  1.00  0.00    -0.191 NA
HETATM   12  C   UNL     1       7.630  22.063  55.778  1.00  0.00     0.140 A 
HETATM   13  O   UNL     1       7.269  22.848  56.888  1.00  0.00    -0.279 OA
ENDROOT
BRANCH   8  14
HETATM   14  C   UNL     1       7.128  24.637  53.291  1.00  0.00    -0.044 A 
HETATM   15  C   UNL     1       7.648  25.268  52.151  1.00  0.00     0.009 A 
HETATM   16  C   UNL     1       6.799  25.772  51.160  1.00  0.00     0.013 A 
HETATM   17  C   UNL     1       5.404  25.657  51.271  1.00  0.00    -0.026 A 
HETATM   18  C   UNL     1       4.889  25.004  52.400  1.00  0.00     0.013 A 
HETATM   19  C   UNL     1       5.735  24.499  53.395  1.00  0.00     0.009 A 
BRANCH  17  20
HETATM   20  C   UNL     1       4.511  26.218  50.241  1.00  0.00    -0.026 A 
HETATM   21  C   UNL     1       3.990  25.414  49.213  1.00  0.00     0.012 A 
HETATM   22  C   UNL     1       3.154  25.953  48.229  1.00  0.00     0.001 A 
HETATM   23  C   UNL     1       2.825  27.305  48.257  1.00  0.00     0.000 A 
HETATM   24  C   UNL     1       3.328  28.119  49.268  1.00  0.00     0.001 A 
HETATM   25  C   UNL     1       4.164  27.580  50.250  1.00  0.00     0.012 A 
ENDBRANCH  17  20
ENDBRANCH   8  14
BRANCH  12  26
HETATM   26  N   UNL     1       7.559  20.713  56.040  1.00  0.00    -0.282 NA
HETATM   27  H   UNL     1       6.967  20.447  56.824  1.00  0.00     0.126 HD
HETATM   28  H   UNL     1       8.479  20.279  56.067  1.00  0.00     0.126 HD
ENDBRANCH  12  26
TORSDOF 3
ENDMDL
MODEL 7
REMARK VINA RESULT:      -8.3      1.195      1.707
REMARK  3 active torsions:
REMARK  status: ('A' for Active; 'I' for Inactive)
REMARK    1  A    between atoms: C_8  and  C_9 
REMARK    2  A    between atoms: C_12  and  C_13 
REMARK    3  A    between atoms: C_24  and  N_25 
ROOT
HETATM    1  C   UNL     1       4.141  29.879  54.287  1.00  0.00     0.073 C 
HETATM    2  C   UNL     1       4.150  30.293  55.711  1.00  0.00     0.062 A 
HETATM    3  N   UNL     1       3.000  30.608  56.332  1.00  0.00    -0.177 NA
HETATM    4  N   UNL     1       3.376  30.921  57.589  1.00  0.00    -0.256 N 
HETATM    5  H   UNL     1       2.666  31.205  58.255  1.00  0.00     0.191 HD
HETATM    6  C   UNL     1       4.714  30.814  57.779  1.00  0.00     0.175 A 
HETATM    7  C   UNL     1       5.255  30.403  56.589  1.00  0.00     0.034 A 
HETATM    8  C   UNL     1       6.726  30.207  56.468  1.00  0.00     0.105 A 
HETATM    9  C   UNL     1       7.423  30.552  57.787  1.00  0.00     0.080 A 
HETATM   10  C   UNL     1       8.846  30.481  57.791  1.00  0.00     0.100 C 
HETATM   11  N   UNL     1      10.005  30.423  57.800  1.00  0.00    -0.191 NA
HETATM   12  C   UNL     1       6.746  30.955  58.898  1.00  0.00     0.140 A 
HETATM   13  O   UNL     1       5.344  31.074  58.918  1.00  0.00    -0.279 OA
ENDROOT
BRANCH   8  14
HETATM   14  C   UNL     1       6.921  28.762  56.031  1.00  0.00    -0.044 A 
HETATM   15  C   UNL     1       7.426  28.489  54.751  1.00  0.00     0.009 A 
HETATM   16  C   UNL     1       7.587  27.171  54.310  1.00  0.00     0.013 A 
HETATM   17  C   UNL     1       7.257  26.083  55.133  1.00  0.00    -0.026 A 
HETATM   18  C   UNL     1       6.775  26.360  56.421  1.00  0.00     0.013 A 
HETATM   19  C   UNL     1       6.611  27.676  56.867  1.00  0.00     0.009 A 
BRANCH  17  20
HETATM   20  C   UNL     1       7.398  24.697  54.652  1.00  0.00    -0.026 A 
HETATM   21  C   UNL     1       7.287  23.606  55.532  1.00  0.00     0.012 A 
HETATM   22  C   UNL     1       7.435  22.293  55.076  1.00  0.00     0.001 A 
HETATM   23  C   UNL     1       7.695  22.047  53.731  1.00  0.00     0.000 A 
HETATM   24  C   UNL     1       7.806  23.112  52.841  1.00  0.00     0.001 A 
HETATM   25  C   UNL     1       7.659  24.424  53.298  1.00  0.00     0.012 A 
ENDBRANCH  17  20
ENDBRANCH   8  14
BRANCH  12  26
HETATM   26  N   UNL     1       7.320  31.290  60.104  1.00  0.00    -0.282 NA
HETATM   27  H   UNL     1       7.848  32.160  60.115  1.00  0.00     0.126 HD
HETATM   28  H   UNL     1       7.825  30.510  60.518  1.00  0.00     0.126 HD
ENDBRANCH  12  26
TORSDOF 3
ENDMDL
MODEL 8
REMARK VINA RESULT:      -8.1      3.538      5.685
REMARK  3 active torsions:
REMARK  status: ('A' for Active; 'I' for Inactive)
REMARK    1  A    between atoms: C_8  and  C_9 
REMARK    2  A    between atoms: C_12  and  C_13 
REMARK    3  A    between atoms: C_24  and  N_25 
ROOT
HETATM    1  C   UNL     1       6.943  23.116  55.024  1.00  0.00     0.073 C 
HETATM    2  C   UNL     1       7.718  24.046  55.881  1.00  0.00     0.062 A 
HETATM    3  N   UNL     1       8.954  23.717  56.294  1.00  0.00    -0.177 NA
HETATM    4  N   UNL     1       9.352  24.774  57.029  1.00  0.00    -0.256 N 
HETATM    5  H   UNL     1      10.270  24.753  57.461  1.00  0.00     0.191 HD
HETATM    6  C   UNL     1       8.415  25.753  57.093  1.00  0.00     0.175 A 
HETATM    7  C   UNL     1       7.341  25.326  56.357  1.00  0.00     0.034 A 
HETATM    8  C   UNL     1       6.128  26.181  56.245  1.00  0.00     0.105 A 
HETATM    9  C   UNL     1       6.304  27.468  57.055  1.00  0.00     0.080 A 
HETATM   10  C   UNL     1       5.184  28.349  57.099  1.00  0.00     0.100 C 
HETATM   11  N   UNL     1       4.276  29.071  57.135  1.00  0.00    -0.191 NA
HETATM   12  C   UNL     1       7.441  27.758  57.747  1.00  0.00     0.140 A 
HETATM   13  O   UNL     1       8.550  26.892  57.758  1.00  0.00    -0.279 OA
ENDROOT
BRANCH   8  14
HETATM   14  C   UNL     1       5.919  26.418  54.755  1.00  0.00    -0.044 A 
HETATM   15  C   UNL     1       6.667  27.409  54.102  1.00  0.00     0.009 A 
HETATM   16  C   UNL     1       6.476  27.670  52.741  1.00  0.00     0.013 A 
HETATM   17  C   UNL     1       5.539  26.948  51.986  1.00  0.00    -0.026 A 
HETATM   18  C   UNL     1       4.810  25.942  52.638  1.00  0.00     0.013 A 
HETATM   19  C   UNL     1       4.996  25.676  53.999  1.00  0.00     0.009 A 
BRANCH  17  20
HETATM   20  C   UNL     1       5.317  27.248  50.560  1.00  0.00    -0.026 A 
HETATM   21  C   UNL     1       4.776  26.287  49.689  1.00  0.00     0.012 A 
HETATM   22  C   UNL     1       4.580  26.571  48.334  1.00  0.00     0.001 A 
HETATM   23  C   UNL     1       4.921  27.822  47.826  1.00  0.00     0.000 A 
HETATM   24  C   UNL     1       5.456  28.789  48.672  1.00  0.00     0.001 A 
HETATM   25  C   UNL     1       5.652  28.505  50.026  1.00  0.00     0.012 A 
ENDBRANCH  17  20
ENDBRANCH   8  14
BRANCH  12  26
HETATM   26  N   UNL     1       7.648  28.891  58.502  1.00  0.00    -0.282 NA
HETATM   27  H   UNL     1       6.812  29.323  58.888  1.00  0.00     0.126 HD
HETATM   28  H   UNL     1       8.263  29.554  58.036  1.00  0.00     0.126 HD
ENDBRANCH  12  26
TORSDOF 3
ENDMDL
MODEL 9
REMARK VINA RESULT:      -8.0      5.890     10.752
REMARK  3 active torsions:
REMARK  status: ('A' for Active; 'I' for Inactive)
REMARK    1  A    between atoms: C_8  and  C_9 
REMARK    2  A    between atoms: C_12  and  C_13 
REMARK    3  A    between atoms: C_24  and  N_25 
ROOT
HETATM    1  C   UNL     1       9.123  32.331  60.346  1.00  0.00     0.073 C 
HETATM    2  C   UNL     1       8.194  31.438  59.611  1.00  0.00     0.062 A 
HETATM    3  N   UNL     1       8.604  30.226  59.200  1.00  0.00    -0.177 NA
HETATM    4  N   UNL     1       7.523  29.699  58.590  1.00  0.00    -0.256 N 
HETATM    5  H   UNL     1       7.594  28.773  58.183  1.00  0.00     0.191 HD
HETATM    6  C   UNL     1       6.453  30.532  58.604  1.00  0.00     0.175 A 
HETATM    7  C   UNL     1       6.842  31.669  59.263  1.00  0.00     0.034 A 
HETATM    8  C   UNL     1       5.883  32.796  59.431  1.00  0.00     0.105 A 
HETATM    9  C   UNL     1       4.546  32.466  58.765  1.00  0.00     0.080 A 
HETATM   10  C   UNL     1       3.556  33.491  58.784  1.00  0.00     0.100 C 
HETATM   11  N   UNL     1       2.746  34.322  58.799  1.00  0.00    -0.191 NA
HETATM   12  C   UNL     1       4.304  31.281  58.137  1.00  0.00     0.140 A 
HETATM   13  O   UNL     1       5.272  30.262  58.065  1.00  0.00    -0.279 OA
ENDROOT
BRANCH   8  14
HETATM   14  C   UNL     1       5.779  33.036  60.931  1.00  0.00    -0.044 A 
HETATM   15  C   UNL     1       6.134  34.288  61.457  1.00  0.00     0.009 A 
HETATM   16  C   UNL     1       6.078  34.528  62.833  1.00  0.00     0.013 A 
HETATM   17  C   UNL     1       5.660  33.532  63.730  1.00  0.00    -0.026 A 
HETATM   18  C   UNL     1       5.284  32.290  63.197  1.00  0.00     0.013 A 
HETATM   19  C   UNL     1       5.339  32.043  61.821  1.00  0.00     0.009 A 
BRANCH  17  20
HETATM   20  C   UNL     1       5.634  33.779  65.183  1.00  0.00    -0.026 A 
HETATM   21  C   UNL     1       4.419  33.915  65.876  1.00  0.00     0.012 A 
HETATM   22  C   UNL     1       4.398  34.164  67.252  1.00  0.00     0.001 A 
HETATM   23  C   UNL     1       5.592  34.280  67.959  1.00  0.00     0.000 A 
HETATM   24  C   UNL     1       6.806  34.146  67.292  1.00  0.00     0.001 A 
HETATM   25  C   UNL     1       6.827  33.898  65.917  1.00  0.00     0.012 A 
ENDBRANCH  17  20
ENDBRANCH   8  14
BRANCH  12  26
HETATM   26  N   UNL     1       3.127  30.935  57.511  1.00  0.00    -0.282 NA
HETATM   27  H   UNL     1       3.024  29.950  57.279  1.00  0.00     0.126 HD
HETATM   28  H   UNL     1       2.911  31.555  56.733  1.00  0.00     0.126 HD
ENDBRANCH  12  26
TORSDOF 3
ENDMDL
MODEL 10
REMARK VINA RESULT:      -7.9      4.480      8.734
REMARK  3 active torsions:
REMARK  status: ('A' for Active; 'I' for Inactive)
REMARK    1  A    between atoms: C_8  and  C_9 
REMARK    2  A    between atoms: C_12  and  C_13 
REMARK    3  A    between atoms: C_24  and  N_25 
ROOT
HETATM    1  C   UNL     1       7.437  28.261  57.858  1.00  0.00     0.073 C 
HETATM    2  C   UNL     1       6.104  28.338  57.213  1.00  0.00     0.062 A 
HETATM    3  N   UNL     1       5.357  27.230  57.066  1.00  0.00    -0.177 NA
HETATM    4  N   UNL     1       4.232  27.663  56.463  1.00  0.00    -0.256 N 
HETATM    5  H   UNL     1       3.507  26.991  56.238  1.00  0.00     0.191 HD
HETATM    6  C   UNL     1       4.245  28.999  56.227  1.00  0.00     0.175 A 
HETATM    7  C   UNL     1       5.437  29.478  56.703  1.00  0.00     0.034 A 
HETATM    8  C   UNL     1       5.762  30.925  56.575  1.00  0.00     0.105 A 
HETATM    9  C   UNL     1       4.632  31.667  55.857  1.00  0.00     0.080 A 
HETATM   10  C   UNL     1       4.844  33.052  55.598  1.00  0.00     0.100 C 
HETATM   11  N   UNL     1       5.012  34.181  55.388  1.00  0.00    -0.191 NA
HETATM   12  C   UNL     1       3.494  31.050  55.433  1.00  0.00     0.140 A 
HETATM   13  O   UNL     1       3.268  29.676  55.637  1.00  0.00    -0.279 OA
ENDROOT
BRANCH   8  14
HETATM   14  C   UNL     1       6.020  31.422  57.991  1.00  0.00    -0.044 A 
HETATM   15  C   UNL     1       4.935  31.790  58.801  1.00  0.00     0.009 A 
HETATM   16  C   UNL     1       5.142  32.280  60.096  1.00  0.00     0.013 A 
HETATM   17  C   UNL     1       6.435  32.411  60.626  1.00  0.00    -0.026 A 
HETATM   18  C   UNL     1       7.514  32.019  59.821  1.00  0.00     0.013 A 
HETATM   19  C   UNL     1       7.314  31.530  58.525  1.00  0.00     0.009 A 
BRANCH  17  20
HETATM   20  C   UNL     1       6.650  32.957  61.978  1.00  0.00    -0.026 A 
HETATM   21  C   UNL     1       5.878  34.028  62.462  1.00  0.00     0.012 A 
HETATM   22  C   UNL     1       6.094  34.553  63.740  1.00  0.00     0.001 A 
HETATM   23  C   UNL     1       7.086  34.017  64.556  1.00  0.00     0.000 A 
HETATM   24  C   UNL     1       7.860  32.955  64.098  1.00  0.00     0.001 A 
HETATM   25  C   UNL     1       7.645  32.431  62.820  1.00  0.00     0.012 A 
ENDBRANCH  17  20
ENDBRANCH   8  14
BRANCH  12  26
HETATM   26  N   UNL     1       2.453  31.663  54.772  1.00  0.00    -0.282 NA
HETATM   27  H   UNL     1       2.122  32.533  55.182  1.00  0.00     0.126 HD
HETATM   28  H   UNL     1       1.702  31.012  54.553  1.00  0.00     0.126 HD
ENDBRANCH  12  26
TORSDOF 3
ENDMDL
