MODEL 1
REMARK VINA RESULT:      -9.0      0.000      0.000
REMARK  5 active torsions:
REMARK  status: ('A' for Active; 'I' for Inactive)
REMARK    1  A    between atoms: C_11  and  N_12 
REMARK       I    between atoms: N_12  and  C_13 
REMARK       I    between atoms: C_13  and  N_14 
REMARK    2  A    between atoms: N_14  and  C_15 
REMARK    3  A    between atoms: C_15  and  C_16 
REMARK    4  A    between atoms: C_16  and  N_17 
REMARK    5  A    between atoms: C_16  and  C_21 
ROOT
HETATM    1  N   UNL     1       5.096  26.832  56.198  1.00  0.00    -0.309 N 
HETATM    2  C   UNL     1       5.561  28.048  56.578  1.00  0.00     0.320 C 
HETATM    3  N   UNL     1       6.855  28.357  56.328  1.00  0.00    -0.341 N 
HETATM    4  O   UNL     1       4.816  28.841  57.156  1.00  0.00    -0.247 OA
HETATM    5  H   UNL     1       4.168  26.657  56.572  1.00  0.00     0.170 HD
HETATM    6  H   UNL     1       7.458  27.543  56.353  1.00  0.00     0.164 HD
ENDROOT
BRANCH   1   7
HETATM    7  C   UNL     1       5.622  25.799  55.395  1.00  0.00     0.038 A 
HETATM    8  C   UNL     1       5.459  25.691  54.018  1.00  0.00     0.032 A 
HETATM    9  C   UNL     1       6.065  24.638  53.321  1.00  0.00     0.036 A 
HETATM   10  C   UNL     1       6.805  23.664  53.974  1.00  0.00     0.086 A 
HETATM   11  N   UNL     1       7.383  22.677  53.268  1.00  0.00    -0.250 NA
HETATM   12  C   UNL     1       6.923  23.730  55.377  1.00  0.00     0.088 A 
HETATM   13  C   UNL     1       8.075  21.739  53.964  1.00  0.00     0.055 A 
HETATM   14  C   UNL     1       8.725  20.654  53.158  1.00  0.00     0.072 C 
HETATM   15  C   UNL     1       8.168  21.787  55.355  1.00  0.00     0.055 A 
HETATM   16  N   UNL     1       7.598  22.794  56.066  1.00  0.00    -0.250 NA
HETATM   17  C   UNL     1       8.896  20.741  56.142  1.00  0.00     0.072 C 
HETATM   18  C   UNL     1       6.333  24.790  56.058  1.00  0.00     0.063 A 
ENDBRANCH   1   7
BRANCH   3  19
HETATM   19  C   UNL     1       7.511  29.609  56.711  1.00  0.00     0.163 C 
BRANCH  19  20
HETATM   20  C   UNL     1       8.548  29.551  57.887  1.00  0.00     0.244 C 
BRANCH  20  21
HETATM   21  N   UNL     1       9.970  29.878  57.415  1.00  0.00    -0.068 N 
HETATM   22  H   UNL     1      10.554  29.196  57.943  1.00  0.00     0.279 HD
HETATM   23  C   UNL     1      10.280  29.657  55.971  1.00  0.00     0.270 C 
HETATM   24  C   UNL     1      10.449  31.221  57.882  1.00  0.00     0.270 C 
ENDBRANCH  20  21
BRANCH  20  25
HETATM   25  C   UNL     1       8.104  30.397  59.059  1.00  0.00     0.015 A 
HETATM   26  S   UNL     1       6.826  31.529  58.840  1.00  0.00    -0.104 SA
HETATM   27  C   UNL     1       6.907  32.046  60.463  1.00  0.00     0.050 A 
HETATM   28  C   UNL     1       7.892  31.388  61.164  1.00  0.00     0.008 A 
HETATM   29  C   UNL     1       8.586  30.440  60.356  1.00  0.00     0.017 A 
ENDBRANCH  20  25
ENDBRANCH  19  20
ENDBRANCH   3  19
TORSDOF 5
ENDMDL
MODEL 2
REMARK VINA RESULT:      -8.6      2.876      8.695
REMARK  5 active torsions:
REMARK  status: ('A' for Active; 'I' for Inactive)
REMARK    1  A    between atoms: C_11  and  N_12 
REMARK       I    between atoms: N_12  and  C_13 
REMARK       I    between atoms: C_13  and  N_14 
REMARK    2  A    between atoms: N_14  and  C_15 
REMARK    3  A    between atoms: C_15  and  C_16 
REMARK    4  A    between atoms: C_16  and  N_17 
REMARK    5  A    between atoms: C_16  and  C_21 
ROOT
HETATM    1  N   UNL     1       7.371  28.816  54.638  1.00  0.00    -0.309 N 
HETATM    2  C   UNL     1       7.098  27.576  54.162  1.00  0.00     0.320 C 
HETATM    3  N   UNL     1       7.699  26.510  54.740  1.00  0.00    -0.341 N 
HETATM    4  O   UNL     1       6.330  27.437  53.209  1.00  0.00    -0.247 OA
HETATM    5  H   UNL     1       6.988  29.538  54.034  1.00  0.00     0.170 HD
HETATM    6  H   UNL     1       8.620  26.734  55.098  1.00  0.00     0.164 HD
ENDROOT
BRANCH   1   7
HETATM    7  C   UNL     1       8.046  29.290  55.781  1.00  0.00     0.038 A 
HETATM    8  C   UNL     1       9.416  29.196  56.002  1.00  0.00     0.032 A 
HETATM    9  C   UNL     1       9.979  29.742  57.163  1.00  0.00     0.036 A 
HETATM   10  C   UNL     1       9.197  30.353  58.132  1.00  0.00     0.086 A 
HETATM   11  N   UNL     1       9.776  30.878  59.225  1.00  0.00    -0.250 NA
HETATM   12  C   UNL     1       7.801  30.397  57.947  1.00  0.00     0.088 A 
HETATM   13  C   UNL     1       8.959  31.442  60.151  1.00  0.00     0.055 A 
HETATM   14  C   UNL     1       9.623  32.035  61.357  1.00  0.00     0.072 C 
HETATM   15  C   UNL     1       7.574  31.461  59.983  1.00  0.00     0.055 A 
HETATM   16  N   UNL     1       6.991  30.945  58.870  1.00  0.00    -0.250 NA
HETATM   17  C   UNL     1       6.654  32.046  61.010  1.00  0.00     0.072 C 
HETATM   18  C   UNL     1       7.254  29.869  56.783  1.00  0.00     0.063 A 
ENDBRANCH   1   7
BRANCH   3  19
HETATM   19  C   UNL     1       7.536  25.118  54.314  1.00  0.00     0.163 C 
BRANCH  19  20
HETATM   20  C   UNL     1       8.317  24.021  55.117  1.00  0.00     0.244 C 
BRANCH  20  21
HETATM   21  N   UNL     1       7.871  23.955  56.583  1.00  0.00    -0.068 N 
HETATM   22  H   UNL     1       7.779  22.932  56.754  1.00  0.00     0.279 HD
HETATM   23  C   UNL     1       8.826  24.463  57.613  1.00  0.00     0.270 C 
HETATM   24  C   UNL     1       6.488  24.496  56.799  1.00  0.00     0.270 C 
ENDBRANCH  20  21
BRANCH  20  25
HETATM   25  C   UNL     1       8.262  22.679  54.421  1.00  0.00     0.015 A 
HETATM   26  S   UNL     1       8.823  21.280  55.252  1.00  0.00    -0.104 SA
HETATM   27  C   UNL     1       8.469  20.263  53.930  1.00  0.00     0.050 A 
HETATM   28  C   UNL     1       7.946  20.964  52.867  1.00  0.00     0.008 A 
HETATM   29  C   UNL     1       7.830  22.357  53.146  1.00  0.00     0.017 A 
ENDBRANCH  20  25
ENDBRANCH  19  20
ENDBRANCH   3  19
TORSDOF 5
ENDMDL
MODEL 3
REMARK VINA RESULT:      -8.5      1.126      2.049
REMARK  5 active torsions:
REMARK  status: ('A' for Active; 'I' for Inactive)
REMARK    1  A    between atoms: C_11  and  N_12 
REMARK       I    between atoms: N_12  and  C_13 
REMARK       I    between atoms: C_13  and  N_14 
REMARK    2  A    between atoms: N_14  and  C_15 
REMARK    3  A    between atoms: C_15  and  C_16 
REMARK    4  A    between atoms: C_16  and  N_17 
REMARK    5  A    between atoms: C_16  and  C_21 
ROOT
HETATM    1  N   UNL     1       6.136  27.093  55.574  1.00  0.00    -0.309 N 
HETATM    2  C   UNL     1       6.261  28.327  56.121  1.00  0.00     0.320 C 
HETATM    3  N   UNL     1       6.955  28.461  57.275  1.00  0.00    -0.341 N 
HETATM    4  O   UNL     1       5.732  29.298  55.578  1.00  0.00    -0.247 OA
HETATM    5  H   UNL     1       5.473  27.093  54.804  1.00  0.00     0.170 HD
HETATM    6  H   UNL     1       6.885  27.640  57.865  1.00  0.00     0.164 HD
ENDROOT
BRANCH   1   7
HETATM    7  C   UNL     1       6.741  25.847  55.842  1.00  0.00     0.038 A 
HETATM    8  C   UNL     1       7.310  25.474  57.056  1.00  0.00     0.032 A 
HETATM    9  C   UNL     1       7.845  24.190  57.213  1.00  0.00     0.036 A 
HETATM   10  C   UNL     1       7.859  23.274  56.172  1.00  0.00     0.086 A 
HETATM   11  N   UNL     1       8.368  22.046  56.368  1.00  0.00    -0.250 NA
HETATM   12  C   UNL     1       7.341  23.664  54.920  1.00  0.00     0.088 A 
HETATM   13  C   UNL     1       8.377  21.200  55.306  1.00  0.00     0.055 A 
HETATM   14  C   UNL     1       8.937  19.830  55.547  1.00  0.00     0.072 C 
HETATM   15  C   UNL     1       7.892  21.595  54.059  1.00  0.00     0.055 A 
HETATM   16  N   UNL     1       7.361  22.831  53.866  1.00  0.00    -0.250 NA
HETATM   17  C   UNL     1       7.926  20.689  52.867  1.00  0.00     0.072 C 
HETATM   18  C   UNL     1       6.795  24.935  54.779  1.00  0.00     0.063 A 
ENDBRANCH   1   7
BRANCH   3  19
HETATM   19  C   UNL     1       7.143  29.717  58.004  1.00  0.00     0.163 C 
BRANCH  19  20
HETATM   20  C   UNL     1       8.522  29.940  58.716  1.00  0.00     0.244 C 
BRANCH  20  21
HETATM   21  N   UNL     1       9.582  30.492  57.755  1.00  0.00    -0.068 N 
HETATM   22  H   UNL     1       9.011  30.893  56.982  1.00  0.00     0.279 HD
HETATM   23  C   UNL     1      10.443  31.607  58.253  1.00  0.00     0.270 C 
HETATM   24  C   UNL     1      10.397  29.417  57.100  1.00  0.00     0.270 C 
ENDBRANCH  20  21
BRANCH  20  25
HETATM   25  C   UNL     1       8.371  30.771  59.971  1.00  0.00     0.015 A 
HETATM   26  S   UNL     1       7.222  32.052  59.994  1.00  0.00    -0.104 SA
HETATM   27  C   UNL     1       7.614  32.473  61.599  1.00  0.00     0.050 A 
HETATM   28  C   UNL     1       8.607  31.671  62.114  1.00  0.00     0.008 A 
HETATM   29  C   UNL     1       9.047  30.692  61.176  1.00  0.00     0.017 A 
ENDBRANCH  20  25
ENDBRANCH  19  20
ENDBRANCH   3  19
TORSDOF 5
ENDMDL
MODEL 4
REMARK VINA RESULT:      -8.3      2.191      3.597
REMARK  5 active torsions:
REMARK  status: ('A' for Active; 'I' for Inactive)
REMARK    1  A    between atoms: C_11  and  N_12 
REMARK       I    between atoms: N_12  and  C_13 
REMARK       I    between atoms: C_13  and  N_14 
REMARK    2  A    between atoms: N_14  and  C_15 
REMARK    3  A    between atoms: C_15  and  C_16 
REMARK    4  A    between atoms: C_16  and  N_17 
REMARK    5  A    between atoms: C_16  and  C_21 
ROOT
HETATM    1  N   UNL     1       3.961  29.404  57.128  1.00  0.00    -0.309 N 
HETATM    2  C   UNL     1       4.411  30.378  57.957  1.00  0.00     0.320 C 
HETATM    3  N   UNL     1       5.742  30.622  58.011  1.00  0.00    -0.341 N 
HETATM    4  O   UNL     1       3.618  31.009  58.655  1.00  0.00    -0.247 OA
HETATM    5  H   UNL     1       2.976  29.209  57.286  1.00  0.00     0.170 HD
HETATM    6  H   UNL     1       6.294  29.789  57.845  1.00  0.00     0.164 HD
ENDROOT
BRANCH   1   7
HETATM    7  C   UNL     1       4.565  28.641  56.108  1.00  0.00     0.038 A 
HETATM    8  C   UNL     1       4.679  29.028  54.776  1.00  0.00     0.032 A 
HETATM    9  C   UNL     1       5.338  28.200  53.859  1.00  0.00     0.036 A 
HETATM   10  C   UNL     1       5.859  26.970  54.233  1.00  0.00     0.086 A 
HETATM   11  N   UNL     1       6.498  26.211  53.327  1.00  0.00    -0.250 NA
HETATM   12  C   UNL     1       5.693  26.542  55.566  1.00  0.00     0.088 A 
HETATM   13  C   UNL     1       6.966  25.007  53.745  1.00  0.00     0.055 A 
HETATM   14  C   UNL     1       7.688  24.179  52.724  1.00  0.00     0.072 C 
HETATM   15  C   UNL     1       6.776  24.569  55.055  1.00  0.00     0.055 A 
HETATM   16  N   UNL     1       6.146  25.344  55.975  1.00  0.00    -0.250 NA
HETATM   17  C   UNL     1       7.254  23.228  55.525  1.00  0.00     0.072 C 
HETATM   18  C   UNL     1       5.053  27.379  56.473  1.00  0.00     0.063 A 
ENDBRANCH   1   7
BRANCH   3  19
HETATM   19  C   UNL     1       6.382  31.611  58.882  1.00  0.00     0.163 C 
BRANCH  19  20
HETATM   20  C   UNL     1       7.826  31.288  59.401  1.00  0.00     0.244 C 
BRANCH  20  21
HETATM   21  N   UNL     1       7.819  30.815  60.860  1.00  0.00    -0.068 N 
HETATM   22  H   UNL     1       7.296  29.915  60.812  1.00  0.00     0.279 HD
HETATM   23  C   UNL     1       9.138  30.493  61.482  1.00  0.00     0.270 C 
HETATM   24  C   UNL     1       6.985  31.684  61.755  1.00  0.00     0.270 C 
ENDBRANCH  20  21
BRANCH  20  25
HETATM   25  C   UNL     1       8.549  30.337  58.474  1.00  0.00     0.015 A 
HETATM   26  S   UNL     1      10.064  30.809  57.805  1.00  0.00    -0.104 SA
HETATM   27  C   UNL     1      10.224  29.344  56.947  1.00  0.00     0.050 A 
HETATM   28  C   UNL     1       9.147  28.510  57.146  1.00  0.00     0.008 A 
HETATM   29  C   UNL     1       8.179  29.083  58.023  1.00  0.00     0.017 A 
ENDBRANCH  20  25
ENDBRANCH  19  20
ENDBRANCH   3  19
TORSDOF 5
ENDMDL
MODEL 5
REMARK VINA RESULT:      -8.2      2.759      4.680
REMARK  5 active torsions:
REMARK  status: ('A' for Active; 'I' for Inactive)
REMARK    1  A    between atoms: C_11  and  N_12 
REMARK       I    between atoms: N_12  and  C_13 
REMARK       I    between atoms: C_13  and  N_14 
REMARK    2  A    between atoms: N_14  and  C_15 
REMARK    3  A    between atoms: C_15  and  C_16 
REMARK    4  A    between atoms: C_16  and  N_17 
REMARK    5  A    between atoms: C_16  and  C_21 
ROOT
HETATM    1  N   UNL     1       5.977  31.010  57.237  1.00  0.00    -0.309 N 
HETATM    2  C   UNL     1       6.026  31.901  58.258  1.00  0.00     0.320 C 
HETATM    3  N   UNL     1       6.391  31.462  59.486  1.00  0.00    -0.341 N 
HETATM    4  O   UNL     1       5.724  33.079  58.065  1.00  0.00    -0.247 OA
HETATM    5  H   UNL     1       5.547  31.417  56.411  1.00  0.00     0.170 HD
HETATM    6  H   UNL     1       6.113  30.502  59.652  1.00  0.00     0.164 HD
ENDROOT
BRANCH   1   7
HETATM    7  C   UNL     1       6.409  29.676  57.090  1.00  0.00     0.038 A 
HETATM    8  C   UNL     1       7.390  29.060  57.861  1.00  0.00     0.032 A 
HETATM    9  C   UNL     1       7.706  27.712  57.647  1.00  0.00     0.036 A 
HETATM   10  C   UNL     1       7.086  26.969  56.653  1.00  0.00     0.086 A 
HETATM   11  N   UNL     1       7.406  25.674  56.489  1.00  0.00    -0.250 NA
HETATM   12  C   UNL     1       6.136  27.602  55.827  1.00  0.00     0.088 A 
HETATM   13  C   UNL     1       6.785  25.003  55.486  1.00  0.00     0.055 A 
HETATM   14  C   UNL     1       7.144  23.556  55.327  1.00  0.00     0.072 C 
HETATM   15  C   UNL     1       5.866  25.636  54.648  1.00  0.00     0.055 A 
HETATM   16  N   UNL     1       5.531  26.940  54.825  1.00  0.00    -0.250 NA
HETATM   17  C   UNL     1       5.199  24.922  53.513  1.00  0.00     0.072 C 
HETATM   18  C   UNL     1       5.817  28.935  56.059  1.00  0.00     0.063 A 
ENDBRANCH   1   7
BRANCH   3  19
HETATM   19  C   UNL     1       6.452  32.292  60.692  1.00  0.00     0.163 C 
BRANCH  19  20
HETATM   20  C   UNL     1       7.255  31.728  61.916  1.00  0.00     0.244 C 
BRANCH  20  21
HETATM   21  N   UNL     1       8.761  31.663  61.634  1.00  0.00    -0.068 N 
HETATM   22  H   UNL     1       9.166  32.261  62.385  1.00  0.00     0.279 HD
HETATM   23  C   UNL     1       9.424  30.331  61.763  1.00  0.00     0.270 C 
HETATM   24  C   UNL     1       9.149  32.351  60.359  1.00  0.00     0.270 C 
ENDBRANCH  20  21
BRANCH  20  25
HETATM   25  C   UNL     1       6.923  32.475  63.189  1.00  0.00     0.015 A 
HETATM   26  S   UNL     1       5.273  32.761  63.586  1.00  0.00    -0.104 SA
HETATM   27  C   UNL     1       5.685  33.581  65.023  1.00  0.00     0.050 A 
HETATM   28  C   UNL     1       7.047  33.655  65.201  1.00  0.00     0.008 A 
HETATM   29  C   UNL     1       7.763  33.021  64.143  1.00  0.00     0.017 A 
ENDBRANCH  20  25
ENDBRANCH  19  20
ENDBRANCH   3  19
TORSDOF 5
ENDMDL
MODEL 6
REMARK VINA RESULT:      -8.2      3.630      5.878
REMARK  5 active torsions:
REMARK  status: ('A' for Active; 'I' for Inactive)
REMARK    1  A    between atoms: C_11  and  N_12 
REMARK       I    between atoms: N_12  and  C_13 
REMARK       I    between atoms: C_13  and  N_14 
REMARK    2  A    between atoms: N_14  and  C_15 
REMARK    3  A    between atoms: C_15  and  C_16 
REMARK    4  A    between atoms: C_16  and  N_17 
REMARK    5  A    between atoms: C_16  and  C_21 
ROOT
HETATM    1  N   UNL     1       7.954  31.434  58.763  1.00  0.00    -0.309 N 
HETATM    2  C   UNL     1       7.916  31.893  60.037  1.00  0.00     0.320 C 
HETATM    3  N   UNL     1       7.037  31.337  60.904  1.00  0.00    -0.341 N 
HETATM    4  O   UNL     1       8.659  32.812  60.385  1.00  0.00    -0.247 OA
HETATM    5  H   UNL     1       8.535  32.023  58.173  1.00  0.00     0.170 HD
HETATM    6  H   UNL     1       6.192  31.018  60.444  1.00  0.00     0.164 HD
ENDROOT
BRANCH   1   7
HETATM    7  C   UNL     1       7.380  30.321  58.114  1.00  0.00     0.038 A 
HETATM    8  C   UNL     1       6.145  30.314  57.473  1.00  0.00     0.032 A 
HETATM    9  C   UNL     1       5.697  29.155  56.826  1.00  0.00     0.036 A 
HETATM   10  C   UNL     1       6.441  27.985  56.834  1.00  0.00     0.086 A 
HETATM   11  N   UNL     1       5.983  26.898  56.189  1.00  0.00    -0.250 NA
HETATM   12  C   UNL     1       7.664  27.964  57.533  1.00  0.00     0.088 A 
HETATM   13  C   UNL     1       6.742  25.774  56.250  1.00  0.00     0.055 A 
HETATM   14  C   UNL     1       6.223  24.576  55.513  1.00  0.00     0.072 C 
HETATM   15  C   UNL     1       7.939  25.744  56.967  1.00  0.00     0.055 A 
HETATM   16  N   UNL     1       8.409  26.847  57.604  1.00  0.00    -0.250 NA
HETATM   17  C   UNL     1       8.771  24.503  57.076  1.00  0.00     0.072 C 
HETATM   18  C   UNL     1       8.108  29.125  58.156  1.00  0.00     0.063 A 
ENDBRANCH   1   7
BRANCH   3  19
HETATM   19  C   UNL     1       6.851  31.750  62.297  1.00  0.00     0.163 C 
BRANCH  19  20
HETATM   20  C   UNL     1       6.204  33.155  62.553  1.00  0.00     0.244 C 
BRANCH  20  21
HETATM   21  N   UNL     1       4.808  33.266  61.931  1.00  0.00    -0.068 N 
HETATM   22  H   UNL     1       4.287  33.845  62.624  1.00  0.00     0.279 HD
HETATM   23  C   UNL     1       4.694  33.984  60.626  1.00  0.00     0.270 C 
HETATM   24  C   UNL     1       4.070  31.960  61.907  1.00  0.00     0.270 C 
ENDBRANCH  20  21
BRANCH  20  25
HETATM   25  C   UNL     1       6.229  33.517  64.021  1.00  0.00     0.015 A 
HETATM   26  S   UNL     1       4.755  33.935  64.806  1.00  0.00    -0.104 SA
HETATM   27  C   UNL     1       5.537  34.192  66.299  1.00  0.00     0.050 A 
HETATM   28  C   UNL     1       6.894  33.981  66.213  1.00  0.00     0.008 A 
HETATM   29  C   UNL     1       7.296  33.595  64.899  1.00  0.00     0.017 A 
ENDBRANCH  20  25
ENDBRANCH  19  20
ENDBRANCH   3  19
TORSDOF 5
ENDMDL
MODEL 7
REMARK VINA RESULT:      -8.2      2.634      8.758
REMARK  5 active torsions:
REMARK  status: ('A' for Active; 'I' for Inactive)
REMARK    1  A    between atoms: C_11  and  N_12 
REMARK       I    between atoms: N_12  and  C_13 
REMARK       I    between atoms: C_13  and  N_14 
REMARK    2  A    between atoms: N_14  and  C_15 
REMARK    3  A    between atoms: C_15  and  C_16 
REMARK    4  A    between atoms: C_16  and  N_17 
REMARK    5  A    between atoms: C_16  and  C_21 
ROOT
HETATM    1  N   UNL     1       6.435  29.330  55.184  1.00  0.00    -0.309 N 
HETATM    2  C   UNL     1       6.487  28.310  54.293  1.00  0.00     0.320 C 
HETATM    3  N   UNL     1       7.517  27.434  54.365  1.00  0.00    -0.341 N 
HETATM    4  O   UNL     1       5.618  28.201  53.427  1.00  0.00    -0.247 OA
HETATM    5  H   UNL     1       5.712  30.001  54.938  1.00  0.00     0.170 HD
HETATM    6  H   UNL     1       8.368  27.867  54.705  1.00  0.00     0.164 HD
ENDROOT
BRANCH   1   7
HETATM    7  C   UNL     1       7.150  29.628  56.362  1.00  0.00     0.038 A 
HETATM    8  C   UNL     1       8.417  29.146  56.676  1.00  0.00     0.032 A 
HETATM    9  C   UNL     1       9.045  29.547  57.862  1.00  0.00     0.036 A 
HETATM   10  C   UNL     1       8.422  30.395  58.765  1.00  0.00     0.086 A 
HETATM   11  N   UNL     1       9.065  30.768  59.884  1.00  0.00    -0.250 NA
HETATM   12  C   UNL     1       7.114  30.838  58.485  1.00  0.00     0.088 A 
HETATM   13  C   UNL     1       8.396  31.580  60.743  1.00  0.00     0.055 A 
HETATM   14  C   UNL     1       9.133  31.997  61.980  1.00  0.00     0.072 C 
HETATM   15  C   UNL     1       7.090  31.996  60.482  1.00  0.00     0.055 A 
HETATM   16  N   UNL     1       6.448  31.632  59.341  1.00  0.00    -0.250 NA
HETATM   17  C   UNL     1       6.323  32.862  61.434  1.00  0.00     0.072 C 
HETATM   18  C   UNL     1       6.506  30.449  57.297  1.00  0.00     0.063 A 
ENDBRANCH   1   7
BRANCH   3  19
HETATM   19  C   UNL     1       7.731  26.309  53.453  1.00  0.00     0.163 C 
BRANCH  19  20
HETATM   20  C   UNL     1       6.871  25.018  53.684  1.00  0.00     0.244 C 
BRANCH  20  21
HETATM   21  N   UNL     1       5.841  24.807  52.568  1.00  0.00    -0.068 N 
HETATM   22  H   UNL     1       6.022  23.828  52.263  1.00  0.00     0.279 HD
HETATM   23  C   UNL     1       4.398  24.861  52.949  1.00  0.00     0.270 C 
HETATM   24  C   UNL     1       6.120  25.635  51.348  1.00  0.00     0.270 C 
ENDBRANCH  20  21
BRANCH  20  25
HETATM   25  C   UNL     1       7.743  23.805  53.921  1.00  0.00     0.015 A 
HETATM   26  S   UNL     1       8.475  23.588  55.463  1.00  0.00    -0.104 SA
HETATM   27  C   UNL     1       9.230  22.137  54.982  1.00  0.00     0.050 A 
HETATM   28  C   UNL     1       8.950  21.820  53.673  1.00  0.00     0.008 A 
HETATM   29  C   UNL     1       8.096  22.783  53.057  1.00  0.00     0.017 A 
ENDBRANCH  20  25
ENDBRANCH  19  20
ENDBRANCH   3  19
TORSDOF 5
ENDMDL
MODEL 8
REMARK VINA RESULT:      -8.2      4.598      6.707
REMARK  5 active torsions:
REMARK  status: ('A' for Active; 'I' for Inactive)
REMARK    1  A    between atoms: C_11  and  N_12 
REMARK       I    between atoms: N_12  and  C_13 
REMARK       I    between atoms: C_13  and  N_14 
REMARK    2  A    between atoms: N_14  and  C_15 
REMARK    3  A    between atoms: C_15  and  C_16 
REMARK    4  A    between atoms: C_16  and  N_17 
REMARK    5  A    between atoms: C_16  and  C_21 
ROOT
HETATM    1  N   UNL     1       6.298  27.504  54.242  1.00  0.00    -0.309 N 
HETATM    2  C   UNL     1       5.216  28.271  53.962  1.00  0.00     0.320 C 
HETATM    3  N   UNL     1       4.436  27.935  52.908  1.00  0.00    -0.341 N 
HETATM    4  O   UNL     1       4.966  29.261  54.650  1.00  0.00    -0.247 OA
HETATM    5  H   UNL     1       6.886  27.937  54.950  1.00  0.00     0.170 HD
HETATM    6  H   UNL     1       4.964  27.495  52.163  1.00  0.00     0.164 HD
ENDROOT
BRANCH   1   7
HETATM    7  C   UNL     1       6.750  26.253  53.775  1.00  0.00     0.038 A 
HETATM    8  C   UNL     1       7.128  25.974  52.465  1.00  0.00     0.032 A 
HETATM    9  C   UNL     1       7.599  24.699  52.128  1.00  0.00     0.036 A 
HETATM   10  C   UNL     1       7.671  23.679  53.065  1.00  0.00     0.086 A 
HETATM   11  N   UNL     1       8.144  22.473  52.706  1.00  0.00    -0.250 NA
HETATM   12  C   UNL     1       7.231  23.934  54.379  1.00  0.00     0.088 A 
HETATM   13  C   UNL     1       8.168  21.506  53.659  1.00  0.00     0.055 A 
HETATM   14  C   UNL     1       8.711  20.172  53.244  1.00  0.00     0.072 C 
HETATM   15  C   UNL     1       7.706  21.750  54.952  1.00  0.00     0.055 A 
HETATM   16  N   UNL     1       7.244  22.973  55.319  1.00  0.00    -0.250 NA
HETATM   17  C   UNL     1       7.691  20.686  56.007  1.00  0.00     0.072 C 
HETATM   18  C   UNL     1       6.782  25.209  54.708  1.00  0.00     0.063 A 
ENDBRANCH   1   7
BRANCH   3  19
HETATM   19  C   UNL     1       3.260  28.684  52.458  1.00  0.00     0.163 C 
BRANCH  19  20
HETATM   20  C   UNL     1       3.311  29.314  51.022  1.00  0.00     0.244 C 
BRANCH  20  21
HETATM   21  N   UNL     1       4.379  30.408  50.913  1.00  0.00    -0.068 N 
HETATM   22  H   UNL     1       5.253  29.911  51.184  1.00  0.00     0.279 HD
HETATM   23  C   UNL     1       4.635  30.983  49.558  1.00  0.00     0.270 C 
HETATM   24  C   UNL     1       4.225  31.484  51.948  1.00  0.00     0.270 C 
ENDBRANCH  20  21
BRANCH  20  25
HETATM   25  C   UNL     1       3.442  28.250  49.955  1.00  0.00     0.015 A 
HETATM   26  S   UNL     1       2.163  28.037  48.823  1.00  0.00    -0.104 SA
HETATM   27  C   UNL     1       2.982  26.772  48.025  1.00  0.00     0.050 A 
HETATM   28  C   UNL     1       4.199  26.499  48.606  1.00  0.00     0.008 A 
HETATM   29  C   UNL     1       4.465  27.347  49.721  1.00  0.00     0.017 A 
ENDBRANCH  20  25
ENDBRANCH  19  20
ENDBRANCH   3  19
TORSDOF 5
ENDMDL
MODEL 9
REMARK VINA RESULT:      -8.2      1.607      2.643
REMARK  5 active torsions:
REMARK  status: ('A' for Active; 'I' for Inactive)
REMARK    1  A    between atoms: C_11  and  N_12 
REMARK       I    between atoms: N_12  and  C_13 
REMARK       I    between atoms: C_13  and  N_14 
REMARK    2  A    between atoms: N_14  and  C_15 
REMARK    3  A    between atoms: C_15  and  C_16 
REMARK    4  A    between atoms: C_16  and  N_17 
REMARK    5  A    between atoms: C_16  and  C_21 
ROOT
HETATM    1  N   UNL     1       4.339  28.325  56.767  1.00  0.00    -0.309 N 
HETATM    2  C   UNL     1       4.750  29.507  57.290  1.00  0.00     0.320 C 
HETATM    3  N   UNL     1       5.991  29.585  57.824  1.00  0.00    -0.341 N 
HETATM    4  O   UNL     1       3.993  30.479  57.289  1.00  0.00    -0.247 OA
HETATM    5  H   UNL     1       3.348  28.345  56.539  1.00  0.00     0.170 HD
HETATM    6  H   UNL     1       6.291  28.708  58.232  1.00  0.00     0.164 HD
ENDROOT
BRANCH   1   7
HETATM    7  C   UNL     1       4.996  27.115  56.468  1.00  0.00     0.038 A 
HETATM    8  C   UNL     1       5.130  26.037  57.337  1.00  0.00     0.032 A 
HETATM    9  C   UNL     1       5.771  24.867  56.910  1.00  0.00     0.036 A 
HETATM   10  C   UNL     1       6.318  24.759  55.640  1.00  0.00     0.086 A 
HETATM   11  N   UNL     1       6.912  23.615  55.264  1.00  0.00    -0.250 NA
HETATM   12  C   UNL     1       6.243  25.868  54.774  1.00  0.00     0.088 A 
HETATM   13  C   UNL     1       7.450  23.575  54.017  1.00  0.00     0.055 A 
HETATM   14  C   UNL     1       8.098  22.286  53.609  1.00  0.00     0.072 C 
HETATM   15  C   UNL     1       7.403  24.682  53.170  1.00  0.00     0.055 A 
HETATM   16  N   UNL     1       6.786  25.833  53.545  1.00  0.00    -0.250 NA
HETATM   17  C   UNL     1       8.022  24.669  51.806  1.00  0.00     0.072 C 
HETATM   18  C   UNL     1       5.587  27.018  55.201  1.00  0.00     0.063 A 
ENDBRANCH   1   7
BRANCH   3  19
HETATM   19  C   UNL     1       6.561  30.776  58.458  1.00  0.00     0.163 C 
BRANCH  19  20
HETATM   20  C   UNL     1       7.909  30.602  59.242  1.00  0.00     0.244 C 
BRANCH  20  21
HETATM   21  N   UNL     1       9.120  31.027  58.403  1.00  0.00    -0.068 N 
HETATM   22  H   UNL     1       8.696  31.633  57.669  1.00  0.00     0.279 HD
HETATM   23  C   UNL     1      10.161  31.859  59.076  1.00  0.00     0.270 C 
HETATM   24  C   UNL     1       9.732  29.889  57.639  1.00  0.00     0.270 C 
ENDBRANCH  20  21
BRANCH  20  25
HETATM   25  C   UNL     1       7.857  31.281  60.592  1.00  0.00     0.015 A 
HETATM   26  S   UNL     1       6.857  32.667  60.795  1.00  0.00    -0.104 SA
HETATM   27  C   UNL     1       7.302  32.839  62.432  1.00  0.00     0.050 A 
HETATM   28  C   UNL     1       8.202  31.876  62.825  1.00  0.00     0.008 A 
HETATM   29  C   UNL     1       8.527  30.979  61.765  1.00  0.00     0.017 A 
ENDBRANCH  20  25
ENDBRANCH  19  20
ENDBRANCH   3  19
TORSDOF 5
ENDMDL
MODEL 10
REMARK VINA RESULT:      -8.2      3.794      5.669
REMARK  5 active torsions:
REMARK  status: ('A' for Active; 'I' for Inactive)
REMARK    1  A    between atoms: C_11  and  N_12 
REMARK       I    between atoms: N_12  and  C_13 
REMARK       I    between atoms: C_13  and  N_14 
REMARK    2  A    between atoms: N_14  and  C_15 
REMARK    3  A    between atoms: C_15  and  C_16 
REMARK    4  A    between atoms: C_16  and  N_17 
REMARK    5  A    between atoms: C_16  and  C_21 
ROOT
HETATM    1  N   UNL     1       7.041  27.718  55.060  1.00  0.00    -0.309 N 
HETATM    2  C   UNL     1       5.991  28.575  55.065  1.00  0.00     0.320 C 
HETATM    3  N   UNL     1       4.996  28.390  54.167  1.00  0.00    -0.341 N 
HETATM    4  O   UNL     1       5.963  29.512  55.864  1.00  0.00    -0.247 OA
HETATM    5  H   UNL     1       7.789  28.044  55.666  1.00  0.00     0.170 HD
HETATM    6  H   UNL     1       5.329  27.987  53.299  1.00  0.00     0.164 HD
ENDROOT
BRANCH   1   7
HETATM    7  C   UNL     1       7.288  26.489  54.415  1.00  0.00     0.038 A 
HETATM    8  C   UNL     1       7.540  26.332  53.055  1.00  0.00     0.032 A 
HETATM    9  C   UNL     1       7.813  25.060  52.535  1.00  0.00     0.036 A 
HETATM   10  C   UNL     1       7.806  23.929  53.338  1.00  0.00     0.086 A 
HETATM   11  N   UNL     1       8.087  22.729  52.803  1.00  0.00    -0.250 NA
HETATM   12  C   UNL     1       7.490  24.070  54.704  1.00  0.00     0.088 A 
HETATM   13  C   UNL     1       8.042  21.654  53.632  1.00  0.00     0.055 A 
HETATM   14  C   UNL     1       8.372  20.325  53.022  1.00  0.00     0.072 C 
HETATM   15  C   UNL     1       7.701  21.788  54.978  1.00  0.00     0.055 A 
HETATM   16  N   UNL     1       7.434  23.004  55.521  1.00  0.00    -0.250 NA
HETATM   17  C   UNL     1       7.611  20.610  55.899  1.00  0.00     0.072 C 
HETATM   18  C   UNL     1       7.239  25.339  55.214  1.00  0.00     0.063 A 
ENDBRANCH   1   7
BRANCH   3  19
HETATM   19  C   UNL     1       3.820  29.252  54.024  1.00  0.00     0.163 C 
BRANCH  19  20
HETATM   20  C   UNL     1       3.733  30.147  52.739  1.00  0.00     0.244 C 
BRANCH  20  21
HETATM   21  N   UNL     1       4.507  31.460  52.900  1.00  0.00    -0.068 N 
HETATM   22  H   UNL     1       5.496  31.141  52.975  1.00  0.00     0.279 HD
HETATM   23  C   UNL     1       4.469  32.422  51.759  1.00  0.00     0.270 C 
HETATM   24  C   UNL     1       4.235  32.144  54.208  1.00  0.00     0.270 C 
ENDBRANCH  20  21
BRANCH  20  25
HETATM   25  C   UNL     1       4.127  29.376  51.498  1.00  0.00     0.015 A 
HETATM   26  S   UNL     1       2.912  28.950  50.356  1.00  0.00    -0.104 SA
HETATM   27  C   UNL     1       4.038  28.170  49.340  1.00  0.00     0.050 A 
HETATM   28  C   UNL     1       5.313  28.214  49.855  1.00  0.00     0.008 A 
HETATM   29  C   UNL     1       5.366  28.905  51.101  1.00  0.00     0.017 A 
ENDBRANCH  20  25
ENDBRANCH  19  20
ENDBRANCH   3  19
TORSDOF 5
ENDMDL
