MODEL 1
REMARK VINA RESULT:      -9.7      0.000      0.000
REMARK  7 active torsions:
REMARK  status: ('A' for Active; 'I' for Inactive)
REMARK    1  A    between atoms: O_2  and  C_3 
REMARK    2  A    between atoms: C_4  and  N_5 
REMARK    3  A    between atoms: N_5  and  C_6 
REMARK    4  A    between atoms: C_6  and  C_7 
REMARK       I    between atoms: C_7  and  N_8 
REMARK    5  A    between atoms: N_8  and  N_9 
REMARK       I    between atoms: N_9  and  C_10 
REMARK    6  A    between atoms: C_10  and  C_11 
REMARK    7  A    between atoms: N_13  and  C_14 
ROOT
HETATM    1  N   UNL     1       6.278  28.206  57.484  1.00  0.00    -0.263 N 
HETATM    2  C   UNL     1       7.522  27.595  57.411  1.00  0.00     0.273 C 
HETATM    3  O   UNL     1       8.527  27.967  58.007  1.00  0.00    -0.266 OA
HETATM    4  H   UNL     1       5.630  28.056  56.717  1.00  0.00     0.190 HD
ENDROOT
BRANCH   1   5
HETATM    5  N   UNL     1       6.170  29.450  58.125  1.00  0.00    -0.266 N 
HETATM    6  C   UNL     1       5.937  30.582  57.350  1.00  0.00     0.249 C 
HETATM    7  O   UNL     1       6.029  30.623  56.126  1.00  0.00    -0.270 OA
HETATM    8  H   UNL     1       5.730  29.461  59.047  1.00  0.00     0.190 HD
BRANCH   6   9
HETATM    9  C   UNL     1       5.519  31.778  58.209  1.00  0.00     0.197 C 
BRANCH   9  10
HETATM   10  N   UNL     1       6.711  32.531  58.630  1.00  0.00    -0.282 NA
HETATM   11  H   UNL     1       6.654  33.538  58.464  1.00  0.00     0.128 HD
BRANCH  10  12
HETATM   12  C   UNL     1       7.275  32.314  59.903  1.00  0.00     0.042 A 
HETATM   13  C   UNL     1       8.680  32.164  60.002  1.00  0.00     0.089 A 
HETATM   14  C   UNL     1       9.282  31.890  61.235  1.00  0.00     0.038 A 
HETATM   15  C   UNL     1       8.498  31.719  62.376  1.00  0.00     0.003 A 
HETATM   16  C   UNL     1       7.115  31.817  62.285  1.00  0.00     0.002 A 
HETATM   17  C   UNL     1       6.509  32.099  61.058  1.00  0.00     0.026 A 
BRANCH  13  18
HETATM   18  O   UNL     1       9.378  32.344  58.828  1.00  0.00    -0.354 OA
HETATM   19  C   UNL     1      10.046  31.194  58.319  1.00  0.00     0.210 C 
ENDBRANCH  13  18
ENDBRANCH  10  12
ENDBRANCH   9  10
ENDBRANCH   6   9
ENDBRANCH   1   5
BRANCH   2  20
HETATM   20  C   UNL     1       7.525  26.442  56.530  1.00  0.00     0.070 A 
HETATM   21  C   UNL     1       7.826  25.139  56.871  1.00  0.00     0.137 A 
HETATM   22  N   UNL     1       7.725  24.379  55.726  1.00  0.00    -0.244 N 
HETATM   23  N   UNL     1       7.310  25.134  54.673  1.00  0.00    -0.179 NA
HETATM   24  C   UNL     1       7.205  26.367  55.163  1.00  0.00     0.157 A 
BRANCH  22  25
HETATM   25  C   UNL     1       8.015  22.997  55.554  1.00  0.00     0.059 A 
HETATM   26  C   UNL     1       8.031  22.411  54.281  1.00  0.00     0.055 A 
HETATM   27  C   UNL     1       8.294  21.046  54.156  1.00  0.00     0.036 A 
HETATM   28 CL   UNL     1       8.287  20.318  52.595  1.00  0.00    -0.084 Cl
HETATM   29  C   UNL     1       8.556  20.260  55.278  1.00  0.00     0.024 A 
HETATM   30  C   UNL     1       8.547  20.840  56.544  1.00  0.00     0.004 A 
HETATM   31  C   UNL     1       8.272  22.202  56.684  1.00  0.00     0.031 A 
ENDBRANCH  22  25
ENDBRANCH   2  20
TORSDOF 7
ENDMDL
MODEL 2
REMARK VINA RESULT:      -9.6      1.007      1.445
REMARK  7 active torsions:
REMARK  status: ('A' for Active; 'I' for Inactive)
REMARK    1  A    between atoms: O_2  and  C_3 
REMARK    2  A    between atoms: C_4  and  N_5 
REMARK    3  A    between atoms: N_5  and  C_6 
REMARK    4  A    between atoms: C_6  and  C_7 
REMARK       I    between atoms: C_7  and  N_8 
REMARK    5  A    between atoms: N_8  and  N_9 
REMARK       I    between atoms: N_9  and  C_10 
REMARK    6  A    between atoms: C_10  and  C_11 
REMARK    7  A    between atoms: N_13  and  C_14 
ROOT
HETATM    1  N   UNL     1       6.221  28.669  57.239  1.00  0.00    -0.263 N 
HETATM    2  C   UNL     1       7.381  27.907  57.224  1.00  0.00     0.273 C 
HETATM    3  O   UNL     1       8.306  28.015  58.021  1.00  0.00    -0.266 OA
HETATM    4  H   UNL     1       5.700  28.757  56.372  1.00  0.00     0.190 HD
ENDROOT
BRANCH   1   5
HETATM    5  N   UNL     1       6.148  29.777  58.097  1.00  0.00    -0.266 N 
HETATM    6  C   UNL     1       5.626  30.969  57.604  1.00  0.00     0.249 C 
HETATM    7  O   UNL     1       5.418  31.204  56.416  1.00  0.00    -0.270 OA
HETATM    8  H   UNL     1       5.943  29.591  59.081  1.00  0.00     0.190 HD
BRANCH   6   9
HETATM    9  C   UNL     1       5.311  31.957  58.730  1.00  0.00     0.197 C 
BRANCH   9  10
HETATM   10  N   UNL     1       6.523  32.711  59.086  1.00  0.00    -0.282 NA
HETATM   11  H   UNL     1       6.440  33.724  58.967  1.00  0.00     0.128 HD
BRANCH  10  12
HETATM   12  C   UNL     1       7.189  32.452  60.300  1.00  0.00     0.042 A 
HETATM   13  C   UNL     1       8.591  32.251  60.271  1.00  0.00     0.089 A 
HETATM   14  C   UNL     1       9.290  31.934  61.442  1.00  0.00     0.038 A 
HETATM   15  C   UNL     1       8.605  31.771  62.645  1.00  0.00     0.003 A 
HETATM   16  C   UNL     1       7.224  31.920  62.680  1.00  0.00     0.002 A 
HETATM   17  C   UNL     1       6.522  32.245  61.517  1.00  0.00     0.026 A 
BRANCH  13  18
HETATM   18  O   UNL     1       9.188  32.426  59.042  1.00  0.00    -0.354 OA
HETATM   19  C   UNL     1       9.870  31.293  58.515  1.00  0.00     0.210 C 
ENDBRANCH  13  18
ENDBRANCH  10  12
ENDBRANCH   9  10
ENDBRANCH   6   9
ENDBRANCH   1   5
BRANCH   2  20
HETATM   20  C   UNL     1       7.402  26.947  56.137  1.00  0.00     0.070 A 
HETATM   21  C   UNL     1       7.505  25.574  56.245  1.00  0.00     0.137 A 
HETATM   22  N   UNL     1       7.507  25.059  54.967  1.00  0.00    -0.244 N 
HETATM   23  N   UNL     1       7.348  26.043  54.042  1.00  0.00    -0.179 NA
HETATM   24  C   UNL     1       7.297  27.168  54.752  1.00  0.00     0.157 A 
BRANCH  22  25
HETATM   25  C   UNL     1       7.673  23.706  54.561  1.00  0.00     0.059 A 
HETATM   26  C   UNL     1       7.700  22.664  55.497  1.00  0.00     0.055 A 
HETATM   27  C   UNL     1       7.890  21.351  55.062  1.00  0.00     0.036 A 
HETATM   28 CL   UNL     1       7.951  20.072  56.214  1.00  0.00    -0.084 Cl
HETATM   29  C   UNL     1       8.040  21.061  53.706  1.00  0.00     0.024 A 
HETATM   30  C   UNL     1       8.008  22.093  52.771  1.00  0.00     0.004 A 
HETATM   31  C   UNL     1       7.831  23.412  53.196  1.00  0.00     0.031 A 
ENDBRANCH  22  25
ENDBRANCH   2  20
TORSDOF 7
ENDMDL
MODEL 3
REMARK VINA RESULT:      -9.6      3.829     10.191
REMARK  7 active torsions:
REMARK  status: ('A' for Active; 'I' for Inactive)
REMARK    1  A    between atoms: O_2  and  C_3 
REMARK    2  A    between atoms: C_4  and  N_5 
REMARK    3  A    between atoms: N_5  and  C_6 
REMARK    4  A    between atoms: C_6  and  C_7 
REMARK       I    between atoms: C_7  and  N_8 
REMARK    5  A    between atoms: N_8  and  N_9 
REMARK       I    between atoms: N_9  and  C_10 
REMARK    6  A    between atoms: C_10  and  C_11 
REMARK    7  A    between atoms: N_13  and  C_14 
ROOT
HETATM    1  N   UNL     1       7.868  28.532  57.289  1.00  0.00    -0.263 N 
HETATM    2  C   UNL     1       9.095  29.176  57.361  1.00  0.00     0.273 C 
HETATM    3  O   UNL     1      10.090  28.872  56.713  1.00  0.00    -0.266 OA
HETATM    4  H   UNL     1       7.241  28.615  58.083  1.00  0.00     0.190 HD
ENDROOT
BRANCH   1   5
HETATM    5  N   UNL     1       7.774  27.328  56.574  1.00  0.00    -0.266 N 
HETATM    6  C   UNL     1       7.682  26.136  57.287  1.00  0.00     0.249 C 
HETATM    7  O   UNL     1       7.890  26.022  58.491  1.00  0.00    -0.270 OA
HETATM    8  H   UNL     1       7.251  27.347  55.697  1.00  0.00     0.190 HD
BRANCH   6   9
HETATM    9  C   UNL     1       7.258  24.972  56.387  1.00  0.00     0.197 C 
BRANCH   9  10
HETATM   10  N   UNL     1       8.444  24.215  55.957  1.00  0.00    -0.282 NA
HETATM   11  H   UNL     1       9.130  24.050  56.696  1.00  0.00     0.128 HD
BRANCH  10  12
HETATM   12  C   UNL     1       8.298  23.033  55.204  1.00  0.00     0.042 A 
HETATM   13  C   UNL     1       8.182  23.139  53.796  1.00  0.00     0.089 A 
HETATM   14  C   UNL     1       7.978  21.999  53.011  1.00  0.00     0.038 A 
HETATM   15  C   UNL     1       7.843  20.748  53.612  1.00  0.00     0.003 A 
HETATM   16  C   UNL     1       7.908  20.635  54.995  1.00  0.00     0.002 A 
HETATM   17  C   UNL     1       8.120  21.768  55.784  1.00  0.00     0.026 A 
BRANCH  13  18
HETATM   18  O   UNL     1       8.323  24.411  53.285  1.00  0.00    -0.354 OA
HETATM   19  C   UNL     1       7.439  24.755  52.223  1.00  0.00     0.210 C 
ENDBRANCH  13  18
ENDBRANCH  10  12
ENDBRANCH   9  10
ENDBRANCH   6   9
ENDBRANCH   1   5
BRANCH   2  20
HETATM   20  C   UNL     1       9.095  30.271  58.312  1.00  0.00     0.070 A 
HETATM   21  C   UNL     1       8.309  30.388  59.441  1.00  0.00     0.137 A 
HETATM   22  N   UNL     1       8.620  31.590  60.038  1.00  0.00    -0.244 N 
HETATM   23  N   UNL     1       9.621  32.223  59.369  1.00  0.00    -0.179 NA
HETATM   24  C   UNL     1       9.889  31.431  58.334  1.00  0.00     0.157 A 
BRANCH  22  25
HETATM   25  C   UNL     1       8.022  32.190  61.180  1.00  0.00     0.059 A 
HETATM   26  C   UNL     1       6.871  32.981  61.067  1.00  0.00     0.055 A 
HETATM   27  C   UNL     1       6.328  33.575  62.208  1.00  0.00     0.036 A 
HETATM   28 CL   UNL     1       4.930  34.570  62.067  1.00  0.00    -0.084 Cl
HETATM   29  C   UNL     1       6.908  33.380  63.462  1.00  0.00     0.024 A 
HETATM   30  C   UNL     1       8.049  32.590  63.580  1.00  0.00     0.004 A 
HETATM   31  C   UNL     1       8.608  32.001  62.444  1.00  0.00     0.031 A 
ENDBRANCH  22  25
ENDBRANCH   2  20
TORSDOF 7
ENDMDL
MODEL 4
REMARK VINA RESULT:      -9.5      2.432      3.410
REMARK  7 active torsions:
REMARK  status: ('A' for Active; 'I' for Inactive)
REMARK    1  A    between atoms: O_2  and  C_3 
REMARK    2  A    between atoms: C_4  and  N_5 
REMARK    3  A    between atoms: N_5  and  C_6 
REMARK    4  A    between atoms: C_6  and  C_7 
REMARK       I    between atoms: C_7  and  N_8 
REMARK    5  A    between atoms: N_8  and  N_9 
REMARK       I    between atoms: N_9  and  C_10 
REMARK    6  A    between atoms: C_10  and  C_11 
REMARK    7  A    between atoms: N_13  and  C_14 
ROOT
HETATM    1  N   UNL     1       6.164  29.605  57.787  1.00  0.00    -0.263 N 
HETATM    2  C   UNL     1       7.136  28.618  57.702  1.00  0.00     0.273 C 
HETATM    3  O   UNL     1       8.146  28.562  58.395  1.00  0.00    -0.266 OA
HETATM    4  H   UNL     1       5.579  29.765  56.972  1.00  0.00     0.190 HD
ENDROOT
BRANCH   1   5
HETATM    5  N   UNL     1       6.412  30.736  58.579  1.00  0.00    -0.266 N 
HETATM    6  C   UNL     1       5.341  31.557  58.921  1.00  0.00     0.249 C 
HETATM    7  O   UNL     1       4.224  31.499  58.415  1.00  0.00    -0.270 OA
HETATM    8  H   UNL     1       7.138  30.655  59.292  1.00  0.00     0.190 HD
BRANCH   6   9
HETATM    9  C   UNL     1       5.716  32.536  60.038  1.00  0.00     0.197 C 
BRANCH   9  10
HETATM   10  N   UNL     1       5.333  31.975  61.343  1.00  0.00    -0.282 NA
HETATM   11  H   UNL     1       5.255  30.955  61.357  1.00  0.00     0.128 HD
BRANCH  10  12
HETATM   12  C   UNL     1       5.989  32.394  62.516  1.00  0.00     0.042 A 
HETATM   13  C   UNL     1       5.215  32.967  63.555  1.00  0.00     0.089 A 
HETATM   14  C   UNL     1       5.828  33.451  64.717  1.00  0.00     0.038 A 
HETATM   15  C   UNL     1       7.216  33.413  64.845  1.00  0.00     0.003 A 
HETATM   16  C   UNL     1       7.992  32.898  63.814  1.00  0.00     0.002 A 
HETATM   17  C   UNL     1       7.385  32.405  62.657  1.00  0.00     0.026 A 
BRANCH  13  18
HETATM   18  O   UNL     1       3.853  32.969  63.346  1.00  0.00    -0.354 OA
HETATM   19  C   UNL     1       3.177  34.181  63.662  1.00  0.00     0.210 C 
ENDBRANCH  13  18
ENDBRANCH  10  12
ENDBRANCH   9  10
ENDBRANCH   6   9
ENDBRANCH   1   5
BRANCH   2  20
HETATM   20  C   UNL     1       6.842  27.632  56.679  1.00  0.00     0.070 A 
HETATM   21  C   UNL     1       7.440  26.398  56.521  1.00  0.00     0.137 A 
HETATM   22  N   UNL     1       6.873  25.804  55.415  1.00  0.00    -0.244 N 
HETATM   23  N   UNL     1       5.889  26.583  54.891  1.00  0.00    -0.179 NA
HETATM   24  C   UNL     1       5.887  27.678  55.648  1.00  0.00     0.157 A 
BRANCH  22  25
HETATM   25  C   UNL     1       7.212  24.563  54.807  1.00  0.00     0.059 A 
HETATM   26  C   UNL     1       7.239  23.374  55.548  1.00  0.00     0.055 A 
HETATM   27  C   UNL     1       7.602  22.181  54.922  1.00  0.00     0.036 A 
HETATM   28 CL   UNL     1       7.662  20.723  55.837  1.00  0.00    -0.084 Cl
HETATM   29  C   UNL     1       7.926  22.153  53.565  1.00  0.00     0.024 A 
HETATM   30  C   UNL     1       7.895  23.332  52.824  1.00  0.00     0.004 A 
HETATM   31  C   UNL     1       7.546  24.534  53.442  1.00  0.00     0.031 A 
ENDBRANCH  22  25
ENDBRANCH   2  20
TORSDOF 7
ENDMDL
MODEL 5
REMARK VINA RESULT:      -9.3      1.718      2.767
REMARK  7 active torsions:
REMARK  status: ('A' for Active; 'I' for Inactive)
REMARK    1  A    between atoms: O_2  and  C_3 
REMARK    2  A    between atoms: C_4  and  N_5 
REMARK    3  A    between atoms: N_5  and  C_6 
REMARK    4  A    between atoms: C_6  and  C_7 
REMARK       I    between atoms: C_7  and  N_8 
REMARK    5  A    between atoms: N_8  and  N_9 
REMARK       I    between atoms: N_9  and  C_10 
REMARK    6  A    between atoms: C_10  and  C_11 
REMARK    7  A    between atoms: N_13  and  C_14 
ROOT
HETATM    1  N   UNL     1       8.732  28.816  55.744  1.00  0.00    -0.263 N 
HETATM    2  C   UNL     1       7.367  28.680  55.533  1.00  0.00     0.273 C 
HETATM    3  O   UNL     1       6.526  29.536  55.780  1.00  0.00    -0.266 OA
HETATM    4  H   UNL     1       9.283  27.970  55.846  1.00  0.00     0.190 HD
ENDROOT
BRANCH   1   5
HETATM    5  N   UNL     1       9.200  29.926  56.465  1.00  0.00    -0.266 N 
HETATM    6  C   UNL     1       9.168  29.880  57.855  1.00  0.00     0.249 C 
HETATM    7  O   UNL     1       8.569  29.035  58.514  1.00  0.00    -0.270 OA
HETATM    8  H   UNL     1       9.988  30.440  56.068  1.00  0.00     0.190 HD
BRANCH   6   9
HETATM    9  C   UNL     1      10.003  31.003  58.476  1.00  0.00     0.197 C 
BRANCH   9  10
HETATM   10  N   UNL     1       9.127  32.119  58.865  1.00  0.00    -0.282 NA
HETATM   11  H   UNL     1       8.452  32.396  58.149  1.00  0.00     0.128 HD
BRANCH  10  12
HETATM   12  C   UNL     1       8.479  32.111  60.116  1.00  0.00     0.042 A 
HETATM   13  C   UNL     1       7.097  32.414  60.162  1.00  0.00     0.089 A 
HETATM   14  C   UNL     1       6.421  32.475  61.387  1.00  0.00     0.038 A 
HETATM   15  C   UNL     1       7.114  32.278  62.581  1.00  0.00     0.003 A 
HETATM   16  C   UNL     1       8.480  32.026  62.554  1.00  0.00     0.002 A 
HETATM   17  C   UNL     1       9.158  31.955  61.335  1.00  0.00     0.026 A 
BRANCH  13  18
HETATM   18  O   UNL     1       6.491  32.599  58.939  1.00  0.00    -0.354 OA
HETATM   19  C   UNL     1       5.656  31.536  58.493  1.00  0.00     0.210 C 
ENDBRANCH  13  18
ENDBRANCH  10  12
ENDBRANCH   9  10
ENDBRANCH   6   9
ENDBRANCH   1   5
BRANCH   2  20
HETATM   20  C   UNL     1       7.016  27.384  54.983  1.00  0.00     0.070 A 
HETATM   21  C   UNL     1       7.628  26.176  55.251  1.00  0.00     0.137 A 
HETATM   22  N   UNL     1       6.989  25.213  54.500  1.00  0.00    -0.244 N 
HETATM   23  N   UNL     1       5.949  25.747  53.805  1.00  0.00    -0.179 NA
HETATM   24  C   UNL     1       5.981  27.046  54.093  1.00  0.00     0.157 A 
BRANCH  22  25
HETATM   25  C   UNL     1       7.308  23.833  54.377  1.00  0.00     0.059 A 
HETATM   26  C   UNL     1       7.480  23.024  55.508  1.00  0.00     0.055 A 
HETATM   27  C   UNL     1       7.818  21.679  55.347  1.00  0.00     0.036 A 
HETATM   28 CL   UNL     1       8.059  20.689  56.736  1.00  0.00    -0.084 Cl
HETATM   29  C   UNL     1       7.973  21.126  54.076  1.00  0.00     0.024 A 
HETATM   30  C   UNL     1       7.797  21.926  52.949  1.00  0.00     0.004 A 
HETATM   31  C   UNL     1       7.471  23.275  53.098  1.00  0.00     0.031 A 
ENDBRANCH  22  25
ENDBRANCH   2  20
TORSDOF 7
ENDMDL
MODEL 6
REMARK VINA RESULT:      -9.2      1.627      2.495
REMARK  7 active torsions:
REMARK  status: ('A' for Active; 'I' for Inactive)
REMARK    1  A    between atoms: O_2  and  C_3 
REMARK    2  A    between atoms: C_4  and  N_5 
REMARK    3  A    between atoms: N_5  and  C_6 
REMARK    4  A    between atoms: C_6  and  C_7 
REMARK       I    between atoms: C_7  and  N_8 
REMARK    5  A    between atoms: N_8  and  N_9 
REMARK       I    between atoms: N_9  and  C_10 
REMARK    6  A    between atoms: C_10  and  C_11 
REMARK    7  A    between atoms: N_13  and  C_14 
ROOT
HETATM    1  N   UNL     1       7.652  28.125  57.649  1.00  0.00    -0.263 N 
HETATM    2  C   UNL     1       6.461  27.718  57.064  1.00  0.00     0.273 C 
HETATM    3  O   UNL     1       5.385  28.291  57.183  1.00  0.00    -0.266 OA
HETATM    4  H   UNL     1       8.376  27.427  57.787  1.00  0.00     0.190 HD
ENDROOT
BRANCH   1   5
HETATM    5  N   UNL     1       7.623  29.155  58.601  1.00  0.00    -0.266 N 
HETATM    6  C   UNL     1       8.666  30.077  58.618  1.00  0.00     0.249 C 
HETATM    7  O   UNL     1       9.724  29.948  58.009  1.00  0.00    -0.270 OA
HETATM    8  H   UNL     1       6.708  29.535  58.849  1.00  0.00     0.190 HD
BRANCH   6   9
HETATM    9  C   UNL     1       8.324  31.300  59.473  1.00  0.00     0.197 C 
BRANCH   9  10
HETATM   10  N   UNL     1       7.453  30.901  60.589  1.00  0.00    -0.282 NA
HETATM   11  H   UNL     1       7.613  29.951  60.932  1.00  0.00     0.128 HD
BRANCH  10  12
HETATM   12  C   UNL     1       7.279  31.757  61.695  1.00  0.00     0.042 A 
HETATM   13  C   UNL     1       6.206  32.681  61.673  1.00  0.00     0.089 A 
HETATM   14  C   UNL     1       6.027  33.590  62.722  1.00  0.00     0.038 A 
HETATM   15  C   UNL     1       6.930  33.624  63.783  1.00  0.00     0.003 A 
HETATM   16  C   UNL     1       8.015  32.755  63.796  1.00  0.00     0.002 A 
HETATM   17  C   UNL     1       8.194  31.839  62.756  1.00  0.00     0.026 A 
BRANCH  13  18
HETATM   18  O   UNL     1       5.364  32.583  60.587  1.00  0.00    -0.354 OA
HETATM   19  C   UNL     1       3.989  32.369  60.885  1.00  0.00     0.210 C 
ENDBRANCH  13  18
ENDBRANCH  10  12
ENDBRANCH   9  10
ENDBRANCH   6   9
ENDBRANCH   1   5
BRANCH   2  20
HETATM   20  C   UNL     1       6.611  26.505  56.282  1.00  0.00     0.070 A 
HETATM   21  C   UNL     1       7.175  25.315  56.697  1.00  0.00     0.137 A 
HETATM   22  N   UNL     1       7.129  24.443  55.631  1.00  0.00    -0.244 N 
HETATM   23  N   UNL     1       6.502  25.007  54.564  1.00  0.00    -0.179 NA
HETATM   24  C   UNL     1       6.206  26.243  54.961  1.00  0.00     0.157 A 
BRANCH  22  25
HETATM   25  C   UNL     1       7.657  23.125  55.545  1.00  0.00     0.059 A 
HETATM   26  C   UNL     1       7.710  22.443  54.322  1.00  0.00     0.055 A 
HETATM   27  C   UNL     1       8.211  21.140  54.282  1.00  0.00     0.036 A 
HETATM   28 CL   UNL     1       8.252  20.289  52.785  1.00  0.00    -0.084 Cl
HETATM   29  C   UNL     1       8.672  20.514  55.440  1.00  0.00     0.024 A 
HETATM   30  C   UNL     1       8.626  21.191  56.656  1.00  0.00     0.004 A 
HETATM   31  C   UNL     1       8.115  22.489  56.711  1.00  0.00     0.031 A 
ENDBRANCH  22  25
ENDBRANCH   2  20
TORSDOF 7
ENDMDL
MODEL 7
REMARK VINA RESULT:      -9.2      3.788      9.856
REMARK  7 active torsions:
REMARK  status: ('A' for Active; 'I' for Inactive)
REMARK    1  A    between atoms: O_2  and  C_3 
REMARK    2  A    between atoms: C_4  and  N_5 
REMARK    3  A    between atoms: N_5  and  C_6 
REMARK    4  A    between atoms: C_6  and  C_7 
REMARK       I    between atoms: C_7  and  N_8 
REMARK    5  A    between atoms: N_8  and  N_9 
REMARK       I    between atoms: N_9  and  C_10 
REMARK    6  A    between atoms: C_10  and  C_11 
REMARK    7  A    between atoms: N_13  and  C_14 
ROOT
HETATM    1  N   UNL     1       7.773  28.935  57.102  1.00  0.00    -0.263 N 
HETATM    2  C   UNL     1       9.053  29.357  57.436  1.00  0.00     0.273 C 
HETATM    3  O   UNL     1      10.091  28.896  56.974  1.00  0.00    -0.266 OA
HETATM    4  H   UNL     1       7.027  29.113  57.767  1.00  0.00     0.190 HD
ENDROOT
BRANCH   1   5
HETATM    5  N   UNL     1       7.622  27.776  56.326  1.00  0.00    -0.266 N 
HETATM    6  C   UNL     1       6.883  27.853  55.150  1.00  0.00     0.249 C 
HETATM    7  O   UNL     1       6.168  28.800  54.833  1.00  0.00    -0.270 OA
HETATM    8  H   UNL     1       8.411  27.128  56.298  1.00  0.00     0.190 HD
BRANCH   6   9
HETATM    9  C   UNL     1       7.089  26.616  54.271  1.00  0.00     0.197 C 
BRANCH   9  10
HETATM   10  N   UNL     1       6.612  25.417  54.977  1.00  0.00    -0.282 NA
HETATM   11  H   UNL     1       5.595  25.355  55.062  1.00  0.00     0.128 HD
BRANCH  10  12
HETATM   12  C   UNL     1       7.115  24.146  54.637  1.00  0.00     0.042 A 
HETATM   13  C   UNL     1       7.710  23.361  55.656  1.00  0.00     0.089 A 
HETATM   14  C   UNL     1       8.276  22.116  55.357  1.00  0.00     0.038 A 
HETATM   15  C   UNL     1       8.298  21.653  54.042  1.00  0.00     0.003 A 
HETATM   16  C   UNL     1       7.760  22.433  53.025  1.00  0.00     0.002 A 
HETATM   17  C   UNL     1       7.186  23.672  53.319  1.00  0.00     0.026 A 
BRANCH  13  18
HETATM   18  O   UNL     1       7.649  23.895  56.925  1.00  0.00    -0.354 OA
HETATM   19  C   UNL     1       8.880  24.369  57.459  1.00  0.00     0.210 C 
ENDBRANCH  13  18
ENDBRANCH  10  12
ENDBRANCH   9  10
ENDBRANCH   6   9
ENDBRANCH   1   5
BRANCH   2  20
HETATM   20  C   UNL     1       9.049  30.422  58.421  1.00  0.00     0.070 A 
HETATM   21  C   UNL     1       8.231  30.524  59.529  1.00  0.00     0.137 A 
HETATM   22  N   UNL     1       8.552  31.699  60.173  1.00  0.00    -0.244 N 
HETATM   23  N   UNL     1       9.588  32.327  59.555  1.00  0.00    -0.179 NA
HETATM   24  C   UNL     1       9.870  31.561  58.504  1.00  0.00     0.157 A 
BRANCH  22  25
HETATM   25  C   UNL     1       7.934  32.278  61.315  1.00  0.00     0.059 A 
HETATM   26  C   UNL     1       6.749  33.018  61.202  1.00  0.00     0.055 A 
HETATM   27  C   UNL     1       6.185  33.593  62.343  1.00  0.00     0.036 A 
HETATM   28 CL   UNL     1       4.745  34.526  62.203  1.00  0.00    -0.084 Cl
HETATM   29  C   UNL     1       6.778  33.430  63.595  1.00  0.00     0.024 A 
HETATM   30  C   UNL     1       7.952  32.690  63.712  1.00  0.00     0.004 A 
HETATM   31  C   UNL     1       8.532  32.120  62.577  1.00  0.00     0.031 A 
ENDBRANCH  22  25
ENDBRANCH   2  20
TORSDOF 7
ENDMDL
MODEL 8
REMARK VINA RESULT:      -8.9      2.214      3.343
REMARK  7 active torsions:
REMARK  status: ('A' for Active; 'I' for Inactive)
REMARK    1  A    between atoms: O_2  and  C_3 
REMARK    2  A    between atoms: C_4  and  N_5 
REMARK    3  A    between atoms: N_5  and  C_6 
REMARK    4  A    between atoms: C_6  and  C_7 
REMARK       I    between atoms: C_7  and  N_8 
REMARK    5  A    between atoms: N_8  and  N_9 
REMARK       I    between atoms: N_9  and  C_10 
REMARK    6  A    between atoms: C_10  and  C_11 
REMARK    7  A    between atoms: N_13  and  C_14 
ROOT
HETATM    1  N   UNL     1       6.931  29.120  57.868  1.00  0.00    -0.263 N 
HETATM    2  C   UNL     1       6.098  28.885  56.783  1.00  0.00     0.273 C 
HETATM    3  O   UNL     1       5.461  29.744  56.184  1.00  0.00    -0.266 OA
HETATM    4  H   UNL     1       7.123  28.345  58.495  1.00  0.00     0.190 HD
ENDROOT
BRANCH   1   5
HETATM    5  N   UNL     1       6.923  30.388  58.468  1.00  0.00    -0.266 N 
HETATM    6  C   UNL     1       7.918  30.695  59.392  1.00  0.00     0.249 C 
HETATM    7  O   UNL     1       8.685  29.877  59.892  1.00  0.00    -0.270 OA
HETATM    8  H   UNL     1       6.611  31.173  57.893  1.00  0.00     0.190 HD
BRANCH   6   9
HETATM    9  C   UNL     1       7.963  32.195  59.695  1.00  0.00     0.197 C 
BRANCH   9  10
HETATM   10  N   UNL     1       6.761  32.590  60.444  1.00  0.00    -0.282 NA
HETATM   11  H   UNL     1       5.963  31.962  60.322  1.00  0.00     0.128 HD
BRANCH  10  12
HETATM   12  C   UNL     1       6.855  32.941  61.805  1.00  0.00     0.042 A 
HETATM   13  C   UNL     1       6.002  33.957  62.301  1.00  0.00     0.089 A 
HETATM   14  C   UNL     1       6.098  34.381  63.632  1.00  0.00     0.038 A 
HETATM   15  C   UNL     1       7.066  33.835  64.474  1.00  0.00     0.003 A 
HETATM   16  C   UNL     1       7.941  32.871  63.988  1.00  0.00     0.002 A 
HETATM   17  C   UNL     1       7.844  32.438  62.664  1.00  0.00     0.026 A 
BRANCH  13  18
HETATM   18  O   UNL     1       5.079  34.445  61.402  1.00  0.00    -0.354 OA
HETATM   19  C   UNL     1       3.918  35.045  61.968  1.00  0.00     0.210 C 
ENDBRANCH  13  18
ENDBRANCH  10  12
ENDBRANCH   9  10
ENDBRANCH   6   9
ENDBRANCH   1   5
BRANCH   2  20
HETATM   20  C   UNL     1       6.043  27.482  56.417  1.00  0.00     0.070 A 
HETATM   21  C   UNL     1       6.906  26.810  55.575  1.00  0.00     0.137 A 
HETATM   22  N   UNL     1       6.472  25.505  55.494  1.00  0.00    -0.244 N 
HETATM   23  N   UNL     1       5.397  25.297  56.302  1.00  0.00    -0.179 NA
HETATM   24  C   UNL     1       5.143  26.487  56.840  1.00  0.00     0.157 A 
BRANCH  22  25
HETATM   25  C   UNL     1       6.987  24.451  54.691  1.00  0.00     0.059 A 
HETATM   26  C   UNL     1       7.134  23.154  55.202  1.00  0.00     0.055 A 
HETATM   27  C   UNL     1       7.668  22.151  54.390  1.00  0.00     0.036 A 
HETATM   28 CL   UNL     1       7.876  20.563  55.024  1.00  0.00    -0.084 Cl
HETATM   29  C   UNL     1       8.044  22.418  53.074  1.00  0.00     0.024 A 
HETATM   30  C   UNL     1       7.894  23.705  52.561  1.00  0.00     0.004 A 
HETATM   31  C   UNL     1       7.373  24.719  53.367  1.00  0.00     0.031 A 
ENDBRANCH  22  25
ENDBRANCH   2  20
TORSDOF 7
ENDMDL
MODEL 9
REMARK VINA RESULT:      -8.9      2.638      4.135
REMARK  7 active torsions:
REMARK  status: ('A' for Active; 'I' for Inactive)
REMARK    1  A    between atoms: O_2  and  C_3 
REMARK    2  A    between atoms: C_4  and  N_5 
REMARK    3  A    between atoms: N_5  and  C_6 
REMARK    4  A    between atoms: C_6  and  C_7 
REMARK       I    between atoms: C_7  and  N_8 
REMARK    5  A    between atoms: N_8  and  N_9 
REMARK       I    between atoms: N_9  and  C_10 
REMARK    6  A    between atoms: C_10  and  C_11 
REMARK    7  A    between atoms: N_13  and  C_14 
ROOT
HETATM    1  N   UNL     1       7.736  29.934  59.407  1.00  0.00    -0.263 N 
HETATM    2  C   UNL     1       7.086  30.218  58.214  1.00  0.00     0.273 C 
HETATM    3  O   UNL     1       6.609  31.307  57.912  1.00  0.00    -0.266 OA
HETATM    4  H   UNL     1       7.774  28.965  59.707  1.00  0.00     0.190 HD
ENDROOT
BRANCH   1   5
HETATM    5  N   UNL     1       7.700  30.882  60.442  1.00  0.00    -0.266 N 
HETATM    6  C   UNL     1       8.674  30.822  61.434  1.00  0.00     0.249 C 
HETATM    7  O   UNL     1       9.444  29.881  61.604  1.00  0.00    -0.270 OA
HETATM    8  H   UNL     1       7.388  31.824  60.200  1.00  0.00     0.190 HD
BRANCH   6   9
HETATM    9  C   UNL     1       8.694  32.097  62.282  1.00  0.00     0.197 C 
BRANCH   9  10
HETATM   10  N   UNL     1       7.360  32.715  62.286  1.00  0.00    -0.282 NA
HETATM   11  H   UNL     1       6.668  32.230  61.710  1.00  0.00     0.128 HD
BRANCH  10  12
HETATM   12  C   UNL     1       6.753  33.088  63.501  1.00  0.00     0.042 A 
HETATM   13  C   UNL     1       5.363  33.362  63.506  1.00  0.00     0.089 A 
HETATM   14  C   UNL     1       4.726  33.791  64.676  1.00  0.00     0.038 A 
HETATM   15  C   UNL     1       5.463  33.996  65.842  1.00  0.00     0.003 A 
HETATM   16  C   UNL     1       6.835  33.776  65.840  1.00  0.00     0.002 A 
HETATM   17  C   UNL     1       7.475  33.339  64.678  1.00  0.00     0.026 A 
BRANCH  13  18
HETATM   18  O   UNL     1       4.712  33.138  62.313  1.00  0.00    -0.354 OA
HETATM   19  C   UNL     1       3.294  33.253  62.347  1.00  0.00     0.210 C 
ENDBRANCH  13  18
ENDBRANCH  10  12
ENDBRANCH   9  10
ENDBRANCH   6   9
ENDBRANCH   1   5
BRANCH   2  20
HETATM   20  C   UNL     1       7.011  29.068  57.333  1.00  0.00     0.070 A 
HETATM   21  C   UNL     1       7.585  27.829  57.537  1.00  0.00     0.137 A 
HETATM   22  N   UNL     1       7.279  27.048  56.444  1.00  0.00    -0.244 N 
HETATM   23  N   UNL     1       6.479  27.718  55.572  1.00  0.00    -0.179 NA
HETATM   24  C   UNL     1       6.334  28.928  56.108  1.00  0.00     0.157 A 
BRANCH  22  25
HETATM   25  C   UNL     1       7.710  25.723  56.157  1.00  0.00     0.059 A 
HETATM   26  C   UNL     1       7.594  25.185  54.868  1.00  0.00     0.055 A 
HETATM   27  C   UNL     1       8.004  23.871  54.631  1.00  0.00     0.036 A 
HETATM   28 CL   UNL     1       7.836  23.198  53.055  1.00  0.00    -0.084 Cl
HETATM   29  C   UNL     1       8.541  23.092  55.656  1.00  0.00     0.024 A 
HETATM   30  C   UNL     1       8.663  23.626  56.937  1.00  0.00     0.004 A 
HETATM   31  C   UNL     1       8.245  24.934  57.189  1.00  0.00     0.031 A 
ENDBRANCH  22  25
ENDBRANCH   2  20
TORSDOF 7
ENDMDL
MODEL 10
REMARK VINA RESULT:      -8.7      4.550     10.712
REMARK  7 active torsions:
REMARK  status: ('A' for Active; 'I' for Inactive)
REMARK    1  A    between atoms: O_2  and  C_3 
REMARK    2  A    between atoms: C_4  and  N_5 
REMARK    3  A    between atoms: N_5  and  C_6 
REMARK    4  A    between atoms: C_6  and  C_7 
REMARK       I    between atoms: C_7  and  N_8 
REMARK    5  A    between atoms: N_8  and  N_9 
REMARK       I    between atoms: N_9  and  C_10 
REMARK    6  A    between atoms: C_10  and  C_11 
REMARK    7  A    between atoms: N_13  and  C_14 
ROOT
HETATM    1  N   UNL     1       7.112  30.394  58.746  1.00  0.00    -0.263 N 
HETATM    2  C   UNL     1       8.139  31.233  59.159  1.00  0.00     0.273 C 
HETATM    3  O   UNL     1       9.056  31.627  58.447  1.00  0.00    -0.266 OA
HETATM    4  H   UNL     1       6.626  29.856  59.456  1.00  0.00     0.190 HD
ENDROOT
BRANCH   1   5
HETATM    5  N   UNL     1       7.199  29.784  57.486  1.00  0.00    -0.266 N 
HETATM    6  C   UNL     1       7.528  28.434  57.420  1.00  0.00     0.249 C 
HETATM    7  O   UNL     1       7.961  27.772  58.360  1.00  0.00    -0.270 OA
HETATM    8  H   UNL     1       6.546  30.104  56.768  1.00  0.00     0.190 HD
BRANCH   6   9
HETATM    9  C   UNL     1       7.259  27.854  56.029  1.00  0.00     0.197 C 
BRANCH   9  10
HETATM   10  N   UNL     1       7.463  26.397  56.047  1.00  0.00    -0.282 NA
HETATM   11  H   UNL     1       6.887  25.899  56.729  1.00  0.00     0.128 HD
BRANCH  10  12
HETATM   12  C   UNL     1       7.471  25.666  54.842  1.00  0.00     0.042 A 
HETATM   13  C   UNL     1       7.496  24.252  54.911  1.00  0.00     0.089 A 
HETATM   14  C   UNL     1       7.562  23.483  53.743  1.00  0.00     0.038 A 
HETATM   15  C   UNL     1       7.647  24.104  52.498  1.00  0.00     0.003 A 
HETATM   16  C   UNL     1       7.671  25.492  52.418  1.00  0.00     0.002 A 
HETATM   17  C   UNL     1       7.596  26.264  53.579  1.00  0.00     0.026 A 
BRANCH  13  18
HETATM   18  O   UNL     1       7.413  23.720  56.179  1.00  0.00    -0.354 OA
HETATM   19  C   UNL     1       8.420  22.775  56.524  1.00  0.00     0.210 C 
ENDBRANCH  13  18
ENDBRANCH  10  12
ENDBRANCH   9  10
ENDBRANCH   6   9
ENDBRANCH   1   5
BRANCH   2  20
HETATM   20  C   UNL     1       8.028  31.603  60.557  1.00  0.00     0.070 A 
HETATM   21  C   UNL     1       6.921  32.134  61.188  1.00  0.00     0.137 A 
HETATM   22  N   UNL     1       7.262  32.352  62.505  1.00  0.00    -0.244 N 
HETATM   23  N   UNL     1       8.528  31.924  62.760  1.00  0.00    -0.179 NA
HETATM   24  C   UNL     1       8.979  31.489  61.586  1.00  0.00     0.157 A 
BRANCH  22  25
HETATM   25  C   UNL     1       6.484  32.956  63.531  1.00  0.00     0.059 A 
HETATM   26  C   UNL     1       7.050  33.293  64.768  1.00  0.00     0.055 A 
HETATM   27  C   UNL     1       6.247  33.861  65.760  1.00  0.00     0.036 A 
HETATM   28 CL   UNL     1       6.933  34.250  67.291  1.00  0.00    -0.084 Cl
HETATM   29  C   UNL     1       4.894  34.111  65.531  1.00  0.00     0.024 A 
HETATM   30  C   UNL     1       4.330  33.784  64.300  1.00  0.00     0.004 A 
HETATM   31  C   UNL     1       5.119  33.203  63.305  1.00  0.00     0.031 A 
ENDBRANCH  22  25
ENDBRANCH   2  20
TORSDOF 7
ENDMDL
