MODEL 1
REMARK VINA RESULT:      -8.9      0.000      0.000
REMARK  8 active torsions:
REMARK  status: ('A' for Active; 'I' for Inactive)
REMARK    1  A    between atoms: O_2  and  C_3 
REMARK    2  A    between atoms: C_4  and  N_5 
REMARK       I    between atoms: N_5  and  C_6 
REMARK       I    between atoms: C_6  and  N_7 
REMARK    3  A    between atoms: N_7  and  C_8 
REMARK    4  A    between atoms: C_11  and  C_12 
REMARK    5  A    between atoms: C_12  and  C_13 
REMARK       I    between atoms: C_13  and  N_14 
REMARK    6  A    between atoms: N_14  and  C_15 
REMARK    7  A    between atoms: C_18  and  O_19 
REMARK    8  A    between atoms: O_19  and  C_20 
ROOT
HETATM    1  C   UNL     1       4.580  27.567  48.384  1.00  0.00     0.174 A 
HETATM    2  S   UNL     1       4.783  28.792  47.213  1.00  0.00    -0.062 SA
HETATM    3  C   UNL     1       5.225  29.883  48.460  1.00  0.00     0.081 A 
HETATM    4  C   UNL     1       5.183  29.249  49.690  1.00  0.00     0.052 A 
HETATM    5  N   UNL     1       4.845  27.903  49.620  1.00  0.00    -0.228 NA
ENDROOT
BRANCH   4   6
HETATM    6  C   UNL     1       5.484  29.812  51.040  1.00  0.00     0.163 C 
BRANCH   6   7
HETATM    7  C   UNL     1       5.344  28.790  52.156  1.00  0.00     0.227 C 
HETATM    8  N   UNL     1       6.314  27.798  52.129  1.00  0.00    -0.327 N 
HETATM    9  H   UNL     1       7.003  27.850  51.388  1.00  0.00     0.169 HD
HETATM   10  O   UNL     1       4.432  28.885  52.975  1.00  0.00    -0.273 OA
BRANCH   8  11
HETATM   11  C   UNL     1       6.463  26.726  53.037  1.00  0.00     0.034 A 
HETATM   12  C   UNL     1       7.566  26.566  53.880  1.00  0.00     0.032 A 
HETATM   13  C   UNL     1       7.650  25.469  54.742  1.00  0.00     0.039 A 
HETATM   14  C   UNL     1       6.626  24.528  54.778  1.00  0.00     0.076 A 
HETATM   15  C   UNL     1       5.528  24.659  53.930  1.00  0.00     0.039 A 
HETATM   16  C   UNL     1       5.442  25.764  53.073  1.00  0.00     0.032 A 
BRANCH  14  17
HETATM   17  O   UNL     1       6.800  23.434  55.588  1.00  0.00    -0.311 OA
BRANCH  17  18
HETATM   18  C   UNL     1       7.520  22.360  55.112  1.00  0.00     0.076 A 
HETATM   19  C   UNL     1       8.148  21.583  56.089  1.00  0.00     0.037 A 
HETATM   20  C   UNL     1       8.874  20.447  55.728  1.00  0.00     0.003 A 
HETATM   21  C   UNL     1       8.969  20.082  54.386  1.00  0.00     0.000 A 
HETATM   22  C   UNL     1       8.331  20.845  53.409  1.00  0.00     0.003 A 
HETATM   23  C   UNL     1       7.598  21.979  53.770  1.00  0.00     0.037 A 
ENDBRANCH  17  18
ENDBRANCH  14  17
ENDBRANCH   8  11
ENDBRANCH   6   7
ENDBRANCH   4   6
BRANCH   1  24
HETATM   24  N   UNL     1       4.204  26.363  47.860  1.00  0.00    -0.287 N 
HETATM   25  C   UNL     1       3.041  25.714  48.082  1.00  0.00     0.326 C 
HETATM   26  N   UNL     1       1.900  26.353  48.430  1.00  0.00    -0.306 N 
HETATM   27  O   UNL     1       3.037  24.480  48.032  1.00  0.00    -0.247 OA
HETATM   28  H   UNL     1       1.271  25.760  48.954  1.00  0.00     0.171 HD
HETATM   29  H   UNL     1       4.946  25.797  47.480  1.00  0.00     0.172 HD
BRANCH  26  30
HETATM   30  C   UNL     1       1.360  27.577  47.981  1.00  0.00     0.069 A 
HETATM   31  C   UNL     1       1.274  28.754  48.746  1.00  0.00     0.095 A 
HETATM   32  C   UNL     1       0.683  29.901  48.205  1.00  0.00     0.039 A 
HETATM   33  C   UNL     1       0.235  29.909  46.883  1.00  0.00     0.003 A 
HETATM   34  C   UNL     1       0.380  28.769  46.098  1.00  0.00     0.002 A 
HETATM   35  C   UNL     1       0.946  27.614  46.642  1.00  0.00     0.032 A 
BRANCH  31  36
HETATM   36  O   UNL     1       1.776  28.784  50.023  1.00  0.00    -0.354 OA
HETATM   37  C   UNL     1       1.807  30.104  50.564  1.00  0.00     0.210 C 
ENDBRANCH  31  36
ENDBRANCH  26  30
ENDBRANCH   1  24
TORSDOF 8
ENDMDL
MODEL 2
REMARK VINA RESULT:      -8.8      2.114      3.410
REMARK  8 active torsions:
REMARK  status: ('A' for Active; 'I' for Inactive)
REMARK    1  A    between atoms: O_2  and  C_3 
REMARK    2  A    between atoms: C_4  and  N_5 
REMARK       I    between atoms: N_5  and  C_6 
REMARK       I    between atoms: C_6  and  N_7 
REMARK    3  A    between atoms: N_7  and  C_8 
REMARK    4  A    between atoms: C_11  and  C_12 
REMARK    5  A    between atoms: C_12  and  C_13 
REMARK       I    between atoms: C_13  and  N_14 
REMARK    6  A    between atoms: N_14  and  C_15 
REMARK    7  A    between atoms: C_18  and  O_19 
REMARK    8  A    between atoms: O_19  and  C_20 
ROOT
HETATM    1  C   UNL     1       2.841  30.714  49.595  1.00  0.00     0.174 A 
HETATM    2  S   UNL     1       4.356  31.436  49.906  1.00  0.00    -0.062 SA
HETATM    3  C   UNL     1       4.476  30.518  51.348  1.00  0.00     0.081 A 
HETATM    4  C   UNL     1       3.352  29.725  51.507  1.00  0.00     0.052 A 
HETATM    5  N   UNL     1       2.439  29.825  50.466  1.00  0.00    -0.228 NA
ENDROOT
BRANCH   4   6
HETATM    6  C   UNL     1       3.030  28.775  52.613  1.00  0.00     0.163 C 
BRANCH   6   7
HETATM    7  C   UNL     1       4.243  28.001  53.105  1.00  0.00     0.227 C 
HETATM    8  N   UNL     1       4.424  26.784  52.463  1.00  0.00    -0.327 N 
HETATM    9  H   UNL     1       3.750  26.536  51.749  1.00  0.00     0.169 HD
HETATM   10  O   UNL     1       4.957  28.462  53.992  1.00  0.00    -0.273 OA
BRANCH   8  11
HETATM   11  C   UNL     1       5.464  25.852  52.681  1.00  0.00     0.034 A 
HETATM   12  C   UNL     1       5.486  24.943  53.741  1.00  0.00     0.032 A 
HETATM   13  C   UNL     1       6.559  24.060  53.900  1.00  0.00     0.039 A 
HETATM   14  C   UNL     1       7.613  24.070  52.991  1.00  0.00     0.076 A 
HETATM   15  C   UNL     1       7.618  24.984  51.939  1.00  0.00     0.039 A 
HETATM   16  C   UNL     1       6.538  25.861  51.777  1.00  0.00     0.032 A 
BRANCH  14  17
HETATM   17  O   UNL     1       8.672  23.235  53.241  1.00  0.00    -0.311 OA
BRANCH  17  18
HETATM   18  C   UNL     1       8.563  22.306  54.252  1.00  0.00     0.076 A 
HETATM   19  C   UNL     1       8.446  20.978  53.832  1.00  0.00     0.037 A 
HETATM   20  C   UNL     1       8.367  19.946  54.768  1.00  0.00     0.003 A 
HETATM   21  C   UNL     1       8.411  20.239  56.130  1.00  0.00     0.000 A 
HETATM   22  C   UNL     1       8.543  21.561  56.554  1.00  0.00     0.003 A 
HETATM   23  C   UNL     1       8.629  22.595  55.617  1.00  0.00     0.037 A 
ENDBRANCH  17  18
ENDBRANCH  14  17
ENDBRANCH   8  11
ENDBRANCH   6   7
ENDBRANCH   4   6
BRANCH   1  24
HETATM   24  N   UNL     1       2.260  31.135  48.433  1.00  0.00    -0.287 N 
HETATM   25  C   UNL     1       2.692  30.883  47.178  1.00  0.00     0.326 C 
HETATM   26  N   UNL     1       3.437  29.798  46.863  1.00  0.00    -0.306 N 
HETATM   27  O   UNL     1       2.452  31.714  46.296  1.00  0.00    -0.247 OA
HETATM   28  H   UNL     1       4.015  29.952  46.049  1.00  0.00     0.171 HD
HETATM   29  H   UNL     1       1.606  31.896  48.517  1.00  0.00     0.172 HD
BRANCH  26  30
HETATM   30  C   UNL     1       3.352  28.463  47.314  1.00  0.00     0.069 A 
HETATM   31  C   UNL     1       2.159  27.740  47.483  1.00  0.00     0.095 A 
HETATM   32  C   UNL     1       2.196  26.429  47.975  1.00  0.00     0.039 A 
HETATM   33  C   UNL     1       3.418  25.808  48.235  1.00  0.00     0.003 A 
HETATM   34  C   UNL     1       4.606  26.495  48.004  1.00  0.00     0.002 A 
HETATM   35  C   UNL     1       4.572  27.811  47.539  1.00  0.00     0.032 A 
BRANCH  31  36
HETATM   36  O   UNL     1       0.954  28.311  47.162  1.00  0.00    -0.354 OA
HETATM   37  C   UNL     1       0.244  27.568  46.173  1.00  0.00     0.210 C 
ENDBRANCH  31  36
ENDBRANCH  26  30
ENDBRANCH   1  24
TORSDOF 8
ENDMDL
MODEL 3
REMARK VINA RESULT:      -8.7      5.787      9.342
REMARK  8 active torsions:
REMARK  status: ('A' for Active; 'I' for Inactive)
REMARK    1  A    between atoms: O_2  and  C_3 
REMARK    2  A    between atoms: C_4  and  N_5 
REMARK       I    between atoms: N_5  and  C_6 
REMARK       I    between atoms: C_6  and  N_7 
REMARK    3  A    between atoms: N_7  and  C_8 
REMARK    4  A    between atoms: C_11  and  C_12 
REMARK    5  A    between atoms: C_12  and  C_13 
REMARK       I    between atoms: C_13  and  N_14 
REMARK    6  A    between atoms: N_14  and  C_15 
REMARK    7  A    between atoms: C_18  and  O_19 
REMARK    8  A    between atoms: O_19  and  C_20 
ROOT
HETATM    1  C   UNL     1       5.941  32.147  59.481  1.00  0.00     0.174 A 
HETATM    2  S   UNL     1       4.328  31.640  59.713  1.00  0.00    -0.062 SA
HETATM    3  C   UNL     1       4.122  31.582  58.012  1.00  0.00     0.081 A 
HETATM    4  C   UNL     1       5.291  31.960  57.374  1.00  0.00     0.052 A 
HETATM    5  N   UNL     1       6.340  32.245  58.239  1.00  0.00    -0.228 NA
ENDROOT
BRANCH   4   6
HETATM    6  C   UNL     1       5.564  32.059  55.909  1.00  0.00     0.163 C 
BRANCH   6   7
HETATM    7  C   UNL     1       5.306  30.758  55.166  1.00  0.00     0.227 C 
HETATM    8  N   UNL     1       6.257  29.778  55.414  1.00  0.00    -0.327 N 
HETATM    9  H   UNL     1       7.010  30.018  56.048  1.00  0.00     0.169 HD
HETATM   10  O   UNL     1       4.330  30.646  54.428  1.00  0.00    -0.273 OA
BRANCH   8  11
HETATM   11  C   UNL     1       6.284  28.465  54.893  1.00  0.00     0.034 A 
HETATM   12  C   UNL     1       7.244  28.004  53.989  1.00  0.00     0.032 A 
HETATM   13  C   UNL     1       7.196  26.693  53.505  1.00  0.00     0.039 A 
HETATM   14  C   UNL     1       6.193  25.828  53.931  1.00  0.00     0.076 A 
HETATM   15  C   UNL     1       5.214  26.276  54.816  1.00  0.00     0.039 A 
HETATM   16  C   UNL     1       5.270  27.586  55.306  1.00  0.00     0.032 A 
BRANCH  14  17
HETATM   17  O   UNL     1       6.153  24.579  53.364  1.00  0.00    -0.311 OA
BRANCH  17  18
HETATM   18  C   UNL     1       7.061  23.630  53.780  1.00  0.00     0.076 A 
HETATM   19  C   UNL     1       7.089  23.394  55.157  1.00  0.00     0.037 A 
HETATM   20  C   UNL     1       7.942  22.426  55.690  1.00  0.00     0.003 A 
HETATM   21  C   UNL     1       8.767  21.687  54.844  1.00  0.00     0.000 A 
HETATM   22  C   UNL     1       8.732  21.908  53.468  1.00  0.00     0.003 A 
HETATM   23  C   UNL     1       7.872  22.872  52.933  1.00  0.00     0.037 A 
ENDBRANCH  17  18
ENDBRANCH  14  17
ENDBRANCH   8  11
ENDBRANCH   6   7
ENDBRANCH   4   6
BRANCH   1  24
HETATM   24  N   UNL     1       6.629  32.342  60.644  1.00  0.00    -0.287 N 
HETATM   25  C   UNL     1       7.426  31.450  61.270  1.00  0.00     0.326 C 
HETATM   26  N   UNL     1       8.056  30.445  60.617  1.00  0.00    -0.306 N 
HETATM   27  O   UNL     1       7.529  31.513  62.499  1.00  0.00    -0.247 OA
HETATM   28  H   UNL     1       8.246  29.655  61.217  1.00  0.00     0.171 HD
HETATM   29  H   UNL     1       6.325  33.117  61.211  1.00  0.00     0.172 HD
BRANCH  26  30
HETATM   30  C   UNL     1       8.690  30.426  59.356  1.00  0.00     0.069 A 
HETATM   31  C   UNL     1       8.343  29.579  58.288  1.00  0.00     0.095 A 
HETATM   32  C   UNL     1       9.070  29.624  57.092  1.00  0.00     0.039 A 
HETATM   33  C   UNL     1      10.097  30.553  56.925  1.00  0.00     0.003 A 
HETATM   34  C   UNL     1      10.400  31.442  57.952  1.00  0.00     0.002 A 
HETATM   35  C   UNL     1       9.695  31.383  59.157  1.00  0.00     0.032 A 
BRANCH  31  36
HETATM   36  O   UNL     1       7.289  28.710  58.411  1.00  0.00    -0.354 OA
HETATM   37  C   UNL     1       7.605  27.399  57.947  1.00  0.00     0.210 C 
ENDBRANCH  31  36
ENDBRANCH  26  30
ENDBRANCH   1  24
TORSDOF 8
ENDMDL
MODEL 4
REMARK VINA RESULT:      -8.6      9.008     11.772
REMARK  8 active torsions:
REMARK  status: ('A' for Active; 'I' for Inactive)
REMARK    1  A    between atoms: O_2  and  C_3 
REMARK    2  A    between atoms: C_4  and  N_5 
REMARK       I    between atoms: N_5  and  C_6 
REMARK       I    between atoms: C_6  and  N_7 
REMARK    3  A    between atoms: N_7  and  C_8 
REMARK    4  A    between atoms: C_11  and  C_12 
REMARK    5  A    between atoms: C_12  and  C_13 
REMARK       I    between atoms: C_13  and  N_14 
REMARK    6  A    between atoms: N_14  and  C_15 
REMARK    7  A    between atoms: C_18  and  O_19 
REMARK    8  A    between atoms: O_19  and  C_20 
ROOT
HETATM    1  C   UNL     1       5.512  32.218  61.493  1.00  0.00     0.174 A 
HETATM    2  S   UNL     1       3.816  32.135  61.671  1.00  0.00    -0.062 SA
HETATM    3  C   UNL     1       3.646  32.399  59.986  1.00  0.00     0.081 A 
HETATM    4  C   UNL     1       4.889  32.542  59.395  1.00  0.00     0.052 A 
HETATM    5  N   UNL     1       5.954  32.396  60.275  1.00  0.00    -0.228 NA
ENDROOT
BRANCH   4   6
HETATM    6  C   UNL     1       5.215  32.790  57.958  1.00  0.00     0.163 C 
BRANCH   6   7
HETATM    7  C   UNL     1       5.450  31.510  57.172  1.00  0.00     0.227 C 
HETATM    8  N   UNL     1       5.815  30.429  57.963  1.00  0.00    -0.327 N 
HETATM    9  H   UNL     1       5.887  30.593  58.960  1.00  0.00     0.169 HD
HETATM   10  O   UNL     1       5.316  31.497  55.950  1.00  0.00    -0.273 OA
BRANCH   8  11
HETATM   11  C   UNL     1       6.079  29.109  57.533  1.00  0.00     0.034 A 
HETATM   12  C   UNL     1       5.119  28.266  56.969  1.00  0.00     0.032 A 
HETATM   13  C   UNL     1       5.452  26.964  56.582  1.00  0.00     0.039 A 
HETATM   14  C   UNL     1       6.754  26.499  56.744  1.00  0.00     0.076 A 
HETATM   15  C   UNL     1       7.720  27.319  57.324  1.00  0.00     0.039 A 
HETATM   16  C   UNL     1       7.385  28.625  57.703  1.00  0.00     0.032 A 
BRANCH  14  17
HETATM   17  O   UNL     1       7.003  25.191  56.417  1.00  0.00    -0.311 OA
BRANCH  17  18
HETATM   18  C   UNL     1       7.314  24.879  55.111  1.00  0.00     0.076 A 
HETATM   19  C   UNL     1       7.317  23.514  54.809  1.00  0.00     0.037 A 
HETATM   20  C   UNL     1       7.580  23.080  53.509  1.00  0.00     0.003 A 
HETATM   21  C   UNL     1       7.836  24.012  52.504  1.00  0.00     0.000 A 
HETATM   22  C   UNL     1       7.818  25.376  52.798  1.00  0.00     0.003 A 
HETATM   23  C   UNL     1       7.547  25.811  54.098  1.00  0.00     0.037 A 
ENDBRANCH  17  18
ENDBRANCH  14  17
ENDBRANCH   8  11
ENDBRANCH   6   7
ENDBRANCH   4   6
BRANCH   1  24
HETATM   24  N   UNL     1       6.196  32.038  62.661  1.00  0.00    -0.287 N 
HETATM   25  C   UNL     1       6.982  32.942  63.283  1.00  0.00     0.326 C 
HETATM   26  N   UNL     1       6.820  34.278  63.137  1.00  0.00    -0.306 N 
HETATM   27  O   UNL     1       7.930  32.532  63.960  1.00  0.00    -0.247 OA
HETATM   28  H   UNL     1       7.678  34.789  63.291  1.00  0.00     0.171 HD
HETATM   29  H   UNL     1       6.329  31.082  62.951  1.00  0.00     0.172 HD
BRANCH  26  30
HETATM   30  C   UNL     1       5.645  35.057  63.058  1.00  0.00     0.069 A 
HETATM   31  C   UNL     1       4.833  35.410  64.150  1.00  0.00     0.095 A 
HETATM   32  C   UNL     1       3.667  36.158  63.944  1.00  0.00     0.039 A 
HETATM   33  C   UNL     1       3.338  36.616  62.668  1.00  0.00     0.003 A 
HETATM   34  C   UNL     1       4.175  36.329  61.593  1.00  0.00     0.002 A 
HETATM   35  C   UNL     1       5.325  35.561  61.790  1.00  0.00     0.032 A 
BRANCH  31  36
HETATM   36  O   UNL     1       5.181  35.030  65.421  1.00  0.00    -0.354 OA
HETATM   37  C   UNL     1       4.446  33.894  65.870  1.00  0.00     0.210 C 
ENDBRANCH  31  36
ENDBRANCH  26  30
ENDBRANCH   1  24
TORSDOF 8
ENDMDL
MODEL 5
REMARK VINA RESULT:      -8.6     10.279     13.319
REMARK  8 active torsions:
REMARK  status: ('A' for Active; 'I' for Inactive)
REMARK    1  A    between atoms: O_2  and  C_3 
REMARK    2  A    between atoms: C_4  and  N_5 
REMARK       I    between atoms: N_5  and  C_6 
REMARK       I    between atoms: C_6  and  N_7 
REMARK    3  A    between atoms: N_7  and  C_8 
REMARK    4  A    between atoms: C_11  and  C_12 
REMARK    5  A    between atoms: C_12  and  C_13 
REMARK       I    between atoms: C_13  and  N_14 
REMARK    6  A    between atoms: N_14  and  C_15 
REMARK    7  A    between atoms: C_18  and  O_19 
REMARK    8  A    between atoms: O_19  and  C_20 
ROOT
HETATM    1  C   UNL     1       3.614  35.967  63.380  1.00  0.00     0.174 A 
HETATM    2  S   UNL     1       4.958  36.742  62.669  1.00  0.00    -0.062 SA
HETATM    3  C   UNL     1       4.371  36.296  61.121  1.00  0.00     0.081 A 
HETATM    4  C   UNL     1       3.194  35.578  61.243  1.00  0.00     0.052 A 
HETATM    5  N   UNL     1       2.753  35.432  62.552  1.00  0.00    -0.228 NA
ENDROOT
BRANCH   4   6
HETATM    6  C   UNL     1       2.344  34.991  60.164  1.00  0.00     0.163 C 
BRANCH   6   7
HETATM    7  C   UNL     1       3.148  34.233  59.120  1.00  0.00     0.227 C 
HETATM    8  N   UNL     1       3.645  33.019  59.574  1.00  0.00    -0.327 N 
HETATM    9  H   UNL     1       3.431  32.763  60.530  1.00  0.00     0.169 HD
HETATM   10  O   UNL     1       3.309  34.704  57.997  1.00  0.00    -0.273 OA
BRANCH   8  11
HETATM   11  C   UNL     1       4.407  32.082  58.840  1.00  0.00     0.034 A 
HETATM   12  C   UNL     1       5.797  31.971  58.925  1.00  0.00     0.032 A 
HETATM   13  C   UNL     1       6.485  31.028  58.154  1.00  0.00     0.039 A 
HETATM   14  C   UNL     1       5.785  30.179  57.302  1.00  0.00     0.076 A 
HETATM   15  C   UNL     1       4.401  30.289  57.189  1.00  0.00     0.039 A 
HETATM   16  C   UNL     1       3.714  31.228  57.969  1.00  0.00     0.032 A 
BRANCH  14  17
HETATM   17  O   UNL     1       6.519  29.326  56.517  1.00  0.00    -0.311 OA
BRANCH  17  18
HETATM   18  C   UNL     1       6.537  27.984  56.827  1.00  0.00     0.076 A 
HETATM   19  C   UNL     1       5.429  27.255  56.386  1.00  0.00     0.037 A 
HETATM   20  C   UNL     1       5.355  25.879  56.609  1.00  0.00     0.003 A 
HETATM   21  C   UNL     1       6.394  25.227  57.270  1.00  0.00     0.000 A 
HETATM   22  C   UNL     1       7.510  25.947  57.698  1.00  0.00     0.003 A 
HETATM   23  C   UNL     1       7.587  27.323  57.468  1.00  0.00     0.037 A 
ENDBRANCH  17  18
ENDBRANCH  14  17
ENDBRANCH   8  11
ENDBRANCH   6   7
ENDBRANCH   4   6
BRANCH   1  24
HETATM   24  N   UNL     1       3.590  36.049  64.743  1.00  0.00    -0.287 N 
HETATM   25  C   UNL     1       3.550  35.017  65.613  1.00  0.00     0.326 C 
HETATM   26  N   UNL     1       4.024  33.785  65.313  1.00  0.00    -0.306 N 
HETATM   27  O   UNL     1       2.996  35.187  66.704  1.00  0.00    -0.247 OA
HETATM   28  H   UNL     1       3.568  33.057  65.844  1.00  0.00     0.171 HD
HETATM   29  H   UNL     1       3.330  36.943  65.127  1.00  0.00     0.172 HD
BRANCH  26  30
HETATM   30  C   UNL     1       5.176  33.395  64.596  1.00  0.00     0.069 A 
HETATM   31  C   UNL     1       5.173  32.730  63.358  1.00  0.00     0.095 A 
HETATM   32  C   UNL     1       6.382  32.359  62.757  1.00  0.00     0.039 A 
HETATM   33  C   UNL     1       7.598  32.705  63.346  1.00  0.00     0.003 A 
HETATM   34  C   UNL     1       7.610  33.425  64.537  1.00  0.00     0.002 A 
HETATM   35  C   UNL     1       6.406  33.774  65.153  1.00  0.00     0.032 A 
BRANCH  31  36
HETATM   36  O   UNL     1       3.987  32.447  62.730  1.00  0.00    -0.354 OA
HETATM   37  C   UNL     1       3.895  31.081  62.327  1.00  0.00     0.210 C 
ENDBRANCH  31  36
ENDBRANCH  26  30
ENDBRANCH   1  24
TORSDOF 8
ENDMDL
MODEL 6
REMARK VINA RESULT:      -8.6      9.241     11.924
REMARK  8 active torsions:
REMARK  status: ('A' for Active; 'I' for Inactive)
REMARK    1  A    between atoms: O_2  and  C_3 
REMARK    2  A    between atoms: C_4  and  N_5 
REMARK       I    between atoms: N_5  and  C_6 
REMARK       I    between atoms: C_6  and  N_7 
REMARK    3  A    between atoms: N_7  and  C_8 
REMARK    4  A    between atoms: C_11  and  C_12 
REMARK    5  A    between atoms: C_12  and  C_13 
REMARK       I    between atoms: C_13  and  N_14 
REMARK    6  A    between atoms: N_14  and  C_15 
REMARK    7  A    between atoms: C_18  and  O_19 
REMARK    8  A    between atoms: O_19  and  C_20 
ROOT
HETATM    1  C   UNL     1       4.327  33.047  60.857  1.00  0.00     0.174 A 
HETATM    2  S   UNL     1       4.038  32.116  62.257  1.00  0.00    -0.062 SA
HETATM    3  C   UNL     1       5.727  31.883  62.429  1.00  0.00     0.081 A 
HETATM    4  C   UNL     1       6.406  32.522  61.405  1.00  0.00     0.052 A 
HETATM    5  N   UNL     1       5.582  33.220  60.530  1.00  0.00    -0.228 NA
ENDROOT
BRANCH   4   6
HETATM    6  C   UNL     1       7.877  32.581  61.156  1.00  0.00     0.163 C 
BRANCH   6   7
HETATM    7  C   UNL     1       8.278  31.992  59.813  1.00  0.00     0.227 C 
HETATM    8  N   UNL     1       7.522  30.889  59.441  1.00  0.00    -0.327 N 
HETATM    9  H   UNL     1       6.797  30.592  60.082  1.00  0.00     0.169 HD
HETATM   10  O   UNL     1       9.196  32.489  59.165  1.00  0.00    -0.273 OA
BRANCH   8  11
HETATM   11  C   UNL     1       7.638  30.139  58.249  1.00  0.00     0.034 A 
HETATM   12  C   UNL     1       8.764  29.386  57.908  1.00  0.00     0.032 A 
HETATM   13  C   UNL     1       8.811  28.682  56.701  1.00  0.00     0.039 A 
HETATM   14  C   UNL     1       7.726  28.714  55.830  1.00  0.00     0.076 A 
HETATM   15  C   UNL     1       6.602  29.476  56.144  1.00  0.00     0.039 A 
HETATM   16  C   UNL     1       6.555  30.174  57.358  1.00  0.00     0.032 A 
BRANCH  14  17
HETATM   17  O   UNL     1       7.859  28.066  54.629  1.00  0.00    -0.311 OA
BRANCH  17  18
HETATM   18  C   UNL     1       7.438  26.758  54.528  1.00  0.00     0.076 A 
HETATM   19  C   UNL     1       7.686  26.145  53.296  1.00  0.00     0.037 A 
HETATM   20  C   UNL     1       7.338  24.809  53.090  1.00  0.00     0.003 A 
HETATM   21  C   UNL     1       6.745  24.080  54.119  1.00  0.00     0.000 A 
HETATM   22  C   UNL     1       6.511  24.682  55.354  1.00  0.00     0.003 A 
HETATM   23  C   UNL     1       6.865  26.017  55.564  1.00  0.00     0.037 A 
ENDBRANCH  17  18
ENDBRANCH  14  17
ENDBRANCH   8  11
ENDBRANCH   6   7
ENDBRANCH   4   6
BRANCH   1  24
HETATM   24  N   UNL     1       3.192  33.537  60.278  1.00  0.00    -0.287 N 
HETATM   25  C   UNL     1       2.287  34.363  60.847  1.00  0.00     0.326 C 
HETATM   26  N   UNL     1       2.601  35.213  61.852  1.00  0.00    -0.306 N 
HETATM   27  O   UNL     1       1.110  34.289  60.480  1.00  0.00    -0.247 OA
HETATM   28  H   UNL     1       1.805  35.431  62.434  1.00  0.00     0.171 HD
HETATM   29  H   UNL     1       2.871  33.051  59.455  1.00  0.00     0.172 HD
BRANCH  26  30
HETATM   30  C   UNL     1       3.750  36.006  62.059  1.00  0.00     0.069 A 
HETATM   31  C   UNL     1       4.588  35.940  63.185  1.00  0.00     0.095 A 
HETATM   32  C   UNL     1       5.683  36.806  63.298  1.00  0.00     0.039 A 
HETATM   33  C   UNL     1       5.990  37.692  62.265  1.00  0.00     0.003 A 
HETATM   34  C   UNL     1       5.205  37.715  61.116  1.00  0.00     0.002 A 
HETATM   35  C   UNL     1       4.098  36.871  61.011  1.00  0.00     0.032 A 
BRANCH  31  36
HETATM   36  O   UNL     1       4.342  35.024  64.176  1.00  0.00    -0.354 OA
HETATM   37  C   UNL     1       5.538  34.568  64.807  1.00  0.00     0.210 C 
ENDBRANCH  31  36
ENDBRANCH  26  30
ENDBRANCH   1  24
TORSDOF 8
ENDMDL
MODEL 7
REMARK VINA RESULT:      -8.4      9.623     12.427
REMARK  8 active torsions:
REMARK  status: ('A' for Active; 'I' for Inactive)
REMARK    1  A    between atoms: O_2  and  C_3 
REMARK    2  A    between atoms: C_4  and  N_5 
REMARK       I    between atoms: N_5  and  C_6 
REMARK       I    between atoms: C_6  and  N_7 
REMARK    3  A    between atoms: N_7  and  C_8 
REMARK    4  A    between atoms: C_11  and  C_12 
REMARK    5  A    between atoms: C_12  and  C_13 
REMARK       I    between atoms: C_13  and  N_14 
REMARK    6  A    between atoms: N_14  and  C_15 
REMARK    7  A    between atoms: C_18  and  O_19 
REMARK    8  A    between atoms: O_19  and  C_20 
ROOT
HETATM    1  C   UNL     1       5.364  32.614  63.077  1.00  0.00     0.174 A 
HETATM    2  S   UNL     1       4.377  32.484  61.691  1.00  0.00    -0.062 SA
HETATM    3  C   UNL     1       5.784  32.287  60.731  1.00  0.00     0.081 A 
HETATM    4  C   UNL     1       6.917  32.340  61.525  1.00  0.00     0.052 A 
HETATM    5  N   UNL     1       6.651  32.491  62.880  1.00  0.00    -0.228 NA
ENDROOT
BRANCH   4   6
HETATM    6  C   UNL     1       8.348  32.220  61.116  1.00  0.00     0.163 C 
BRANCH   6   7
HETATM    7  C   UNL     1       8.519  31.758  59.678  1.00  0.00     0.227 C 
HETATM    8  N   UNL     1       7.770  30.634  59.361  1.00  0.00    -0.327 N 
HETATM    9  H   UNL     1       7.197  30.241  60.097  1.00  0.00     0.169 HD
HETATM   10  O   UNL     1       9.268  32.365  58.915  1.00  0.00    -0.273 OA
BRANCH   8  11
HETATM   11  C   UNL     1       7.698  29.982  58.109  1.00  0.00     0.034 A 
HETATM   12  C   UNL     1       6.614  30.090  57.235  1.00  0.00     0.032 A 
HETATM   13  C   UNL     1       6.609  29.400  56.018  1.00  0.00     0.039 A 
HETATM   14  C   UNL     1       7.695  28.608  55.660  1.00  0.00     0.076 A 
HETATM   15  C   UNL     1       8.776  28.472  56.528  1.00  0.00     0.039 A 
HETATM   16  C   UNL     1       8.782  29.170  57.742  1.00  0.00     0.032 A 
BRANCH  14  17
HETATM   17  O   UNL     1       7.600  27.897  54.490  1.00  0.00    -0.311 OA
BRANCH  17  18
HETATM   18  C   UNL     1       7.350  26.544  54.552  1.00  0.00     0.076 A 
HETATM   19  C   UNL     1       7.705  25.819  53.410  1.00  0.00     0.037 A 
HETATM   20  C   UNL     1       7.534  24.434  53.372  1.00  0.00     0.003 A 
HETATM   21  C   UNL     1       7.010  23.769  54.479  1.00  0.00     0.000 A 
HETATM   22  C   UNL     1       6.669  24.486  55.626  1.00  0.00     0.003 A 
HETATM   23  C   UNL     1       6.847  25.871  55.668  1.00  0.00     0.037 A 
ENDBRANCH  17  18
ENDBRANCH  14  17
ENDBRANCH   8  11
ENDBRANCH   6   7
ENDBRANCH   4   6
BRANCH   1  24
HETATM   24  N   UNL     1       4.663  32.786  64.237  1.00  0.00    -0.287 N 
HETATM   25  C   UNL     1       4.758  33.828  65.090  1.00  0.00     0.326 C 
HETATM   26  N   UNL     1       5.162  35.060  64.701  1.00  0.00    -0.306 N 
HETATM   27  O   UNL     1       4.532  33.631  66.288  1.00  0.00    -0.247 OA
HETATM   28  H   UNL     1       5.578  35.586  65.456  1.00  0.00     0.171 HD
HETATM   29  H   UNL     1       4.227  31.961  64.615  1.00  0.00     0.172 HD
BRANCH  26  30
HETATM   30  C   UNL     1       4.878  35.791  63.527  1.00  0.00     0.069 A 
HETATM   31  C   UNL     1       3.646  35.789  62.849  1.00  0.00     0.095 A 
HETATM   32  C   UNL     1       3.493  36.527  61.669  1.00  0.00     0.039 A 
HETATM   33  C   UNL     1       4.537  37.321  61.193  1.00  0.00     0.003 A 
HETATM   34  C   UNL     1       5.736  37.382  61.896  1.00  0.00     0.002 A 
HETATM   35  C   UNL     1       5.902  36.627  63.060  1.00  0.00     0.032 A 
BRANCH  31  36
HETATM   36  O   UNL     1       2.588  35.072  63.345  1.00  0.00    -0.354 OA
HETATM   37  C   UNL     1       1.660  34.697  62.328  1.00  0.00     0.210 C 
ENDBRANCH  31  36
ENDBRANCH  26  30
ENDBRANCH   1  24
TORSDOF 8
ENDMDL
MODEL 8
REMARK VINA RESULT:      -8.4      8.347     11.468
REMARK  8 active torsions:
REMARK  status: ('A' for Active; 'I' for Inactive)
REMARK    1  A    between atoms: O_2  and  C_3 
REMARK    2  A    between atoms: C_4  and  N_5 
REMARK       I    between atoms: N_5  and  C_6 
REMARK       I    between atoms: C_6  and  N_7 
REMARK    3  A    between atoms: N_7  and  C_8 
REMARK    4  A    between atoms: C_11  and  C_12 
REMARK    5  A    between atoms: C_12  and  C_13 
REMARK       I    between atoms: C_13  and  N_14 
REMARK    6  A    between atoms: N_14  and  C_15 
REMARK    7  A    between atoms: C_18  and  O_19 
REMARK    8  A    between atoms: O_19  and  C_20 
ROOT
HETATM    1  C   UNL     1       4.217  33.163  60.409  1.00  0.00     0.174 A 
HETATM    2  S   UNL     1       3.163  31.937  59.862  1.00  0.00    -0.062 SA
HETATM    3  C   UNL     1       4.453  31.258  58.960  1.00  0.00     0.081 A 
HETATM    4  C   UNL     1       5.603  32.011  59.126  1.00  0.00     0.052 A 
HETATM    5  N   UNL     1       5.456  33.083  59.996  1.00  0.00    -0.228 NA
ENDROOT
BRANCH   4   6
HETATM    6  C   UNL     1       6.954  31.793  58.528  1.00  0.00     0.163 C 
BRANCH   6   7
HETATM    7  C   UNL     1       7.159  30.374  58.021  1.00  0.00     0.227 C 
HETATM    8  N   UNL     1       6.563  30.131  56.792  1.00  0.00    -0.327 N 
HETATM    9  H   UNL     1       6.064  30.900  56.362  1.00  0.00     0.169 HD
HETATM   10  O   UNL     1       7.800  29.563  58.686  1.00  0.00    -0.273 OA
BRANCH   8  11
HETATM   11  C   UNL     1       6.592  28.926  56.054  1.00  0.00     0.034 A 
HETATM   12  C   UNL     1       7.557  28.626  55.090  1.00  0.00     0.032 A 
HETATM   13  C   UNL     1       7.511  27.417  54.387  1.00  0.00     0.039 A 
HETATM   14  C   UNL     1       6.506  26.492  54.654  1.00  0.00     0.076 A 
HETATM   15  C   UNL     1       5.523  26.783  55.598  1.00  0.00     0.039 A 
HETATM   16  C   UNL     1       5.577  27.991  56.306  1.00  0.00     0.032 A 
BRANCH  14  17
HETATM   17  O   UNL     1       6.469  25.359  53.882  1.00  0.00    -0.311 OA
BRANCH  17  18
HETATM   18  C   UNL     1       7.316  24.317  54.188  1.00  0.00     0.076 A 
HETATM   19  C   UNL     1       7.503  23.381  53.166  1.00  0.00     0.037 A 
HETATM   20  C   UNL     1       8.370  22.303  53.347  1.00  0.00     0.003 A 
HETATM   21  C   UNL     1       9.059  22.160  54.551  1.00  0.00     0.000 A 
HETATM   22  C   UNL     1       8.888  23.100  55.567  1.00  0.00     0.003 A 
HETATM   23  C   UNL     1       8.025  24.184  55.384  1.00  0.00     0.037 A 
ENDBRANCH  17  18
ENDBRANCH  14  17
ENDBRANCH   8  11
ENDBRANCH   6   7
ENDBRANCH   4   6
BRANCH   1  24
HETATM   24  N   UNL     1       3.628  34.054  61.260  1.00  0.00    -0.287 N 
HETATM   25  C   UNL     1       3.372  33.869  62.573  1.00  0.00     0.326 C 
HETATM   26  N   UNL     1       4.086  33.017  63.346  1.00  0.00    -0.306 N 
HETATM   27  O   UNL     1       2.404  34.451  63.072  1.00  0.00    -0.247 OA
HETATM   28  H   UNL     1       3.553  32.672  64.131  1.00  0.00     0.171 HD
HETATM   29  H   UNL     1       3.119  34.807  60.826  1.00  0.00     0.172 HD
BRANCH  26  30
HETATM   30  C   UNL     1       5.470  32.743  63.373  1.00  0.00     0.069 A 
HETATM   31  C   UNL     1       6.430  33.489  64.079  1.00  0.00     0.095 A 
HETATM   32  C   UNL     1       7.784  33.143  64.001  1.00  0.00     0.039 A 
HETATM   33  C   UNL     1       8.185  32.018  63.280  1.00  0.00     0.003 A 
HETATM   34  C   UNL     1       7.232  31.234  62.636  1.00  0.00     0.002 A 
HETATM   35  C   UNL     1       5.883  31.591  62.690  1.00  0.00     0.032 A 
BRANCH  31  36
HETATM   36  O   UNL     1       6.044  34.555  64.851  1.00  0.00    -0.354 OA
HETATM   37  C   UNL     1       5.884  34.203  66.224  1.00  0.00     0.210 C 
ENDBRANCH  31  36
ENDBRANCH  26  30
ENDBRANCH   1  24
TORSDOF 8
ENDMDL
MODEL 9
REMARK VINA RESULT:      -8.3      7.698     10.539
REMARK  8 active torsions:
REMARK  status: ('A' for Active; 'I' for Inactive)
REMARK    1  A    between atoms: O_2  and  C_3 
REMARK    2  A    between atoms: C_4  and  N_5 
REMARK       I    between atoms: N_5  and  C_6 
REMARK       I    between atoms: C_6  and  N_7 
REMARK    3  A    between atoms: N_7  and  C_8 
REMARK    4  A    between atoms: C_11  and  C_12 
REMARK    5  A    between atoms: C_12  and  C_13 
REMARK       I    between atoms: C_13  and  N_14 
REMARK    6  A    between atoms: N_14  and  C_15 
REMARK    7  A    between atoms: C_18  and  O_19 
REMARK    8  A    between atoms: O_19  and  C_20 
ROOT
HETATM    1  C   UNL     1       3.532  31.808  59.814  1.00  0.00     0.174 A 
HETATM    2  S   UNL     1       3.184  33.473  59.676  1.00  0.00    -0.062 SA
HETATM    3  C   UNL     1       4.319  33.585  58.397  1.00  0.00     0.081 A 
HETATM    4  C   UNL     1       4.898  32.349  58.160  1.00  0.00     0.052 A 
HETATM    5  N   UNL     1       4.402  31.330  58.962  1.00  0.00    -0.228 NA
ENDROOT
BRANCH   4   6
HETATM    6  C   UNL     1       5.934  31.984  57.148  1.00  0.00     0.163 C 
BRANCH   6   7
HETATM    7  C   UNL     1       5.834  30.538  56.690  1.00  0.00     0.227 C 
HETATM    8  N   UNL     1       6.573  29.656  57.465  1.00  0.00    -0.327 N 
HETATM    9  H   UNL     1       7.093  30.049  58.240  1.00  0.00     0.169 HD
HETATM   10  O   UNL     1       5.148  30.241  55.714  1.00  0.00    -0.273 OA
BRANCH   8  11
HETATM   11  C   UNL     1       6.667  28.254  57.306  1.00  0.00     0.034 A 
HETATM   12  C   UNL     1       7.862  27.537  57.407  1.00  0.00     0.032 A 
HETATM   13  C   UNL     1       7.879  26.151  57.222  1.00  0.00     0.039 A 
HETATM   14  C   UNL     1       6.698  25.469  56.948  1.00  0.00     0.076 A 
HETATM   15  C   UNL     1       5.500  26.170  56.823  1.00  0.00     0.039 A 
HETATM   16  C   UNL     1       5.485  27.557  57.018  1.00  0.00     0.032 A 
BRANCH  14  17
HETATM   17  O   UNL     1       6.788  24.122  56.702  1.00  0.00    -0.311 OA
BRANCH  17  18
HETATM   18  C   UNL     1       7.147  23.698  55.441  1.00  0.00     0.076 A 
HETATM   19  C   UNL     1       7.576  22.370  55.358  1.00  0.00     0.037 A 
HETATM   20  C   UNL     1       7.930  21.819  54.126  1.00  0.00     0.003 A 
HETATM   21  C   UNL     1       7.850  22.594  52.970  1.00  0.00     0.000 A 
HETATM   22  C   UNL     1       7.408  23.914  53.045  1.00  0.00     0.003 A 
HETATM   23  C   UNL     1       7.047  24.465  54.278  1.00  0.00     0.037 A 
ENDBRANCH  17  18
ENDBRANCH  14  17
ENDBRANCH   8  11
ENDBRANCH   6   7
ENDBRANCH   4   6
BRANCH   1  24
HETATM   24  N   UNL     1       2.807  31.174  60.783  1.00  0.00    -0.287 N 
HETATM   25  C   UNL     1       3.286  30.634  61.924  1.00  0.00     0.326 C 
HETATM   26  N   UNL     1       4.426  31.062  62.517  1.00  0.00    -0.306 N 
HETATM   27  O   UNL     1       2.694  29.665  62.410  1.00  0.00    -0.247 OA
HETATM   28  H   UNL     1       4.866  30.340  63.070  1.00  0.00     0.171 HD
HETATM   29  H   UNL     1       1.888  30.863  60.514  1.00  0.00     0.172 HD
BRANCH  26  30
HETATM   30  C   UNL     1       4.940  32.366  62.684  1.00  0.00     0.069 A 
HETATM   31  C   UNL     1       6.130  32.847  62.112  1.00  0.00     0.095 A 
HETATM   32  C   UNL     1       6.561  34.152  62.380  1.00  0.00     0.039 A 
HETATM   33  C   UNL     1       5.780  35.006  63.160  1.00  0.00     0.003 A 
HETATM   34  C   UNL     1       4.566  34.559  63.673  1.00  0.00     0.002 A 
HETATM   35  C   UNL     1       4.146  33.249  63.429  1.00  0.00     0.032 A 
BRANCH  31  36
HETATM   36  O   UNL     1       6.872  32.043  61.284  1.00  0.00    -0.354 OA
HETATM   37  C   UNL     1       8.163  31.755  61.817  1.00  0.00     0.210 C 
ENDBRANCH  31  36
ENDBRANCH  26  30
ENDBRANCH   1  24
TORSDOF 8
ENDMDL
MODEL 10
REMARK VINA RESULT:      -8.3      2.612      4.565
REMARK  8 active torsions:
REMARK  status: ('A' for Active; 'I' for Inactive)
REMARK    1  A    between atoms: O_2  and  C_3 
REMARK    2  A    between atoms: C_4  and  N_5 
REMARK       I    between atoms: N_5  and  C_6 
REMARK       I    between atoms: C_6  and  N_7 
REMARK    3  A    between atoms: N_7  and  C_8 
REMARK    4  A    between atoms: C_11  and  C_12 
REMARK    5  A    between atoms: C_12  and  C_13 
REMARK       I    between atoms: C_13  and  N_14 
REMARK    6  A    between atoms: N_14  and  C_15 
REMARK    7  A    between atoms: C_18  and  O_19 
REMARK    8  A    between atoms: O_19  and  C_20 
ROOT
HETATM    1  C   UNL     1       2.770  29.959  50.538  1.00  0.00     0.174 A 
HETATM    2  S   UNL     1       1.922  30.538  49.175  1.00  0.00    -0.062 SA
HETATM    3  C   UNL     1       2.747  29.395  48.200  1.00  0.00     0.081 A 
HETATM    4  C   UNL     1       3.621  28.649  48.971  1.00  0.00     0.052 A 
HETATM    5  N   UNL     1       3.592  28.964  50.324  1.00  0.00    -0.228 NA
ENDROOT
BRANCH   4   6
HETATM    6  C   UNL     1       4.539  27.552  48.542  1.00  0.00     0.163 C 
BRANCH   6   7
HETATM    7  C   UNL     1       4.667  26.445  49.576  1.00  0.00     0.227 C 
HETATM    8  N   UNL     1       5.600  26.713  50.567  1.00  0.00    -0.327 N 
HETATM    9  H   UNL     1       6.092  27.597  50.508  1.00  0.00     0.169 HD
HETATM   10  O   UNL     1       3.982  25.428  49.486  1.00  0.00    -0.273 OA
BRANCH   8  11
HETATM   11  C   UNL     1       5.931  25.896  51.671  1.00  0.00     0.034 A 
HETATM   12  C   UNL     1       5.003  25.446  52.614  1.00  0.00     0.032 A 
HETATM   13  C   UNL     1       5.408  24.652  53.690  1.00  0.00     0.039 A 
HETATM   14  C   UNL     1       6.745  24.288  53.826  1.00  0.00     0.076 A 
HETATM   15  C   UNL     1       7.688  24.744  52.907  1.00  0.00     0.039 A 
HETATM   16  C   UNL     1       7.278  25.532  51.825  1.00  0.00     0.032 A 
BRANCH  14  17
HETATM   17  O   UNL     1       7.095  23.571  54.942  1.00  0.00    -0.311 OA
BRANCH  17  18
HETATM   18  C   UNL     1       7.646  22.319  54.783  1.00  0.00     0.076 A 
HETATM   19  C   UNL     1       7.730  21.868  53.462  1.00  0.00     0.037 A 
HETATM   20  C   UNL     1       8.306  20.629  53.175  1.00  0.00     0.003 A 
HETATM   21  C   UNL     1       8.805  19.840  54.209  1.00  0.00     0.000 A 
HETATM   22  C   UNL     1       8.738  20.292  55.527  1.00  0.00     0.003 A 
HETATM   23  C   UNL     1       8.168  21.535  55.815  1.00  0.00     0.037 A 
ENDBRANCH  17  18
ENDBRANCH  14  17
ENDBRANCH   8  11
ENDBRANCH   6   7
ENDBRANCH   4   6
BRANCH   1  24
HETATM   24  N   UNL     1       2.438  30.592  51.702  1.00  0.00    -0.287 N 
HETATM   25  C   UNL     1       3.287  31.189  52.566  1.00  0.00     0.326 C 
HETATM   26  N   UNL     1       4.488  31.687  52.189  1.00  0.00    -0.306 N 
HETATM   27  O   UNL     1       2.982  31.221  53.763  1.00  0.00    -0.247 OA
HETATM   28  H   UNL     1       5.153  31.705  52.949  1.00  0.00     0.171 HD
HETATM   29  H   UNL     1       1.525  30.383  52.072  1.00  0.00     0.172 HD
BRANCH  26  30
HETATM   30  C   UNL     1       4.865  32.389  51.024  1.00  0.00     0.069 A 
HETATM   31  C   UNL     1       4.386  33.657  50.652  1.00  0.00     0.095 A 
HETATM   32  C   UNL     1       4.806  34.241  49.450  1.00  0.00     0.039 A 
HETATM   33  C   UNL     1       5.752  33.602  48.648  1.00  0.00     0.003 A 
HETATM   34  C   UNL     1       6.283  32.379  49.045  1.00  0.00     0.002 A 
HETATM   35  C   UNL     1       5.847  31.781  50.230  1.00  0.00     0.032 A 
BRANCH  31  36
HETATM   36  O   UNL     1       3.511  34.331  51.466  1.00  0.00    -0.354 OA
HETATM   37  C   UNL     1       3.074  35.562  50.895  1.00  0.00     0.210 C 
ENDBRANCH  31  36
ENDBRANCH  26  30
ENDBRANCH   1  24
TORSDOF 8
ENDMDL
