MODEL 1
REMARK VINA RESULT:     -10.7      0.000      0.000
REMARK  5 active torsions:
REMARK  status: ('A' for Active; 'I' for Inactive)
REMARK    1  A    between atoms: C_6  and  O_7 
REMARK    2  A    between atoms: O_7  and  C_8 
REMARK    3  A    between atoms: C_8  and  C_9 
REMARK    4  A    between atoms: C_11  and  C_12 
REMARK       I    between atoms: C_12  and  N_13 
REMARK    5  A    between atoms: N_13  and  C_14 
ROOT
HETATM    1  C   UNL     1       8.270  28.115  57.605  1.00  0.00     0.078 A 
HETATM    2  O   UNL     1       7.946  28.996  58.591  1.00  0.00    -0.307 OA
HETATM    3  C   UNL     1       8.727  30.112  58.439  1.00  0.00     0.143 A 
HETATM    4  C   UNL     1       9.563  29.925  57.351  1.00  0.00     0.045 A 
HETATM    5  C   UNL     1       9.269  28.643  56.817  1.00  0.00     0.038 A 
ENDROOT
BRANCH   3   6
HETATM    6  C   UNL     1       8.533  31.190  59.399  1.00  0.00     0.279 C 
HETATM    7  N   UNL     1       7.770  30.844  60.511  1.00  0.00    -0.321 N 
HETATM    8  H   UNL     1       7.434  29.891  60.549  1.00  0.00     0.169 HD
HETATM    9  O   UNL     1       9.001  32.312  59.224  1.00  0.00    -0.265 OA
BRANCH   7  10
HETATM   10  C   UNL     1       7.380  31.684  61.577  1.00  0.00     0.035 A 
HETATM   11  C   UNL     1       6.120  32.279  61.674  1.00  0.00     0.039 A 
HETATM   12  C   UNL     1       5.824  33.058  62.783  1.00  0.00    -0.022 A 
HETATM   13  C   UNL     1       6.757  33.257  63.799  1.00  0.00    -0.025 A 
HETATM   14  C   UNL     1       4.536  33.734  63.098  1.00  0.00     0.274 C 
HETATM   15  C   UNL     1       6.167  34.077  64.895  1.00  0.00     0.273 C 
HETATM   16  C   UNL     1       8.017  32.690  63.720  1.00  0.00     0.012 A 
HETATM   17  N   UNL     1       4.814  34.539  64.363  1.00  0.00    -0.067 N 
HETATM   18  H   UNL     1       4.941  35.510  64.058  1.00  0.00     0.280 HD
HETATM   19  C   UNL     1       3.713  34.492  65.363  1.00  0.00     0.270 C 
HETATM   20  C   UNL     1       8.324  31.906  62.600  1.00  0.00     0.030 A 
ENDBRANCH   7  10
ENDBRANCH   3   6
BRANCH   1  21
HETATM   21  C   UNL     1       7.517  26.834  57.584  1.00  0.00     0.240 C 
BRANCH  21  22
HETATM   22  O   UNL     1       6.937  26.733  56.287  1.00  0.00    -0.344 OA
BRANCH  22  23
HETATM   23  C   UNL     1       7.159  25.576  55.587  1.00  0.00     0.075 A 
HETATM   24  C   UNL     1       7.483  25.738  54.229  1.00  0.00    -0.028 A 
HETATM   25  C   UNL     1       7.699  24.602  53.429  1.00  0.00     0.016 A 
HETATM   26  C   UNL     1       7.543  27.101  53.596  1.00  0.00     0.051 C 
HETATM   27  C   UNL     1       7.610  23.313  53.966  1.00  0.00    -0.061 A 
HETATM   28  C   UNL     1       7.880  22.111  53.112  1.00  0.00     0.048 C 
HETATM   29  C   UNL     1       7.321  23.168  55.325  1.00  0.00     0.009 A 
HETATM   30  C   UNL     1       7.091  24.288  56.128  1.00  0.00     0.038 A 
ENDBRANCH  22  23
ENDBRANCH  21  22
ENDBRANCH   1  21
TORSDOF 5
ENDMDL
MODEL 2
REMARK VINA RESULT:     -10.2      2.813     10.910
REMARK  5 active torsions:
REMARK  status: ('A' for Active; 'I' for Inactive)
REMARK    1  A    between atoms: C_6  and  O_7 
REMARK    2  A    between atoms: O_7  and  C_8 
REMARK    3  A    between atoms: C_8  and  C_9 
REMARK    4  A    between atoms: C_11  and  C_12 
REMARK       I    between atoms: C_12  and  N_13 
REMARK    5  A    between atoms: N_13  and  C_14 
ROOT
HETATM    1  C   UNL     1       7.595  30.478  58.449  1.00  0.00     0.078 A 
HETATM    2  O   UNL     1       6.970  29.307  58.142  1.00  0.00    -0.307 OA
HETATM    3  C   UNL     1       7.891  28.471  57.566  1.00  0.00     0.143 A 
HETATM    4  C   UNL     1       9.108  29.130  57.497  1.00  0.00     0.045 A 
HETATM    5  C   UNL     1       8.915  30.418  58.064  1.00  0.00     0.038 A 
ENDROOT
BRANCH   3   6
HETATM    6  C   UNL     1       7.426  27.152  57.164  1.00  0.00     0.279 C 
HETATM    7  N   UNL     1       8.441  26.229  56.923  1.00  0.00    -0.321 N 
HETATM    8  H   UNL     1       9.388  26.557  57.053  1.00  0.00     0.169 HD
HETATM    9  O   UNL     1       6.232  26.889  57.042  1.00  0.00    -0.265 OA
BRANCH   7  10
HETATM   10  C   UNL     1       8.298  24.896  56.480  1.00  0.00     0.035 A 
HETATM   11  C   UNL     1       8.059  24.543  55.149  1.00  0.00     0.039 A 
HETATM   12  C   UNL     1       7.973  23.200  54.813  1.00  0.00    -0.022 A 
HETATM   13  C   UNL     1       8.120  22.200  55.772  1.00  0.00    -0.025 A 
HETATM   14  C   UNL     1       7.774  22.617  53.457  1.00  0.00     0.274 C 
HETATM   15  C   UNL     1       8.046  20.854  55.138  1.00  0.00     0.273 C 
HETATM   16  C   UNL     1       8.343  22.524  57.098  1.00  0.00     0.012 A 
HETATM   17  N   UNL     1       7.637  21.116  53.691  1.00  0.00    -0.067 N 
HETATM   18  H   UNL     1       6.633  20.911  53.635  1.00  0.00     0.280 HD
HETATM   19  C   UNL     1       8.353  20.281  52.690  1.00  0.00     0.270 C 
HETATM   20  C   UNL     1       8.427  23.879  57.447  1.00  0.00     0.030 A 
ENDBRANCH   7  10
ENDBRANCH   3   6
BRANCH   1  21
HETATM   21  C   UNL     1       6.763  31.523  59.102  1.00  0.00     0.240 C 
BRANCH  21  22
HETATM   22  O   UNL     1       7.673  32.417  59.736  1.00  0.00    -0.344 OA
BRANCH  22  23
HETATM   23  C   UNL     1       7.439  32.725  61.051  1.00  0.00     0.075 A 
HETATM   24  C   UNL     1       8.409  32.276  61.964  1.00  0.00    -0.028 A 
HETATM   25  C   UNL     1       8.235  32.524  63.336  1.00  0.00     0.016 A 
HETATM   26  C   UNL     1       9.602  31.480  61.510  1.00  0.00     0.051 C 
HETATM   27  C   UNL     1       7.117  33.223  63.807  1.00  0.00    -0.061 A 
HETATM   28  C   UNL     1       6.962  33.514  65.270  1.00  0.00     0.048 C 
HETATM   29  C   UNL     1       6.179  33.693  62.886  1.00  0.00     0.009 A 
HETATM   30  C   UNL     1       6.334  33.442  61.520  1.00  0.00     0.038 A 
ENDBRANCH  22  23
ENDBRANCH  21  22
ENDBRANCH   1  21
TORSDOF 5
ENDMDL
MODEL 3
REMARK VINA RESULT:      -9.8      2.938     10.834
REMARK  5 active torsions:
REMARK  status: ('A' for Active; 'I' for Inactive)
REMARK    1  A    between atoms: C_6  and  O_7 
REMARK    2  A    between atoms: O_7  and  C_8 
REMARK    3  A    between atoms: C_8  and  C_9 
REMARK    4  A    between atoms: C_11  and  C_12 
REMARK       I    between atoms: C_12  and  N_13 
REMARK    5  A    between atoms: N_13  and  C_14 
ROOT
HETATM    1  C   UNL     1       5.998  30.871  58.099  1.00  0.00     0.078 A 
HETATM    2  O   UNL     1       6.969  30.003  57.701  1.00  0.00    -0.307 OA
HETATM    3  C   UNL     1       6.370  28.975  57.022  1.00  0.00     0.143 A 
HETATM    4  C   UNL     1       5.002  29.192  57.003  1.00  0.00     0.045 A 
HETATM    5  C   UNL     1       4.765  30.409  57.695  1.00  0.00     0.038 A 
ENDROOT
BRANCH   3   6
HETATM    6  C   UNL     1       7.240  27.931  56.501  1.00  0.00     0.279 C 
HETATM    7  N   UNL     1       6.575  26.888  55.862  1.00  0.00    -0.321 N 
HETATM    8  H   UNL     1       5.568  26.958  55.816  1.00  0.00     0.169 HD
HETATM    9  O   UNL     1       8.461  27.973  56.632  1.00  0.00    -0.265 OA
BRANCH   7  10
HETATM   10  C   UNL     1       7.145  25.724  55.302  1.00  0.00     0.035 A 
HETATM   11  C   UNL     1       7.551  24.620  56.056  1.00  0.00     0.039 A 
HETATM   12  C   UNL     1       8.064  23.509  55.403  1.00  0.00    -0.022 A 
HETATM   13  C   UNL     1       8.183  23.473  54.015  1.00  0.00    -0.025 A 
HETATM   14  C   UNL     1       8.505  22.223  56.012  1.00  0.00     0.274 C 
HETATM   15  C   UNL     1       8.703  22.149  53.570  1.00  0.00     0.273 C 
HETATM   16  C   UNL     1       7.802  24.559  53.247  1.00  0.00     0.012 A 
HETATM   17  N   UNL     1       9.086  21.419  54.854  1.00  0.00    -0.067 N 
HETATM   18  H   UNL     1      10.105  21.499  54.938  1.00  0.00     0.280 HD
HETATM   19  C   UNL     1       8.716  19.978  54.875  1.00  0.00     0.270 C 
HETATM   20  C   UNL     1       7.286  25.687  53.899  1.00  0.00     0.030 A 
ENDBRANCH   7  10
ENDBRANCH   3   6
BRANCH   1  21
HETATM   21  C   UNL     1       6.448  32.075  58.846  1.00  0.00     0.240 C 
BRANCH  21  22
HETATM   22  O   UNL     1       7.347  31.609  59.848  1.00  0.00    -0.344 OA
BRANCH  22  23
HETATM   23  C   UNL     1       7.268  32.194  61.085  1.00  0.00     0.075 A 
HETATM   24  C   UNL     1       8.226  31.770  62.021  1.00  0.00    -0.028 A 
HETATM   25  C   UNL     1       8.201  32.298  63.324  1.00  0.00     0.016 A 
HETATM   26  C   UNL     1       9.242  30.715  61.679  1.00  0.00     0.051 C 
HETATM   27  C   UNL     1       7.246  33.250  63.699  1.00  0.00    -0.061 A 
HETATM   28  C   UNL     1       7.253  33.834  65.080  1.00  0.00     0.048 C 
HETATM   29  C   UNL     1       6.322  33.687  62.748  1.00  0.00     0.009 A 
HETATM   30  C   UNL     1       6.327  33.161  61.454  1.00  0.00     0.038 A 
ENDBRANCH  22  23
ENDBRANCH  21  22
ENDBRANCH   1  21
TORSDOF 5
ENDMDL
MODEL 4
REMARK VINA RESULT:      -9.5      2.507     10.640
REMARK  5 active torsions:
REMARK  status: ('A' for Active; 'I' for Inactive)
REMARK    1  A    between atoms: C_6  and  O_7 
REMARK    2  A    between atoms: O_7  and  C_8 
REMARK    3  A    between atoms: C_8  and  C_9 
REMARK    4  A    between atoms: C_11  and  C_12 
REMARK       I    between atoms: C_12  and  N_13 
REMARK    5  A    between atoms: N_13  and  C_14 
ROOT
HETATM    1  C   UNL     1       7.739  31.518  59.579  1.00  0.00     0.078 A 
HETATM    2  O   UNL     1       7.545  30.509  58.686  1.00  0.00    -0.307 OA
HETATM    3  C   UNL     1       8.760  30.181  58.142  1.00  0.00     0.143 A 
HETATM    4  C   UNL     1       9.729  31.006  58.690  1.00  0.00     0.045 A 
HETATM    5  C   UNL     1       9.072  31.863  59.611  1.00  0.00     0.038 A 
ENDROOT
BRANCH   3   6
HETATM    6  C   UNL     1       8.776  29.109  57.158  1.00  0.00     0.279 C 
HETATM    7  N   UNL     1       8.057  27.975  57.526  1.00  0.00    -0.321 N 
HETATM    8  H   UNL     1       7.596  28.006  58.425  1.00  0.00     0.169 HD
HETATM    9  O   UNL     1       9.387  29.206  56.096  1.00  0.00    -0.265 OA
BRANCH   7  10
HETATM   10  C   UNL     1       7.930  26.769  56.802  1.00  0.00     0.035 A 
HETATM   11  C   UNL     1       8.403  25.536  57.259  1.00  0.00     0.039 A 
HETATM   12  C   UNL     1       8.192  24.404  56.487  1.00  0.00    -0.022 A 
HETATM   13  C   UNL     1       7.521  24.472  55.267  1.00  0.00    -0.025 A 
HETATM   14  C   UNL     1       8.570  23.001  56.814  1.00  0.00     0.274 C 
HETATM   15  C   UNL     1       7.378  23.111  54.675  1.00  0.00     0.273 C 
HETATM   16  C   UNL     1       7.057  25.682  54.785  1.00  0.00     0.012 A 
HETATM   17  N   UNL     1       8.212  22.197  55.569  1.00  0.00    -0.067 N 
HETATM   18  H   UNL     1       9.094  22.037  55.072  1.00  0.00     0.280 HD
HETATM   19  C   UNL     1       7.580  20.882  55.860  1.00  0.00     0.270 C 
HETATM   20  C   UNL     1       7.269  26.832  55.558  1.00  0.00     0.030 A 
ENDBRANCH   7  10
ENDBRANCH   3   6
BRANCH   1  21
HETATM   21  C   UNL     1       6.534  32.012  60.295  1.00  0.00     0.240 C 
BRANCH  21  22
HETATM   22  O   UNL     1       6.879  33.290  60.821  1.00  0.00    -0.344 OA
BRANCH  22  23
HETATM   23  C   UNL     1       6.901  33.424  62.185  1.00  0.00     0.075 A 
HETATM   24  C   UNL     1       5.999  34.359  62.720  1.00  0.00    -0.028 A 
HETATM   25  C   UNL     1       5.975  34.581  64.108  1.00  0.00     0.016 A 
HETATM   26  C   UNL     1       5.101  35.176  61.833  1.00  0.00     0.051 C 
HETATM   27  C   UNL     1       6.824  33.875  64.967  1.00  0.00    -0.061 A 
HETATM   28  C   UNL     1       6.762  34.092  66.449  1.00  0.00     0.048 C 
HETATM   29  C   UNL     1       7.691  32.923  64.425  1.00  0.00     0.009 A 
HETATM   30  C   UNL     1       7.734  32.703  63.046  1.00  0.00     0.038 A 
ENDBRANCH  22  23
ENDBRANCH  21  22
ENDBRANCH   1  21
TORSDOF 5
ENDMDL
MODEL 5
REMARK VINA RESULT:      -9.4      2.472     10.440
REMARK  5 active torsions:
REMARK  status: ('A' for Active; 'I' for Inactive)
REMARK    1  A    between atoms: C_6  and  O_7 
REMARK    2  A    between atoms: O_7  and  C_8 
REMARK    3  A    between atoms: C_8  and  C_9 
REMARK    4  A    between atoms: C_11  and  C_12 
REMARK       I    between atoms: C_12  and  N_13 
REMARK    5  A    between atoms: N_13  and  C_14 
ROOT
HETATM    1  C   UNL     1       8.647  31.326  60.810  1.00  0.00     0.078 A 
HETATM    2  O   UNL     1       8.349  30.272  60.000  1.00  0.00    -0.307 OA
HETATM    3  C   UNL     1       9.064  30.412  58.839  1.00  0.00     0.143 A 
HETATM    4  C   UNL     1       9.811  31.576  58.914  1.00  0.00     0.045 A 
HETATM    5  C   UNL     1       9.541  32.161  60.179  1.00  0.00     0.038 A 
ENDROOT
BRANCH   3   6
HETATM    6  C   UNL     1       8.893  29.377  57.830  1.00  0.00     0.279 C 
HETATM    7  N   UNL     1       7.663  28.727  57.869  1.00  0.00    -0.321 N 
HETATM    8  H   UNL     1       7.013  29.035  58.580  1.00  0.00     0.169 HD
HETATM    9  O   UNL     1       9.776  29.102  57.020  1.00  0.00    -0.265 OA
BRANCH   7  10
HETATM   10  C   UNL     1       7.231  27.660  57.052  1.00  0.00     0.035 A 
HETATM   11  C   UNL     1       6.307  27.803  56.014  1.00  0.00     0.039 A 
HETATM   12  C   UNL     1       5.979  26.696  55.244  1.00  0.00    -0.022 A 
HETATM   13  C   UNL     1       6.551  25.449  55.487  1.00  0.00    -0.025 A 
HETATM   14  C   UNL     1       5.062  26.647  54.072  1.00  0.00     0.274 C 
HETATM   15  C   UNL     1       6.076  24.454  54.484  1.00  0.00     0.273 C 
HETATM   16  C   UNL     1       7.457  25.278  56.518  1.00  0.00     0.012 A 
HETATM   17  N   UNL     1       4.982  25.171  53.698  1.00  0.00    -0.067 N 
HETATM   18  H   UNL     1       4.090  24.832  54.072  1.00  0.00     0.280 HD
HETATM   19  C   UNL     1       5.015  24.918  52.232  1.00  0.00     0.270 C 
HETATM   20  C   UNL     1       7.791  26.390  57.302  1.00  0.00     0.030 A 
ENDBRANCH   7  10
ENDBRANCH   3   6
BRANCH   1  21
HETATM   21  C   UNL     1       7.979  31.353  62.137  1.00  0.00     0.240 C 
BRANCH  21  22
HETATM   22  O   UNL     1       7.208  32.550  62.171  1.00  0.00    -0.344 OA
BRANCH  22  23
HETATM   23  C   UNL     1       6.754  32.972  63.394  1.00  0.00     0.075 A 
HETATM   24  C   UNL     1       5.357  32.992  63.551  1.00  0.00    -0.028 A 
HETATM   25  C   UNL     1       4.804  33.437  64.764  1.00  0.00     0.016 A 
HETATM   26  C   UNL     1       4.437  32.606  62.426  1.00  0.00     0.051 C 
HETATM   27  C   UNL     1       5.622  33.848  65.823  1.00  0.00    -0.061 A 
HETATM   28  C   UNL     1       5.021  34.284  67.125  1.00  0.00     0.048 C 
HETATM   29  C   UNL     1       7.008  33.789  65.665  1.00  0.00     0.009 A 
HETATM   30  C   UNL     1       7.571  33.361  64.460  1.00  0.00     0.038 A 
ENDBRANCH  22  23
ENDBRANCH  21  22
ENDBRANCH   1  21
TORSDOF 5
ENDMDL
MODEL 6
REMARK VINA RESULT:      -9.1      1.478      1.945
REMARK  5 active torsions:
REMARK  status: ('A' for Active; 'I' for Inactive)
REMARK    1  A    between atoms: C_6  and  O_7 
REMARK    2  A    between atoms: O_7  and  C_8 
REMARK    3  A    between atoms: C_8  and  C_9 
REMARK    4  A    between atoms: C_11  and  C_12 
REMARK       I    between atoms: C_12  and  N_13 
REMARK    5  A    between atoms: N_13  and  C_14 
ROOT
HETATM    1  C   UNL     1       6.285  28.327  56.480  1.00  0.00     0.078 A 
HETATM    2  O   UNL     1       6.807  28.597  57.707  1.00  0.00    -0.307 OA
HETATM    3  C   UNL     1       6.915  29.957  57.835  1.00  0.00     0.143 A 
HETATM    4  C   UNL     1       6.467  30.550  56.665  1.00  0.00     0.045 A 
HETATM    5  C   UNL     1       6.064  29.502  55.797  1.00  0.00     0.038 A 
ENDROOT
BRANCH   3   6
HETATM    6  C   UNL     1       7.452  30.463  59.089  1.00  0.00     0.279 C 
HETATM    7  N   UNL     1       6.563  31.238  59.829  1.00  0.00    -0.321 N 
HETATM    8  H   UNL     1       5.642  31.369  59.433  1.00  0.00     0.169 HD
HETATM    9  O   UNL     1       8.603  30.227  59.450  1.00  0.00    -0.265 OA
BRANCH   7  10
HETATM   10  C   UNL     1       6.813  31.895  61.054  1.00  0.00     0.035 A 
HETATM   11  C   UNL     1       5.886  32.721  61.694  1.00  0.00     0.039 A 
HETATM   12  C   UNL     1       6.218  33.288  62.916  1.00  0.00    -0.022 A 
HETATM   13  C   UNL     1       7.454  33.052  63.514  1.00  0.00    -0.025 A 
HETATM   14  C   UNL     1       5.362  34.151  63.776  1.00  0.00     0.274 C 
HETATM   15  C   UNL     1       7.528  33.727  64.840  1.00  0.00     0.273 C 
HETATM   16  C   UNL     1       8.394  32.249  62.893  1.00  0.00     0.012 A 
HETATM   17  N   UNL     1       6.268  34.583  64.924  1.00  0.00    -0.067 N 
HETATM   18  H   UNL     1       6.558  35.543  64.710  1.00  0.00     0.280 HD
HETATM   19  C   UNL     1       5.604  34.568  66.255  1.00  0.00     0.270 C 
HETATM   20  C   UNL     1       8.068  31.675  61.657  1.00  0.00     0.030 A 
ENDBRANCH   7  10
ENDBRANCH   3   6
BRANCH   1  21
HETATM   21  C   UNL     1       6.072  26.893  56.149  1.00  0.00     0.240 C 
BRANCH  21  22
HETATM   22  O   UNL     1       7.367  26.307  56.067  1.00  0.00    -0.344 OA
BRANCH  22  23
HETATM   23  C   UNL     1       7.501  25.181  55.295  1.00  0.00     0.075 A 
HETATM   24  C   UNL     1       8.259  24.142  55.861  1.00  0.00    -0.028 A 
HETATM   25  C   UNL     1       8.469  22.961  55.127  1.00  0.00     0.016 A 
HETATM   26  C   UNL     1       8.903  24.288  57.212  1.00  0.00     0.051 C 
HETATM   27  C   UNL     1       7.925  22.799  53.848  1.00  0.00    -0.061 A 
HETATM   28  C   UNL     1       8.125  21.521  53.091  1.00  0.00     0.048 C 
HETATM   29  C   UNL     1       7.146  23.827  53.313  1.00  0.00     0.009 A 
HETATM   30  C   UNL     1       6.939  25.011  54.026  1.00  0.00     0.038 A 
ENDBRANCH  22  23
ENDBRANCH  21  22
ENDBRANCH   1  21
TORSDOF 5
ENDMDL
MODEL 7
REMARK VINA RESULT:      -9.1      7.013     11.120
REMARK  5 active torsions:
REMARK  status: ('A' for Active; 'I' for Inactive)
REMARK    1  A    between atoms: C_6  and  O_7 
REMARK    2  A    between atoms: O_7  and  C_8 
REMARK    3  A    between atoms: C_8  and  C_9 
REMARK    4  A    between atoms: C_11  and  C_12 
REMARK       I    between atoms: C_12  and  N_13 
REMARK    5  A    between atoms: N_13  and  C_14 
ROOT
HETATM    1  C   UNL     1       5.258  27.071  55.040  1.00  0.00     0.078 A 
HETATM    2  O   UNL     1       5.149  27.052  53.683  1.00  0.00    -0.307 OA
HETATM    3  C   UNL     1       4.401  28.135  53.300  1.00  0.00     0.143 A 
HETATM    4  C   UNL     1       4.023  28.837  54.434  1.00  0.00     0.045 A 
HETATM    5  C   UNL     1       4.574  28.152  55.549  1.00  0.00     0.038 A 
ENDROOT
BRANCH   3   6
HETATM    6  C   UNL     1       4.167  28.307  51.874  1.00  0.00     0.279 C 
HETATM    7  N   UNL     1       2.870  28.687  51.542  1.00  0.00    -0.321 N 
HETATM    8  H   UNL     1       2.226  28.811  52.311  1.00  0.00     0.169 HD
HETATM    9  O   UNL     1       5.049  28.118  51.040  1.00  0.00    -0.265 OA
BRANCH   7  10
HETATM   10  C   UNL     1       2.339  28.883  50.248  1.00  0.00     0.035 A 
HETATM   11  C   UNL     1       2.055  27.842  49.361  1.00  0.00     0.039 A 
HETATM   12  C   UNL     1       1.498  28.141  48.126  1.00  0.00    -0.022 A 
HETATM   13  C   UNL     1       1.220  29.454  47.754  1.00  0.00    -0.025 A 
HETATM   14  C   UNL     1       1.080  27.183  47.065  1.00  0.00     0.274 C 
HETATM   15  C   UNL     1       0.574  29.490  46.411  1.00  0.00     0.273 C 
HETATM   16  C   UNL     1       1.506  30.504  48.608  1.00  0.00     0.012 A 
HETATM   17  N   UNL     1       0.656  28.058  45.891  1.00  0.00    -0.067 N 
HETATM   18  H   UNL     1       1.437  28.038  45.227  1.00  0.00     0.280 HD
HETATM   19  C   UNL     1      -0.573  27.586  45.199  1.00  0.00     0.270 C 
HETATM   20  C   UNL     1       2.071  30.211  49.856  1.00  0.00     0.030 A 
ENDBRANCH   7  10
ENDBRANCH   3   6
BRANCH   1  21
HETATM   21  C   UNL     1       6.053  25.977  55.657  1.00  0.00     0.240 C 
BRANCH  21  22
HETATM   22  O   UNL     1       7.134  25.718  54.767  1.00  0.00    -0.344 OA
BRANCH  22  23
HETATM   23  C   UNL     1       7.401  24.408  54.466  1.00  0.00     0.075 A 
HETATM   24  C   UNL     1       7.668  24.136  53.113  1.00  0.00    -0.028 A 
HETATM   25  C   UNL     1       7.924  22.814  52.710  1.00  0.00     0.016 A 
HETATM   26  C   UNL     1       7.623  25.222  52.073  1.00  0.00     0.051 C 
HETATM   27  C   UNL     1       7.932  21.766  53.638  1.00  0.00    -0.061 A 
HETATM   28  C   UNL     1       8.245  20.366  53.202  1.00  0.00     0.048 C 
HETATM   29  C   UNL     1       7.700  22.056  54.984  1.00  0.00     0.009 A 
HETATM   30  C   UNL     1       7.431  23.364  55.395  1.00  0.00     0.038 A 
ENDBRANCH  22  23
ENDBRANCH  21  22
ENDBRANCH   1  21
TORSDOF 5
ENDMDL
MODEL 8
REMARK VINA RESULT:      -9.0      1.541      2.137
REMARK  5 active torsions:
REMARK  status: ('A' for Active; 'I' for Inactive)
REMARK    1  A    between atoms: C_6  and  O_7 
REMARK    2  A    between atoms: O_7  and  C_8 
REMARK    3  A    between atoms: C_8  and  C_9 
REMARK    4  A    between atoms: C_11  and  C_12 
REMARK       I    between atoms: C_12  and  N_13 
REMARK    5  A    between atoms: N_13  and  C_14 
ROOT
HETATM    1  C   UNL     1       7.406  27.761  57.256  1.00  0.00     0.078 A 
HETATM    2  O   UNL     1       6.951  28.888  57.870  1.00  0.00    -0.307 OA
HETATM    3  C   UNL     1       8.018  29.724  58.072  1.00  0.00     0.143 A 
HETATM    4  C   UNL     1       9.162  29.109  57.590  1.00  0.00     0.045 A 
HETATM    5  C   UNL     1       8.767  27.849  57.068  1.00  0.00     0.038 A 
ENDROOT
BRANCH   3   6
HETATM    6  C   UNL     1       7.745  31.000  58.717  1.00  0.00     0.279 C 
HETATM    7  N   UNL     1       6.468  31.113  59.260  1.00  0.00    -0.321 N 
HETATM    8  H   UNL     1       5.864  30.308  59.162  1.00  0.00     0.169 HD
HETATM    9  O   UNL     1       8.580  31.901  58.762  1.00  0.00    -0.265 OA
BRANCH   7  10
HETATM   10  C   UNL     1       5.907  32.238  59.902  1.00  0.00     0.035 A 
HETATM   11  C   UNL     1       6.287  32.675  61.174  1.00  0.00     0.039 A 
HETATM   12  C   UNL     1       5.700  33.817  61.699  1.00  0.00    -0.022 A 
HETATM   13  C   UNL     1       4.741  34.533  60.985  1.00  0.00    -0.025 A 
HETATM   14  C   UNL     1       5.997  34.470  63.003  1.00  0.00     0.274 C 
HETATM   15  C   UNL     1       4.321  35.743  61.747  1.00  0.00     0.273 C 
HETATM   16  C   UNL     1       4.337  34.113  59.731  1.00  0.00     0.012 A 
HETATM   17  N   UNL     1       4.981  35.603  63.115  1.00  0.00    -0.067 N 
HETATM   18  H   UNL     1       4.252  35.267  63.754  1.00  0.00     0.280 HD
HETATM   19  C   UNL     1       5.546  36.868  63.657  1.00  0.00     0.270 C 
HETATM   20  C   UNL     1       4.923  32.959  59.195  1.00  0.00     0.030 A 
ENDBRANCH   7  10
ENDBRANCH   3   6
BRANCH   1  21
HETATM   21  C   UNL     1       6.391  26.725  56.933  1.00  0.00     0.240 C 
BRANCH  21  22
HETATM   22  O   UNL     1       6.445  26.541  55.521  1.00  0.00    -0.344 OA
BRANCH  22  23
HETATM   23  C   UNL     1       6.820  25.304  55.062  1.00  0.00     0.075 A 
HETATM   24  C   UNL     1       6.952  25.186  53.668  1.00  0.00    -0.028 A 
HETATM   25  C   UNL     1       7.307  23.946  53.110  1.00  0.00     0.016 A 
HETATM   26  C   UNL     1       6.662  26.344  52.754  1.00  0.00     0.051 C 
HETATM   27  C   UNL     1       7.544  22.830  53.920  1.00  0.00    -0.061 A 
HETATM   28  C   UNL     1       7.958  21.523  53.315  1.00  0.00     0.048 C 
HETATM   29  C   UNL     1       7.443  22.971  55.306  1.00  0.00     0.009 A 
HETATM   30  C   UNL     1       7.079  24.195  55.873  1.00  0.00     0.038 A 
ENDBRANCH  22  23
ENDBRANCH  21  22
ENDBRANCH   1  21
TORSDOF 5
ENDMDL
MODEL 9
REMARK VINA RESULT:      -8.8      2.335     10.880
REMARK  5 active torsions:
REMARK  status: ('A' for Active; 'I' for Inactive)
REMARK    1  A    between atoms: C_6  and  O_7 
REMARK    2  A    between atoms: O_7  and  C_8 
REMARK    3  A    between atoms: C_8  and  C_9 
REMARK    4  A    between atoms: C_11  and  C_12 
REMARK       I    between atoms: C_12  and  N_13 
REMARK    5  A    between atoms: N_13  and  C_14 
ROOT
HETATM    1  C   UNL     1       7.427  32.135  61.435  1.00  0.00     0.078 A 
HETATM    2  O   UNL     1       7.383  31.467  60.249  1.00  0.00    -0.307 OA
HETATM    3  C   UNL     1       8.598  30.863  60.055  1.00  0.00     0.143 A 
HETATM    4  C   UNL     1       9.421  31.166  61.127  1.00  0.00     0.045 A 
HETATM    5  C   UNL     1       8.668  31.983  62.011  1.00  0.00     0.038 A 
ENDROOT
BRANCH   3   6
HETATM    6  C   UNL     1       8.761  30.084  58.836  1.00  0.00     0.279 C 
HETATM    7  N   UNL     1       7.653  29.317  58.486  1.00  0.00    -0.321 N 
HETATM    8  H   UNL     1       6.852  29.377  59.099  1.00  0.00     0.169 HD
HETATM    9  O   UNL     1       9.802  30.103  58.183  1.00  0.00    -0.265 OA
BRANCH   7  10
HETATM   10  C   UNL     1       7.534  28.434  57.391  1.00  0.00     0.035 A 
HETATM   11  C   UNL     1       7.956  27.102  57.419  1.00  0.00     0.039 A 
HETATM   12  C   UNL     1       7.757  26.307  56.300  1.00  0.00    -0.022 A 
HETATM   13  C   UNL     1       7.150  26.810  55.151  1.00  0.00    -0.025 A 
HETATM   14  C   UNL     1       8.087  24.863  56.144  1.00  0.00     0.274 C 
HETATM   15  C   UNL     1       7.005  25.738  54.126  1.00  0.00     0.273 C 
HETATM   16  C   UNL     1       6.737  28.129  55.092  1.00  0.00     0.012 A 
HETATM   17  N   UNL     1       7.772  24.544  54.687  1.00  0.00    -0.067 N 
HETATM   18  H   UNL     1       8.674  24.528  54.200  1.00  0.00     0.280 HD
HETATM   19  C   UNL     1       7.097  23.233  54.489  1.00  0.00     0.270 C 
HETATM   20  C   UNL     1       6.937  28.940  56.218  1.00  0.00     0.030 A 
ENDBRANCH   7  10
ENDBRANCH   3   6
BRANCH   1  21
HETATM   21  C   UNL     1       6.189  32.851  61.840  1.00  0.00     0.240 C 
BRANCH  21  22
HETATM   22  O   UNL     1       6.614  34.048  62.485  1.00  0.00    -0.344 OA
BRANCH  22  23
HETATM   23  C   UNL     1       6.348  34.170  63.824  1.00  0.00     0.075 A 
HETATM   24  C   UNL     1       5.208  34.924  64.151  1.00  0.00    -0.028 A 
HETATM   25  C   UNL     1       4.876  35.124  65.503  1.00  0.00     0.016 A 
HETATM   26  C   UNL     1       4.368  35.576  63.088  1.00  0.00     0.051 C 
HETATM   27  C   UNL     1       5.654  34.573  66.527  1.00  0.00    -0.061 A 
HETATM   28  C   UNL     1       5.268  34.761  67.963  1.00  0.00     0.048 C 
HETATM   29  C   UNL     1       6.764  33.797  66.186  1.00  0.00     0.009 A 
HETATM   30  C   UNL     1       7.113  33.601  64.847  1.00  0.00     0.038 A 
ENDBRANCH  22  23
ENDBRANCH  21  22
ENDBRANCH   1  21
TORSDOF 5
ENDMDL
MODEL 10
REMARK VINA RESULT:      -8.8      3.086     10.695
REMARK  5 active torsions:
REMARK  status: ('A' for Active; 'I' for Inactive)
REMARK    1  A    between atoms: C_6  and  O_7 
REMARK    2  A    between atoms: O_7  and  C_8 
REMARK    3  A    between atoms: C_8  and  C_9 
REMARK    4  A    between atoms: C_11  and  C_12 
REMARK       I    between atoms: C_12  and  N_13 
REMARK    5  A    between atoms: N_13  and  C_14 
ROOT
HETATM    1  C   UNL     1       6.561  32.419  63.085  1.00  0.00     0.078 A 
HETATM    2  O   UNL     1       6.543  32.113  61.758  1.00  0.00    -0.307 OA
HETATM    3  C   UNL     1       7.840  32.014  61.326  1.00  0.00     0.143 A 
HETATM    4  C   UNL     1       8.685  32.276  62.392  1.00  0.00     0.045 A 
HETATM    5  C   UNL     1       7.862  32.536  63.519  1.00  0.00     0.038 A 
ENDROOT
BRANCH   3   6
HETATM    6  C   UNL     1       8.045  31.685  59.923  1.00  0.00     0.279 C 
HETATM    7  N   UNL     1       7.540  30.445  59.540  1.00  0.00    -0.321 N 
HETATM    8  H   UNL     1       7.081  29.904  60.259  1.00  0.00     0.169 HD
HETATM    9  O   UNL     1       8.628  32.444  59.152  1.00  0.00    -0.265 OA
BRANCH   7  10
HETATM   10  C   UNL     1       7.628  29.841  58.267  1.00  0.00     0.035 A 
HETATM   11  C   UNL     1       6.521  29.563  57.461  1.00  0.00     0.039 A 
HETATM   12  C   UNL     1       6.721  29.003  56.208  1.00  0.00    -0.022 A 
HETATM   13  C   UNL     1       8.000  28.710  55.740  1.00  0.00    -0.025 A 
HETATM   14  C   UNL     1       5.688  28.678  55.186  1.00  0.00     0.274 C 
HETATM   15  C   UNL     1       7.936  28.175  54.350  1.00  0.00     0.273 C 
HETATM   16  C   UNL     1       9.112  28.962  56.524  1.00  0.00     0.012 A 
HETATM   17  N   UNL     1       6.450  27.977  54.066  1.00  0.00    -0.067 N 
HETATM   18  H   UNL     1       6.266  26.975  54.183  1.00  0.00     0.280 HD
HETATM   19  C   UNL     1       6.027  28.387  52.700  1.00  0.00     0.270 C 
HETATM   20  C   UNL     1       8.918  29.525  57.792  1.00  0.00     0.030 A 
ENDBRANCH   7  10
ENDBRANCH   3   6
BRANCH   1  21
HETATM   21  C   UNL     1       5.240  32.556  63.753  1.00  0.00     0.240 C 
BRANCH  21  22
HETATM   22  O   UNL     1       4.527  33.552  63.027  1.00  0.00    -0.344 OA
BRANCH  22  23
HETATM   23  C   UNL     1       4.914  34.855  63.202  1.00  0.00     0.075 A 
HETATM   24  C   UNL     1       4.444  35.479  64.369  1.00  0.00    -0.028 A 
HETATM   25  C   UNL     1       4.770  36.825  64.614  1.00  0.00     0.016 A 
HETATM   26  C   UNL     1       3.545  34.757  65.335  1.00  0.00     0.051 C 
HETATM   27  C   UNL     1       5.567  37.549  63.720  1.00  0.00    -0.061 A 
HETATM   28  C   UNL     1       5.939  38.971  64.011  1.00  0.00     0.048 C 
HETATM   29  C   UNL     1       6.056  36.906  62.582  1.00  0.00     0.009 A 
HETATM   30  C   UNL     1       5.729  35.573  62.320  1.00  0.00     0.038 A 
ENDBRANCH  22  23
ENDBRANCH  21  22
ENDBRANCH   1  21
TORSDOF 5
ENDMDL
