MODEL 1
REMARK VINA RESULT:      -9.5      0.000      0.000
REMARK  10 active torsions:
REMARK  status: ('A' for Active; 'I' for Inactive)
REMARK    1  A    between atoms: C_2  and  N_3 
REMARK    2  A    between atoms: N_3  and  C_5 
REMARK    3  A    between atoms: N_3  and  C_34 
REMARK    4  A    between atoms: C_5  and  C_6 
REMARK    5  A    between atoms: C_6  and  C_7 
REMARK    6  A    between atoms: C_7  and  N_8 
REMARK       I    between atoms: N_8  and  C_9 
REMARK    7  A    between atoms: C_9  and  C_10 
REMARK    8  A    between atoms: N_16  and  C_17 
REMARK    9  A    between atoms: C_17  and  C_18 
REMARK       I    between atoms: C_18  and  N_19 
REMARK   10  A    between atoms: N_19  and  C_20 
ROOT
HETATM    1  C   UNL     1       7.595  30.986  58.705  1.00  0.00     0.081 A 
HETATM    2  S   UNL     1       5.917  31.209  58.435  1.00  0.00    -0.063 SA
HETATM    3  C   UNL     1       5.934  30.215  57.059  1.00  0.00     0.116 A 
HETATM    4  C   UNL     1       7.194  29.728  56.787  1.00  0.00     0.075 A 
HETATM    5  C   UNL     1       7.352  28.923  55.582  1.00  0.00     0.262 A 
HETATM    6  O   UNL     1       8.434  28.462  55.226  1.00  0.00    -0.267 OA
HETATM    7  N   UNL     1       6.181  28.770  54.845  1.00  0.00    -0.299 N 
HETATM    8  C   UNL     1       4.972  29.275  55.286  1.00  0.00     0.214 A 
HETATM    9  N   UNL     1       4.801  29.991  56.351  1.00  0.00    -0.235 NA
HETATM   10  C   UNL     1       8.171  30.134  57.771  1.00  0.00    -0.021 A 
HETATM   11  C   UNL     1       9.617  29.745  57.750  1.00  0.00     0.051 C 
ENDROOT
BRANCH   1  12
HETATM   12  C   UNL     1       8.204  31.640  59.847  1.00  0.00     0.259 C 
HETATM   13  N   UNL     1       8.003  30.996  61.055  1.00  0.00    -0.356 N 
HETATM   14  H   UNL     1       7.387  30.189  61.058  1.00  0.00     0.162 HD
HETATM   15  O   UNL     1       8.880  32.664  59.783  1.00  0.00    -0.267 OA
BRANCH  13  16
HETATM   16  C   UNL     1       8.507  31.513  62.308  1.00  0.00     0.124 C 
BRANCH  16  17
HETATM   17  C   UNL     1       7.447  32.314  63.068  1.00  0.00     0.047 C 
BRANCH  17  18
HETATM   18  C   UNL     1       6.029  31.856  62.733  1.00  0.00     0.236 C 
BRANCH  18  19
HETATM   19  N   UNL     1       4.965  32.563  63.566  1.00  0.00    -0.072 N 
HETATM   20  H   UNL     1       4.451  31.799  64.028  1.00  0.00     0.279 HD
BRANCH  19  21
HETATM   21  C   UNL     1       3.915  33.318  62.764  1.00  0.00     0.230 C 
HETATM   22  C   UNL     1       4.543  34.292  61.784  1.00  0.00     0.034 C 
ENDBRANCH  19  21
BRANCH  19  23
HETATM   23  C   UNL     1       5.498  33.428  64.694  1.00  0.00     0.230 C 
HETATM   24  C   UNL     1       4.382  33.928  65.590  1.00  0.00     0.034 C 
ENDBRANCH  19  23
ENDBRANCH  18  19
ENDBRANCH  17  18
ENDBRANCH  16  17
ENDBRANCH  13  16
ENDBRANCH   1  12
BRANCH   7  25
HETATM   25  C   UNL     1       6.251  28.074  53.572  1.00  0.00     0.236 C 
BRANCH  25  26
HETATM   26  C   UNL     1       6.114  26.557  53.744  1.00  0.00     0.240 C 
HETATM   27  N   UNL     1       7.331  25.953  54.026  1.00  0.00    -0.326 N 
HETATM   28  H   UNL     1       8.105  26.561  54.267  1.00  0.00     0.169 HD
HETATM   29  O   UNL     1       5.044  25.989  53.551  1.00  0.00    -0.271 OA
BRANCH  27  30
HETATM   30  C   UNL     1       7.624  24.572  54.052  1.00  0.00     0.036 A 
HETATM   31  C   UNL     1       7.828  23.834  55.216  1.00  0.00     0.053 A 
HETATM   32  C   UNL     1       8.068  22.454  55.147  1.00  0.00     0.042 A 
HETATM   33 CL   UNL     1       8.294  21.599  56.633  1.00  0.00    -0.084 Cl
HETATM   34  C   UNL     1       8.112  21.789  53.912  1.00  0.00    -0.040 A 
HETATM   35  C   UNL     1       8.349  20.308  53.809  1.00  0.00     0.050 C 
HETATM   36  C   UNL     1       7.914  22.539  52.746  1.00  0.00     0.011 A 
HETATM   37  C   UNL     1       7.671  23.913  52.817  1.00  0.00     0.030 A 
ENDBRANCH  27  30
ENDBRANCH  25  26
ENDBRANCH   7  25
TORSDOF 10
ENDMDL
MODEL 2
REMARK VINA RESULT:      -9.3      1.212      1.513
REMARK  10 active torsions:
REMARK  status: ('A' for Active; 'I' for Inactive)
REMARK    1  A    between atoms: C_2  and  N_3 
REMARK    2  A    between atoms: N_3  and  C_5 
REMARK    3  A    between atoms: N_3  and  C_34 
REMARK    4  A    between atoms: C_5  and  C_6 
REMARK    5  A    between atoms: C_6  and  C_7 
REMARK    6  A    between atoms: C_7  and  N_8 
REMARK       I    between atoms: N_8  and  C_9 
REMARK    7  A    between atoms: C_9  and  C_10 
REMARK    8  A    between atoms: N_16  and  C_17 
REMARK    9  A    between atoms: C_17  and  C_18 
REMARK       I    between atoms: C_18  and  N_19 
REMARK   10  A    between atoms: N_19  and  C_20 
ROOT
HETATM    1  C   UNL     1       7.957  30.659  58.144  1.00  0.00     0.081 A 
HETATM    2  S   UNL     1       6.251  30.823  58.128  1.00  0.00    -0.063 SA
HETATM    3  C   UNL     1       6.085  29.720  56.849  1.00  0.00     0.116 A 
HETATM    4  C   UNL     1       7.303  29.239  56.418  1.00  0.00     0.075 A 
HETATM    5  C   UNL     1       7.296  28.342  55.270  1.00  0.00     0.262 A 
HETATM    6  O   UNL     1       8.324  27.876  54.783  1.00  0.00    -0.267 OA
HETATM    7  N   UNL     1       6.031  28.105  54.742  1.00  0.00    -0.299 N 
HETATM    8  C   UNL     1       4.889  28.618  55.329  1.00  0.00     0.214 A 
HETATM    9  N   UNL     1       4.864  29.416  56.349  1.00  0.00    -0.235 NA
HETATM   10  C   UNL     1       8.408  29.745  57.199  1.00  0.00    -0.021 A 
HETATM   11  C   UNL     1       9.845  29.385  56.978  1.00  0.00     0.051 C 
ENDROOT
BRANCH   1  12
HETATM   12  C   UNL     1       8.716  31.417  59.121  1.00  0.00     0.259 C 
HETATM   13  N   UNL     1       8.598  30.961  60.422  1.00  0.00    -0.356 N 
HETATM   14  H   UNL     1       7.938  30.210  60.596  1.00  0.00     0.162 HD
HETATM   15  O   UNL     1       9.443  32.369  58.849  1.00  0.00    -0.267 OA
BRANCH  13  16
HETATM   16  C   UNL     1       9.255  31.607  61.536  1.00  0.00     0.124 C 
BRANCH  16  17
HETATM   17  C   UNL     1       8.395  31.585  62.802  1.00  0.00     0.047 C 
BRANCH  17  18
HETATM   18  C   UNL     1       6.907  31.726  62.490  1.00  0.00     0.236 C 
BRANCH  18  19
HETATM   19  N   UNL     1       6.186  32.667  63.451  1.00  0.00    -0.072 N 
HETATM   20  H   UNL     1       5.859  32.055  64.212  1.00  0.00     0.279 HD
BRANCH  19  21
HETATM   21  C   UNL     1       4.926  33.314  62.894  1.00  0.00     0.230 C 
HETATM   22  C   UNL     1       5.245  34.384  61.867  1.00  0.00     0.034 C 
ENDBRANCH  19  21
BRANCH  19  23
HETATM   23  C   UNL     1       7.068  33.707  64.119  1.00  0.00     0.230 C 
HETATM   24  C   UNL     1       6.915  33.683  65.627  1.00  0.00     0.034 C 
ENDBRANCH  19  23
ENDBRANCH  18  19
ENDBRANCH  17  18
ENDBRANCH  16  17
ENDBRANCH  13  16
ENDBRANCH   1  12
BRANCH   7  25
HETATM   25  C   UNL     1       5.923  27.308  53.532  1.00  0.00     0.236 C 
BRANCH  25  26
HETATM   26  C   UNL     1       5.816  25.811  53.843  1.00  0.00     0.240 C 
HETATM   27  N   UNL     1       6.994  25.303  54.371  1.00  0.00    -0.326 N 
HETATM   28  H   UNL     1       7.697  25.973  54.662  1.00  0.00     0.169 HD
HETATM   29  O   UNL     1       4.811  25.171  53.550  1.00  0.00    -0.271 OA
BRANCH  27  30
HETATM   30  C   UNL     1       7.329  23.949  54.590  1.00  0.00     0.036 A 
HETATM   31  C   UNL     1       7.531  23.016  53.575  1.00  0.00     0.053 A 
HETATM   32  C   UNL     1       7.909  21.702  53.886  1.00  0.00     0.042 A 
HETATM   33 CL   UNL     1       8.161  20.603  52.574  1.00  0.00    -0.084 Cl
HETATM   34  C   UNL     1       8.085  21.297  55.218  1.00  0.00    -0.040 A 
HETATM   35  C   UNL     1       8.508  19.900  55.580  1.00  0.00     0.050 C 
HETATM   36  C   UNL     1       7.872  22.238  56.232  1.00  0.00     0.011 A 
HETATM   37  C   UNL     1       7.500  23.548  55.921  1.00  0.00     0.030 A 
ENDBRANCH  27  30
ENDBRANCH  25  26
ENDBRANCH   7  25
TORSDOF 10
ENDMDL
MODEL 3
REMARK VINA RESULT:      -9.1      1.549      2.197
REMARK  10 active torsions:
REMARK  status: ('A' for Active; 'I' for Inactive)
REMARK    1  A    between atoms: C_2  and  N_3 
REMARK    2  A    between atoms: N_3  and  C_5 
REMARK    3  A    between atoms: N_3  and  C_34 
REMARK    4  A    between atoms: C_5  and  C_6 
REMARK    5  A    between atoms: C_6  and  C_7 
REMARK    6  A    between atoms: C_7  and  N_8 
REMARK       I    between atoms: N_8  and  C_9 
REMARK    7  A    between atoms: C_9  and  C_10 
REMARK    8  A    between atoms: N_16  and  C_17 
REMARK    9  A    between atoms: C_17  and  C_18 
REMARK       I    between atoms: C_18  and  N_19 
REMARK   10  A    between atoms: N_19  and  C_20 
ROOT
HETATM    1  C   UNL     1       8.454  30.431  57.863  1.00  0.00     0.081 A 
HETATM    2  S   UNL     1       9.524  29.705  56.737  1.00  0.00    -0.063 SA
HETATM    3  C   UNL     1       8.243  29.139  55.777  1.00  0.00     0.116 A 
HETATM    4  C   UNL     1       7.014  29.475  56.303  1.00  0.00     0.075 A 
HETATM    5  C   UNL     1       5.834  28.977  55.608  1.00  0.00     0.262 A 
HETATM    6  O   UNL     1       4.690  29.190  56.003  1.00  0.00    -0.267 OA
HETATM    7  N   UNL     1       6.119  28.195  54.493  1.00  0.00    -0.299 N 
HETATM    8  C   UNL     1       7.416  27.998  54.055  1.00  0.00     0.214 A 
HETATM    9  N   UNL     1       8.482  28.428  54.650  1.00  0.00    -0.235 NA
HETATM   10  C   UNL     1       7.122  30.274  57.502  1.00  0.00    -0.021 A 
HETATM   11  C   UNL     1       5.958  30.802  58.284  1.00  0.00     0.051 C 
ENDROOT
BRANCH   1  12
HETATM   12  C   UNL     1       9.020  31.138  58.997  1.00  0.00     0.259 C 
HETATM   13  N   UNL     1       8.973  30.442  60.192  1.00  0.00    -0.356 N 
HETATM   14  H   UNL     1       8.479  29.555  60.197  1.00  0.00     0.162 HD
HETATM   15  O   UNL     1       9.538  32.250  58.934  1.00  0.00    -0.267 OA
BRANCH  13  16
HETATM   16  C   UNL     1       9.459  30.995  61.435  1.00  0.00     0.124 C 
BRANCH  16  17
HETATM   17  C   UNL     1       8.422  30.890  62.556  1.00  0.00     0.047 C 
BRANCH  17  18
HETATM   18  C   UNL     1       7.120  31.607  62.206  1.00  0.00     0.236 C 
BRANCH  18  19
HETATM   19  N   UNL     1       6.955  32.932  62.943  1.00  0.00    -0.072 N 
HETATM   20  H   UNL     1       7.349  33.635  62.300  1.00  0.00     0.279 HD
BRANCH  19  21
HETATM   21  C   UNL     1       7.770  33.064  64.221  1.00  0.00     0.230 C 
HETATM   22  C   UNL     1       7.017  33.823  65.298  1.00  0.00     0.034 C 
ENDBRANCH  19  21
BRANCH  19  23
HETATM   23  C   UNL     1       5.519  33.364  63.180  1.00  0.00     0.230 C 
HETATM   24  C   UNL     1       5.044  34.335  62.117  1.00  0.00     0.034 C 
ENDBRANCH  19  23
ENDBRANCH  18  19
ENDBRANCH  17  18
ENDBRANCH  16  17
ENDBRANCH  13  16
ENDBRANCH   1  12
BRANCH   7  25
HETATM   25  C   UNL     1       5.016  27.563  53.790  1.00  0.00     0.236 C 
BRANCH  25  26
HETATM   26  C   UNL     1       5.232  26.054  53.632  1.00  0.00     0.240 C 
HETATM   27  N   UNL     1       6.354  25.613  54.318  1.00  0.00    -0.326 N 
HETATM   28  H   UNL     1       6.780  26.260  54.972  1.00  0.00     0.169 HD
HETATM   29  O   UNL     1       4.515  25.383  52.896  1.00  0.00    -0.271 OA
BRANCH  27  30
HETATM   30  C   UNL     1       6.969  24.345  54.243  1.00  0.00     0.036 A 
HETATM   31  C   UNL     1       7.166  23.501  55.335  1.00  0.00     0.053 A 
HETATM   32  C   UNL     1       7.745  22.236  55.157  1.00  0.00     0.042 A 
HETATM   33 CL   UNL     1       7.941  21.236  56.555  1.00  0.00    -0.084 Cl
HETATM   34  C   UNL     1       8.140  21.794  53.885  1.00  0.00    -0.040 A 
HETATM   35  C   UNL     1       8.745  20.437  53.663  1.00  0.00     0.050 C 
HETATM   36  C   UNL     1       7.946  22.650  52.795  1.00  0.00     0.011 A 
HETATM   37  C   UNL     1       7.367  23.909  52.972  1.00  0.00     0.030 A 
ENDBRANCH  27  30
ENDBRANCH  25  26
ENDBRANCH   7  25
TORSDOF 10
ENDMDL
MODEL 4
REMARK VINA RESULT:      -8.8      1.753      2.841
REMARK  10 active torsions:
REMARK  status: ('A' for Active; 'I' for Inactive)
REMARK    1  A    between atoms: C_2  and  N_3 
REMARK    2  A    between atoms: N_3  and  C_5 
REMARK    3  A    between atoms: N_3  and  C_34 
REMARK    4  A    between atoms: C_5  and  C_6 
REMARK    5  A    between atoms: C_6  and  C_7 
REMARK    6  A    between atoms: C_7  and  N_8 
REMARK       I    between atoms: N_8  and  C_9 
REMARK    7  A    between atoms: C_9  and  C_10 
REMARK    8  A    between atoms: N_16  and  C_17 
REMARK    9  A    between atoms: C_17  and  C_18 
REMARK       I    between atoms: C_18  and  N_19 
REMARK   10  A    between atoms: N_19  and  C_20 
ROOT
HETATM    1  C   UNL     1       5.097  31.244  57.439  1.00  0.00     0.081 A 
HETATM    2  S   UNL     1       3.765  31.274  56.361  1.00  0.00    -0.063 SA
HETATM    3  C   UNL     1       4.424  30.041  55.399  1.00  0.00     0.116 A 
HETATM    4  C   UNL     1       5.648  29.615  55.869  1.00  0.00     0.075 A 
HETATM    5  C   UNL     1       6.351  28.611  55.081  1.00  0.00     0.262 A 
HETATM    6  O   UNL     1       7.460  28.181  55.388  1.00  0.00    -0.267 OA
HETATM    7  N   UNL     1       5.681  28.225  53.923  1.00  0.00    -0.299 N 
HETATM    8  C   UNL     1       4.420  28.705  53.619  1.00  0.00     0.214 A 
HETATM    9  N   UNL     1       3.771  29.595  54.299  1.00  0.00    -0.235 NA
HETATM   10  C   UNL     1       6.035  30.279  57.092  1.00  0.00    -0.021 A 
HETATM   11  C   UNL     1       7.302  30.012  57.844  1.00  0.00     0.051 C 
ENDROOT
BRANCH   1  12
HETATM   12  C   UNL     1       5.091  32.151  58.571  1.00  0.00     0.259 C 
HETATM   13  N   UNL     1       4.223  31.799  59.588  1.00  0.00    -0.356 N 
HETATM   14  H   UNL     1       3.610  31.005  59.425  1.00  0.00     0.162 HD
HETATM   15  O   UNL     1       5.811  33.143  58.670  1.00  0.00    -0.267 OA
BRANCH  13  16
HETATM   16  C   UNL     1       4.056  32.596  60.782  1.00  0.00     0.124 C 
BRANCH  16  17
HETATM   17  C   UNL     1       4.633  31.906  62.020  1.00  0.00     0.047 C 
BRANCH  17  18
HETATM   18  C   UNL     1       5.595  32.811  62.788  1.00  0.00     0.236 C 
BRANCH  18  19
HETATM   19  N   UNL     1       7.021  32.271  62.818  1.00  0.00    -0.072 N 
HETATM   20  H   UNL     1       6.917  31.283  63.091  1.00  0.00     0.279 HD
BRANCH  19  21
HETATM   21  C   UNL     1       7.920  32.883  63.882  1.00  0.00     0.230 C 
HETATM   22  C   UNL     1       7.122  33.611  64.948  1.00  0.00     0.034 C 
ENDBRANCH  19  21
BRANCH  19  23
HETATM   23  C   UNL     1       7.729  32.244  61.474  1.00  0.00     0.230 C 
HETATM   24  C   UNL     1       8.675  31.064  61.364  1.00  0.00     0.034 C 
ENDBRANCH  19  23
ENDBRANCH  18  19
ENDBRANCH  17  18
ENDBRANCH  16  17
ENDBRANCH  13  16
ENDBRANCH   1  12
BRANCH   7  25
HETATM   25  C   UNL     1       6.343  27.307  53.014  1.00  0.00     0.236 C 
BRANCH  25  26
HETATM   26  C   UNL     1       6.161  25.848  53.444  1.00  0.00     0.240 C 
HETATM   27  N   UNL     1       7.301  25.336  54.046  1.00  0.00    -0.326 N 
HETATM   28  H   UNL     1       8.027  25.997  54.300  1.00  0.00     0.169 HD
HETATM   29  O   UNL     1       5.136  25.229  53.176  1.00  0.00    -0.271 OA
BRANCH  27  30
HETATM   30  C   UNL     1       7.570  23.992  54.385  1.00  0.00     0.036 A 
HETATM   31  C   UNL     1       7.738  22.966  53.457  1.00  0.00     0.053 A 
HETATM   32  C   UNL     1       8.049  21.668  53.886  1.00  0.00     0.042 A 
HETATM   33 CL   UNL     1       8.263  20.449  52.677  1.00  0.00    -0.084 Cl
HETATM   34  C   UNL     1       8.194  21.372  55.250  1.00  0.00    -0.040 A 
HETATM   35  C   UNL     1       8.546  19.994  55.737  1.00  0.00     0.050 C 
HETATM   36  C   UNL     1       8.015  22.407  56.176  1.00  0.00     0.011 A 
HETATM   37  C   UNL     1       7.708  23.701  55.748  1.00  0.00     0.030 A 
ENDBRANCH  27  30
ENDBRANCH  25  26
ENDBRANCH   7  25
TORSDOF 10
ENDMDL
MODEL 5
REMARK VINA RESULT:      -8.8      1.739      2.954
REMARK  10 active torsions:
REMARK  status: ('A' for Active; 'I' for Inactive)
REMARK    1  A    between atoms: C_2  and  N_3 
REMARK    2  A    between atoms: N_3  and  C_5 
REMARK    3  A    between atoms: N_3  and  C_34 
REMARK    4  A    between atoms: C_5  and  C_6 
REMARK    5  A    between atoms: C_6  and  C_7 
REMARK    6  A    between atoms: C_7  and  N_8 
REMARK       I    between atoms: N_8  and  C_9 
REMARK    7  A    between atoms: C_9  and  C_10 
REMARK    8  A    between atoms: N_16  and  C_17 
REMARK    9  A    between atoms: C_17  and  C_18 
REMARK       I    between atoms: C_18  and  N_19 
REMARK   10  A    between atoms: N_19  and  C_20 
ROOT
HETATM    1  C   UNL     1       5.235  31.453  58.070  1.00  0.00     0.081 A 
HETATM    2  S   UNL     1       6.876  30.985  58.232  1.00  0.00    -0.063 SA
HETATM    3  C   UNL     1       6.826  30.061  56.808  1.00  0.00     0.116 A 
HETATM    4  C   UNL     1       5.581  30.084  56.219  1.00  0.00     0.075 A 
HETATM    5  C   UNL     1       5.391  29.263  55.030  1.00  0.00     0.262 A 
HETATM    6  O   UNL     1       4.316  29.185  54.439  1.00  0.00    -0.267 OA
HETATM    7  N   UNL     1       6.517  28.535  54.657  1.00  0.00    -0.299 N 
HETATM    8  C   UNL     1       7.722  28.667  55.323  1.00  0.00     0.214 A 
HETATM    9  N   UNL     1       7.921  29.388  56.379  1.00  0.00    -0.235 NA
HETATM   10  C   UNL     1       4.649  30.935  56.922  1.00  0.00    -0.021 A 
HETATM   11  C   UNL     1       3.229  31.173  56.508  1.00  0.00     0.051 C 
ENDROOT
BRANCH   1  12
HETATM   12  C   UNL     1       4.666  32.333  59.073  1.00  0.00     0.259 C 
HETATM   13  N   UNL     1       4.320  31.709  60.259  1.00  0.00    -0.356 N 
HETATM   14  H   UNL     1       4.406  30.698  60.297  1.00  0.00     0.162 HD
HETATM   15  O   UNL     1       4.519  33.545  58.932  1.00  0.00    -0.267 OA
BRANCH  13  16
HETATM   16  C   UNL     1       3.710  32.416  61.363  1.00  0.00     0.124 C 
BRANCH  16  17
HETATM   17  C   UNL     1       4.613  32.441  62.599  1.00  0.00     0.047 C 
BRANCH  17  18
HETATM   18  C   UNL     1       6.044  32.852  62.259  1.00  0.00     0.236 C 
BRANCH  18  19
HETATM   19  N   UNL     1       7.087  32.120  63.097  1.00  0.00    -0.072 N 
HETATM   20  H   UNL     1       6.536  31.514  63.721  1.00  0.00     0.279 HD
BRANCH  19  21
HETATM   21  C   UNL     1       7.906  33.005  64.024  1.00  0.00     0.230 C 
HETATM   22  C   UNL     1       7.067  33.573  65.153  1.00  0.00     0.034 C 
ENDBRANCH  19  21
BRANCH  19  23
HETATM   23  C   UNL     1       7.992  31.179  62.320  1.00  0.00     0.230 C 
HETATM   24  C   UNL     1       8.919  31.937  61.390  1.00  0.00     0.034 C 
ENDBRANCH  19  23
ENDBRANCH  18  19
ENDBRANCH  17  18
ENDBRANCH  16  17
ENDBRANCH  13  16
ENDBRANCH   1  12
BRANCH   7  25
HETATM   25  C   UNL     1       6.404  27.605  53.547  1.00  0.00     0.236 C 
BRANCH  25  26
HETATM   26  C   UNL     1       6.354  26.150  54.026  1.00  0.00     0.240 C 
HETATM   27  N   UNL     1       7.589  25.527  53.927  1.00  0.00    -0.326 N 
HETATM   28  H   UNL     1       8.392  26.117  53.743  1.00  0.00     0.169 HD
HETATM   29  O   UNL     1       5.296  25.626  54.359  1.00  0.00    -0.271 OA
BRANCH  27  30
HETATM   30  C   UNL     1       7.879  24.154  54.086  1.00  0.00     0.036 A 
HETATM   31  C   UNL     1       8.046  23.524  55.318  1.00  0.00     0.053 A 
HETATM   32  C   UNL     1       8.286  22.143  55.380  1.00  0.00     0.042 A 
HETATM   33 CL   UNL     1       8.465  21.425  56.943  1.00  0.00    -0.084 Cl
HETATM   34  C   UNL     1       8.367  21.370  54.212  1.00  0.00    -0.040 A 
HETATM   35  C   UNL     1       8.604  19.886  54.249  1.00  0.00     0.050 C 
HETATM   36  C   UNL     1       8.206  22.012  52.978  1.00  0.00     0.011 A 
HETATM   37  C   UNL     1       7.964  23.387  52.917  1.00  0.00     0.030 A 
ENDBRANCH  27  30
ENDBRANCH  25  26
ENDBRANCH   7  25
TORSDOF 10
ENDMDL
MODEL 6
REMARK VINA RESULT:      -8.7      1.372      1.779
REMARK  10 active torsions:
REMARK  status: ('A' for Active; 'I' for Inactive)
REMARK    1  A    between atoms: C_2  and  N_3 
REMARK    2  A    between atoms: N_3  and  C_5 
REMARK    3  A    between atoms: N_3  and  C_34 
REMARK    4  A    between atoms: C_5  and  C_6 
REMARK    5  A    between atoms: C_6  and  C_7 
REMARK    6  A    between atoms: C_7  and  N_8 
REMARK       I    between atoms: N_8  and  C_9 
REMARK    7  A    between atoms: C_9  and  C_10 
REMARK    8  A    between atoms: N_16  and  C_17 
REMARK    9  A    between atoms: C_17  and  C_18 
REMARK       I    between atoms: C_18  and  N_19 
REMARK   10  A    between atoms: N_19  and  C_20 
ROOT
HETATM    1  C   UNL     1       8.042  31.079  59.021  1.00  0.00     0.081 A 
HETATM    2  S   UNL     1       9.283  30.125  58.324  1.00  0.00    -0.063 SA
HETATM    3  C   UNL     1       8.229  29.473  57.164  1.00  0.00     0.116 A 
HETATM    4  C   UNL     1       6.944  29.952  57.306  1.00  0.00     0.075 A 
HETATM    5  C   UNL     1       5.928  29.404  56.416  1.00  0.00     0.262 A 
HETATM    6  O   UNL     1       4.746  29.735  56.471  1.00  0.00    -0.267 OA
HETATM    7  N   UNL     1       6.405  28.435  55.537  1.00  0.00    -0.299 N 
HETATM    8  C   UNL     1       7.746  28.105  55.477  1.00  0.00     0.214 A 
HETATM    9  N   UNL     1       8.670  28.574  56.253  1.00  0.00    -0.235 NA
HETATM   10  C   UNL     1       6.828  30.931  58.361  1.00  0.00    -0.021 A 
HETATM   11  C   UNL     1       5.562  31.638  58.736  1.00  0.00     0.051 C 
ENDROOT
BRANCH   1  12
HETATM   12  C   UNL     1       8.376  31.935  60.144  1.00  0.00     0.259 C 
HETATM   13  N   UNL     1       8.026  31.426  61.381  1.00  0.00    -0.356 N 
HETATM   14  H   UNL     1       7.496  30.559  61.397  1.00  0.00     0.162 HD
HETATM   15  O   UNL     1       8.954  33.015  60.046  1.00  0.00    -0.267 OA
BRANCH  13  16
HETATM   16  C   UNL     1       8.250  32.148  62.614  1.00  0.00     0.124 C 
BRANCH  16  17
HETATM   17  C   UNL     1       7.033  32.984  63.020  1.00  0.00     0.047 C 
BRANCH  17  18
HETATM   18  C   UNL     1       5.762  32.144  63.114  1.00  0.00     0.236 C 
BRANCH  18  19
HETATM   19  N   UNL     1       4.620  32.872  63.815  1.00  0.00    -0.072 N 
HETATM   20  H   UNL     1       3.949  32.128  64.054  1.00  0.00     0.279 HD
BRANCH  19  21
HETATM   21  C   UNL     1       3.841  33.843  62.941  1.00  0.00     0.230 C 
HETATM   22  C   UNL     1       3.329  33.180  61.675  1.00  0.00     0.034 C 
ENDBRANCH  19  21
BRANCH  19  23
HETATM   23  C   UNL     1       4.986  33.523  65.138  1.00  0.00     0.230 C 
HETATM   24  C   UNL     1       4.462  34.943  65.226  1.00  0.00     0.034 C 
ENDBRANCH  19  23
ENDBRANCH  18  19
ENDBRANCH  17  18
ENDBRANCH  16  17
ENDBRANCH  13  16
ENDBRANCH   1  12
BRANCH   7  25
HETATM   25  C   UNL     1       5.454  27.751  54.679  1.00  0.00     0.236 C 
BRANCH  25  26
HETATM   26  C   UNL     1       6.095  26.565  53.950  1.00  0.00     0.240 C 
HETATM   27  N   UNL     1       6.094  25.415  54.725  1.00  0.00    -0.326 N 
HETATM   28  H   UNL     1       5.529  25.424  55.567  1.00  0.00     0.169 HD
HETATM   29  O   UNL     1       6.615  26.703  52.847  1.00  0.00    -0.271 OA
BRANCH  27  30
HETATM   30  C   UNL     1       6.765  24.200  54.468  1.00  0.00     0.036 A 
HETATM   31  C   UNL     1       7.171  23.302  55.454  1.00  0.00     0.053 A 
HETATM   32  C   UNL     1       7.791  22.094  55.101  1.00  0.00     0.042 A 
HETATM   33 CL   UNL     1       8.249  21.021  56.377  1.00  0.00    -0.084 Cl
HETATM   34  C   UNL     1       8.020  21.766  53.756  1.00  0.00    -0.040 A 
HETATM   35  C   UNL     1       8.665  20.471  53.349  1.00  0.00     0.050 C 
HETATM   36  C   UNL     1       7.617  22.676  52.772  1.00  0.00     0.011 A 
HETATM   37  C   UNL     1       6.996  23.878  53.124  1.00  0.00     0.030 A 
ENDBRANCH  27  30
ENDBRANCH  25  26
ENDBRANCH   7  25
TORSDOF 10
ENDMDL
MODEL 7
REMARK VINA RESULT:      -8.6      3.714     11.491
REMARK  10 active torsions:
REMARK  status: ('A' for Active; 'I' for Inactive)
REMARK    1  A    between atoms: C_2  and  N_3 
REMARK    2  A    between atoms: N_3  and  C_5 
REMARK    3  A    between atoms: N_3  and  C_34 
REMARK    4  A    between atoms: C_5  and  C_6 
REMARK    5  A    between atoms: C_6  and  C_7 
REMARK    6  A    between atoms: C_7  and  N_8 
REMARK       I    between atoms: N_8  and  C_9 
REMARK    7  A    between atoms: C_9  and  C_10 
REMARK    8  A    between atoms: N_16  and  C_17 
REMARK    9  A    between atoms: C_17  and  C_18 
REMARK       I    between atoms: C_18  and  N_19 
REMARK   10  A    between atoms: N_19  and  C_20 
ROOT
HETATM    1  C   UNL     1       7.319  28.881  56.107  1.00  0.00     0.081 A 
HETATM    2  S   UNL     1       8.531  29.200  57.277  1.00  0.00    -0.063 SA
HETATM    3  C   UNL     1       7.551  30.324  58.088  1.00  0.00     0.116 A 
HETATM    4  C   UNL     1       6.324  30.477  57.479  1.00  0.00     0.075 A 
HETATM    5  C   UNL     1       5.422  31.475  58.040  1.00  0.00     0.262 A 
HETATM    6  O   UNL     1       4.317  31.717  57.561  1.00  0.00    -0.267 OA
HETATM    7  N   UNL     1       5.946  32.167  59.128  1.00  0.00    -0.299 N 
HETATM    8  C   UNL     1       7.182  31.852  59.664  1.00  0.00     0.214 A 
HETATM    9  N   UNL     1       8.003  30.971  59.189  1.00  0.00    -0.235 NA
HETATM   10  C   UNL     1       6.155  29.602  56.342  1.00  0.00    -0.021 A 
HETATM   11  C   UNL     1       4.922  29.531  55.495  1.00  0.00     0.051 C 
ENDROOT
BRANCH   1  12
HETATM   12  C   UNL     1       7.600  27.907  55.069  1.00  0.00     0.259 C 
HETATM   13  N   UNL     1       7.321  26.597  55.416  1.00  0.00    -0.356 N 
HETATM   14  H   UNL     1       7.035  26.418  56.375  1.00  0.00     0.162 HD
HETATM   15  O   UNL     1       8.019  28.187  53.948  1.00  0.00    -0.267 OA
BRANCH  13  16
HETATM   16  C   UNL     1       7.564  25.485  54.525  1.00  0.00     0.124 C 
BRANCH  16  17
HETATM   17  C   UNL     1       6.637  24.302  54.815  1.00  0.00     0.047 C 
BRANCH  17  18
HETATM   18  C   UNL     1       7.360  23.168  55.540  1.00  0.00     0.236 C 
BRANCH  18  19
HETATM   19  N   UNL     1       8.329  22.409  54.639  1.00  0.00    -0.072 N 
HETATM   20  H   UNL     1       9.028  23.113  54.363  1.00  0.00     0.279 HD
BRANCH  19  21
HETATM   21  C   UNL     1       7.734  21.908  53.331  1.00  0.00     0.230 C 
HETATM   22  C   UNL     1       8.346  20.589  52.898  1.00  0.00     0.034 C 
ENDBRANCH  19  21
BRANCH  19  23
HETATM   23  C   UNL     1       9.116  21.306  55.323  1.00  0.00     0.230 C 
HETATM   24  C   UNL     1       8.448  20.857  56.608  1.00  0.00     0.034 C 
ENDBRANCH  19  23
ENDBRANCH  18  19
ENDBRANCH  17  18
ENDBRANCH  16  17
ENDBRANCH  13  16
ENDBRANCH   1  12
BRANCH   7  25
HETATM   25  C   UNL     1       5.170  33.255  59.696  1.00  0.00     0.236 C 
BRANCH  25  26
HETATM   26  C   UNL     1       4.992  33.098  61.210  1.00  0.00     0.240 C 
HETATM   27  N   UNL     1       5.575  34.141  61.914  1.00  0.00    -0.326 N 
HETATM   28  H   UNL     1       5.872  34.951  61.380  1.00  0.00     0.169 HD
HETATM   29  O   UNL     1       4.466  32.098  61.688  1.00  0.00    -0.271 OA
BRANCH  27  30
HETATM   30  C   UNL     1       5.781  34.234  63.307  1.00  0.00     0.036 A 
HETATM   31  C   UNL     1       4.947  34.932  64.180  1.00  0.00     0.053 A 
HETATM   32  C   UNL     1       5.205  34.930  65.559  1.00  0.00     0.042 A 
HETATM   33 CL   UNL     1       4.118  35.801  66.583  1.00  0.00    -0.084 Cl
HETATM   34  C   UNL     1       6.303  34.234  66.088  1.00  0.00    -0.040 A 
HETATM   35  C   UNL     1       6.592  34.199  67.562  1.00  0.00     0.050 C 
HETATM   36  C   UNL     1       7.139  33.542  65.204  1.00  0.00     0.011 A 
HETATM   37  C   UNL     1       6.880  33.542  63.831  1.00  0.00     0.030 A 
ENDBRANCH  27  30
ENDBRANCH  25  26
ENDBRANCH   7  25
TORSDOF 10
ENDMDL
MODEL 8
REMARK VINA RESULT:      -8.2      2.222      3.216
REMARK  10 active torsions:
REMARK  status: ('A' for Active; 'I' for Inactive)
REMARK    1  A    between atoms: C_2  and  N_3 
REMARK    2  A    between atoms: N_3  and  C_5 
REMARK    3  A    between atoms: N_3  and  C_34 
REMARK    4  A    between atoms: C_5  and  C_6 
REMARK    5  A    between atoms: C_6  and  C_7 
REMARK    6  A    between atoms: C_7  and  N_8 
REMARK       I    between atoms: N_8  and  C_9 
REMARK    7  A    between atoms: C_9  and  C_10 
REMARK    8  A    between atoms: N_16  and  C_17 
REMARK    9  A    between atoms: C_17  and  C_18 
REMARK       I    between atoms: C_18  and  N_19 
REMARK   10  A    between atoms: N_19  and  C_20 
ROOT
HETATM    1  C   UNL     1       4.515  31.578  57.693  1.00  0.00     0.081 A 
HETATM    2  S   UNL     1       6.131  31.217  58.135  1.00  0.00    -0.063 SA
HETATM    3  C   UNL     1       6.352  30.216  56.781  1.00  0.00     0.116 A 
HETATM    4  C   UNL     1       5.215  30.135  56.006  1.00  0.00     0.075 A 
HETATM    5  C   UNL     1       5.257  29.241  54.855  1.00  0.00     0.262 A 
HETATM    6  O   UNL     1       4.294  29.068  54.112  1.00  0.00    -0.267 OA
HETATM    7  N   UNL     1       6.463  28.562  54.706  1.00  0.00    -0.299 N 
HETATM    8  C   UNL     1       7.539  28.800  55.541  1.00  0.00     0.214 A 
HETATM    9  N   UNL     1       7.533  29.588  56.568  1.00  0.00    -0.235 NA
HETATM   10  C   UNL     1       4.143  30.966  56.503  1.00  0.00    -0.021 A 
HETATM   11  C   UNL     1       2.796  31.096  55.860  1.00  0.00     0.051 C 
ENDROOT
BRANCH   1  12
HETATM   12  C   UNL     1       3.751  32.475  58.540  1.00  0.00     0.259 C 
HETATM   13  N   UNL     1       3.878  32.235  59.896  1.00  0.00    -0.356 N 
HETATM   14  H   UNL     1       4.408  31.417  60.179  1.00  0.00     0.162 HD
HETATM   15  O   UNL     1       3.065  33.406  58.124  1.00  0.00    -0.267 OA
BRANCH  13  16
HETATM   16  C   UNL     1       3.169  33.005  60.894  1.00  0.00     0.124 C 
BRANCH  16  17
HETATM   17  C   UNL     1       4.049  34.093  61.514  1.00  0.00     0.047 C 
BRANCH  17  18
HETATM   18  C   UNL     1       3.957  34.108  63.039  1.00  0.00     0.236 C 
BRANCH  18  19
HETATM   19  N   UNL     1       5.306  34.340  63.712  1.00  0.00    -0.072 N 
HETATM   20  H   UNL     1       5.770  35.044  63.122  1.00  0.00     0.279 HD
BRANCH  19  21
HETATM   21  C   UNL     1       6.242  33.141  63.710  1.00  0.00     0.230 C 
HETATM   22  C   UNL     1       7.455  33.367  64.594  1.00  0.00     0.034 C 
ENDBRANCH  19  21
BRANCH  19  23
HETATM   23  C   UNL     1       5.236  34.959  65.098  1.00  0.00     0.230 C 
HETATM   24  C   UNL     1       4.582  36.326  65.066  1.00  0.00     0.034 C 
ENDBRANCH  19  23
ENDBRANCH  18  19
ENDBRANCH  17  18
ENDBRANCH  16  17
ENDBRANCH  13  16
ENDBRANCH   1  12
BRANCH   7  25
HETATM   25  C   UNL     1       6.572  27.569  53.653  1.00  0.00     0.236 C 
BRANCH  25  26
HETATM   26  C   UNL     1       6.359  26.148  54.185  1.00  0.00     0.240 C 
HETATM   27  N   UNL     1       7.558  25.481  54.386  1.00  0.00    -0.326 N 
HETATM   28  H   UNL     1       8.407  26.034  54.348  1.00  0.00     0.169 HD
HETATM   29  O   UNL     1       5.232  25.678  54.309  1.00  0.00    -0.271 OA
BRANCH  27  30
HETATM   30  C   UNL     1       7.748  24.112  54.675  1.00  0.00     0.036 A 
HETATM   31  C   UNL     1       7.737  23.099  53.718  1.00  0.00     0.053 A 
HETATM   32  C   UNL     1       7.982  21.769  54.091  1.00  0.00     0.042 A 
HETATM   33 CL   UNL     1       7.971  20.567  52.848  1.00  0.00    -0.084 Cl
HETATM   34  C   UNL     1       8.239  21.430  55.428  1.00  0.00    -0.040 A 
HETATM   35  C   UNL     1       8.523  20.017  55.854  1.00  0.00     0.050 C 
HETATM   36  C   UNL     1       8.241  22.452  56.385  1.00  0.00     0.011 A 
HETATM   37  C   UNL     1       7.999  23.777  56.011  1.00  0.00     0.030 A 
ENDBRANCH  27  30
ENDBRANCH  25  26
ENDBRANCH   7  25
TORSDOF 10
ENDMDL
MODEL 9
REMARK VINA RESULT:      -8.0      4.012     11.245
REMARK  10 active torsions:
REMARK  status: ('A' for Active; 'I' for Inactive)
REMARK    1  A    between atoms: C_2  and  N_3 
REMARK    2  A    between atoms: N_3  and  C_5 
REMARK    3  A    between atoms: N_3  and  C_34 
REMARK    4  A    between atoms: C_5  and  C_6 
REMARK    5  A    between atoms: C_6  and  C_7 
REMARK    6  A    between atoms: C_7  and  N_8 
REMARK       I    between atoms: N_8  and  C_9 
REMARK    7  A    between atoms: C_9  and  C_10 
REMARK    8  A    between atoms: N_16  and  C_17 
REMARK    9  A    between atoms: C_17  and  C_18 
REMARK       I    between atoms: C_18  and  N_19 
REMARK   10  A    between atoms: N_19  and  C_20 
ROOT
HETATM    1  C   UNL     1       6.460  26.963  56.313  1.00  0.00     0.081 A 
HETATM    2  S   UNL     1       7.878  27.114  57.264  1.00  0.00    -0.063 SA
HETATM    3  C   UNL     1       7.418  28.645  57.835  1.00  0.00     0.116 A 
HETATM    4  C   UNL     1       6.214  29.056  57.304  1.00  0.00     0.075 A 
HETATM    5  C   UNL     1       5.751  30.391  57.659  1.00  0.00     0.262 A 
HETATM    6  O   UNL     1       4.708  30.872  57.221  1.00  0.00    -0.267 OA
HETATM    7  N   UNL     1       6.619  31.091  58.491  1.00  0.00    -0.299 N 
HETATM    8  C   UNL     1       7.771  30.513  58.991  1.00  0.00     0.214 A 
HETATM    9  N   UNL     1       8.208  29.331  58.696  1.00  0.00    -0.235 NA
HETATM   10  C   UNL     1       5.617  28.059  56.445  1.00  0.00    -0.021 A 
HETATM   11  C   UNL     1       4.303  28.215  55.742  1.00  0.00     0.051 C 
ENDROOT
BRANCH   1  12
HETATM   12  C   UNL     1       6.272  25.750  55.540  1.00  0.00     0.259 C 
HETATM   13  N   UNL     1       6.147  25.949  54.176  1.00  0.00    -0.356 N 
HETATM   14  H   UNL     1       6.107  26.908  53.846  1.00  0.00     0.162 HD
HETATM   15  O   UNL     1       6.255  24.618  56.017  1.00  0.00    -0.267 OA
BRANCH  13  16
HETATM   16  C   UNL     1       5.922  24.864  53.248  1.00  0.00     0.124 C 
BRANCH  16  17
HETATM   17  C   UNL     1       6.187  25.282  51.799  1.00  0.00     0.047 C 
BRANCH  17  18
HETATM   18  C   UNL     1       5.056  26.135  51.230  1.00  0.00     0.236 C 
BRANCH  18  19
HETATM   19  N   UNL     1       5.512  27.043  50.092  1.00  0.00    -0.072 N 
HETATM   20  H   UNL     1       6.517  26.843  49.991  1.00  0.00     0.279 HD
BRANCH  19  21
HETATM   21  C   UNL     1       5.433  28.534  50.387  1.00  0.00     0.230 C 
HETATM   22  C   UNL     1       4.980  28.807  51.809  1.00  0.00     0.034 C 
ENDBRANCH  19  21
BRANCH  19  23
HETATM   23  C   UNL     1       4.901  26.735  48.737  1.00  0.00     0.230 C 
HETATM   24  C   UNL     1       3.392  26.875  48.759  1.00  0.00     0.034 C 
ENDBRANCH  19  23
ENDBRANCH  18  19
ENDBRANCH  17  18
ENDBRANCH  16  17
ENDBRANCH  13  16
ENDBRANCH   1  12
BRANCH   7  25
HETATM   25  C   UNL     1       6.302  32.470  58.819  1.00  0.00     0.236 C 
BRANCH  25  26
HETATM   26  C   UNL     1       5.834  32.616  60.271  1.00  0.00     0.240 C 
HETATM   27  N   UNL     1       6.644  33.478  60.995  1.00  0.00    -0.326 N 
HETATM   28  H   UNL     1       7.306  34.040  60.472  1.00  0.00     0.169 HD
HETATM   29  O   UNL     1       4.900  31.951  60.708  1.00  0.00    -0.271 OA
BRANCH  27  30
HETATM   30  C   UNL     1       6.639  33.701  62.389  1.00  0.00     0.036 A 
HETATM   31  C   UNL     1       5.808  34.613  63.037  1.00  0.00     0.053 A 
HETATM   32  C   UNL     1       5.841  34.733  64.434  1.00  0.00     0.042 A 
HETATM   33 CL   UNL     1       4.768  35.873  65.171  1.00  0.00    -0.084 Cl
HETATM   34  C   UNL     1       6.707  33.945  65.207  1.00  0.00    -0.040 A 
HETATM   35  C   UNL     1       6.749  34.039  66.707  1.00  0.00     0.050 C 
HETATM   36  C   UNL     1       7.544  33.036  64.548  1.00  0.00     0.011 A 
HETATM   37  C   UNL     1       7.509  32.916  63.157  1.00  0.00     0.030 A 
ENDBRANCH  27  30
ENDBRANCH  25  26
ENDBRANCH   7  25
TORSDOF 10
ENDMDL
MODEL 10
REMARK VINA RESULT:      -7.8      2.588      3.910
REMARK  10 active torsions:
REMARK  status: ('A' for Active; 'I' for Inactive)
REMARK    1  A    between atoms: C_2  and  N_3 
REMARK    2  A    between atoms: N_3  and  C_5 
REMARK    3  A    between atoms: N_3  and  C_34 
REMARK    4  A    between atoms: C_5  and  C_6 
REMARK    5  A    between atoms: C_6  and  C_7 
REMARK    6  A    between atoms: C_7  and  N_8 
REMARK       I    between atoms: N_8  and  C_9 
REMARK    7  A    between atoms: C_9  and  C_10 
REMARK    8  A    between atoms: N_16  and  C_17 
REMARK    9  A    between atoms: C_17  and  C_18 
REMARK       I    between atoms: C_18  and  N_19 
REMARK   10  A    between atoms: N_19  and  C_20 
ROOT
HETATM    1  C   UNL     1       4.180  29.957  55.459  1.00  0.00     0.081 A 
HETATM    2  S   UNL     1       4.198  30.758  53.944  1.00  0.00    -0.063 SA
HETATM    3  C   UNL     1       4.540  29.321  53.108  1.00  0.00     0.116 A 
HETATM    4  C   UNL     1       4.659  28.243  53.958  1.00  0.00     0.075 A 
HETATM    5  C   UNL     1       5.030  26.964  53.365  1.00  0.00     0.262 A 
HETATM    6  O   UNL     1       5.193  25.944  54.030  1.00  0.00    -0.267 OA
HETATM    7  N   UNL     1       5.237  27.015  51.990  1.00  0.00    -0.299 N 
HETATM    8  C   UNL     1       5.017  28.171  51.263  1.00  0.00     0.214 A 
HETATM    9  N   UNL     1       4.686  29.319  51.761  1.00  0.00    -0.235 NA
HETATM   10  C   UNL     1       4.404  28.591  55.337  1.00  0.00    -0.021 A 
HETATM   11  C   UNL     1       4.442  27.627  56.483  1.00  0.00     0.051 C 
ENDROOT
BRANCH   1  12
HETATM   12  C   UNL     1       3.903  30.737  56.650  1.00  0.00     0.259 C 
HETATM   13  N   UNL     1       5.021  31.280  57.257  1.00  0.00    -0.356 N 
HETATM   14  H   UNL     1       5.928  31.021  56.882  1.00  0.00     0.162 HD
HETATM   15  O   UNL     1       2.777  30.950  57.095  1.00  0.00    -0.267 OA
BRANCH  13  16
HETATM   16  C   UNL     1       4.947  32.061  58.471  1.00  0.00     0.124 C 
BRANCH  16  17
HETATM   17  C   UNL     1       6.295  32.129  59.195  1.00  0.00     0.047 C 
BRANCH  17  18
HETATM   18  C   UNL     1       6.167  32.719  60.598  1.00  0.00     0.236 C 
BRANCH  18  19
HETATM   19  N   UNL     1       7.410  32.494  61.452  1.00  0.00    -0.072 N 
HETATM   20  H   UNL     1       7.813  33.434  61.572  1.00  0.00     0.279 HD
BRANCH  19  21
HETATM   21  C   UNL     1       8.507  31.674  60.789  1.00  0.00     0.230 C 
HETATM   22  C   UNL     1       9.847  31.858  61.478  1.00  0.00     0.034 C 
ENDBRANCH  19  21
BRANCH  19  23
HETATM   23  C   UNL     1       7.143  31.988  62.859  1.00  0.00     0.230 C 
HETATM   24  C   UNL     1       7.639  32.965  63.907  1.00  0.00     0.034 C 
ENDBRANCH  19  23
ENDBRANCH  18  19
ENDBRANCH  17  18
ENDBRANCH  16  17
ENDBRANCH  13  16
ENDBRANCH   1  12
BRANCH   7  25
HETATM   25  C   UNL     1       5.712  25.819  51.316  1.00  0.00     0.236 C 
BRANCH  25  26
HETATM   26  C   UNL     1       6.874  25.164  52.071  1.00  0.00     0.240 C 
HETATM   27  N   UNL     1       6.525  23.925  52.589  1.00  0.00    -0.326 N 
HETATM   28  H   UNL     1       5.653  23.519  52.270  1.00  0.00     0.169 HD
HETATM   29  O   UNL     1       7.935  25.755  52.243  1.00  0.00    -0.271 OA
BRANCH  27  30
HETATM   30  C   UNL     1       7.260  23.131  53.496  1.00  0.00     0.036 A 
HETATM   31  C   UNL     1       7.496  23.472  54.827  1.00  0.00     0.053 A 
HETATM   32  C   UNL     1       8.198  22.596  55.668  1.00  0.00     0.042 A 
HETATM   33 CL   UNL     1       8.437  23.077  57.313  1.00  0.00    -0.084 Cl
HETATM   34  C   UNL     1       8.679  21.367  55.193  1.00  0.00    -0.040 A 
HETATM   35  C   UNL     1       9.417  20.401  56.077  1.00  0.00     0.050 C 
HETATM   36  C   UNL     1       8.444  21.035  53.853  1.00  0.00     0.011 A 
HETATM   37  C   UNL     1       7.742  21.907  53.016  1.00  0.00     0.030 A 
ENDBRANCH  27  30
ENDBRANCH  25  26
ENDBRANCH   7  25
TORSDOF 10
ENDMDL
