MODEL 1
REMARK VINA RESULT:      -8.5      0.000      0.000
REMARK  9 active torsions:
REMARK  status: ('A' for Active; 'I' for Inactive)
REMARK    1  A    between atoms: C_2  and  C_3 
REMARK    2  A    between atoms: C_3  and  N_4 
REMARK    3  A    between atoms: C_7  and  C_8 
REMARK       I    between atoms: C_8  and  N_9 
REMARK    4  A    between atoms: N_9  and  C_10 
REMARK    5  A    between atoms: C_10  and  C_11 
REMARK    6  A    between atoms: C_13  and  O_14 
REMARK    7  A    between atoms: O_14  and  C_15 
REMARK    8  A    between atoms: C_15  and  C_16 
REMARK       I    between atoms: C_16  and  N_17 
REMARK    9  A    between atoms: C_23  and  C_24 
ROOT
HETATM    1  C   UNL     1       7.922  31.438  59.376  1.00  0.00     0.255 C 
HETATM    2  N   UNL     1       7.708  30.875  60.618  1.00  0.00    -0.353 N 
HETATM    3  O   UNL     1       8.513  32.502  59.215  1.00  0.00    -0.268 OA
HETATM    4  H   UNL     1       7.418  29.908  60.658  1.00  0.00     0.163 HD
ENDROOT
BRANCH   2   5
HETATM    5  C   UNL     1       8.383  31.459  61.755  1.00  0.00     0.161 C 
BRANCH   5   6
HETATM    6  C   UNL     1       7.499  32.095  62.797  1.00  0.00    -0.038 A 
HETATM    7  C   UNL     1       6.099  32.114  62.721  1.00  0.00     0.045 A 
HETATM    8  C   UNL     1       5.332  32.818  63.662  1.00  0.00     0.070 A 
HETATM    9  C   UNL     1       5.972  33.519  64.684  1.00  0.00     0.037 A 
HETATM   10  C   UNL     1       7.364  33.516  64.768  1.00  0.00     0.003 A 
HETATM   11  C   UNL     1       8.119  32.812  63.833  1.00  0.00     0.009 A 
BRANCH   8  12
HETATM   12  O   UNL     1       3.976  32.749  63.472  1.00  0.00    -0.342 OA
BRANCH  12  13
HETATM   13  C   UNL     1       3.477  33.313  62.260  1.00  0.00     0.278 C 
BRANCH  13  14
HETATM   14  C   UNL     1       2.253  34.189  62.518  1.00  0.00     0.239 C 
HETATM   15  N   UNL     1       1.527  33.882  63.632  1.00  0.00    -0.368 N 
HETATM   16  H   UNL     1       1.684  33.002  64.110  1.00  0.00     0.159 HD
HETATM   17  H   UNL     1       0.678  34.401  63.806  1.00  0.00     0.159 HD
HETATM   18  O   UNL     1       1.953  35.147  61.813  1.00  0.00    -0.271 OA
ENDBRANCH  13  14
ENDBRANCH  12  13
ENDBRANCH   8  12
ENDBRANCH   5   6
ENDBRANCH   2   5
BRANCH   1  19
HETATM   19  C   UNL     1       7.490  30.645  58.250  1.00  0.00     0.075 A 
HETATM   20  C   UNL     1       6.147  30.506  57.837  1.00  0.00     0.158 A 
HETATM   21  N   UNL     1       5.988  29.602  56.875  1.00  0.00    -0.183 NA
HETATM   22  N   UNL     1       7.229  29.104  56.692  1.00  0.00    -0.268 N 
HETATM   23  C   UNL     1       8.186  29.741  57.461  1.00  0.00     0.052 A 
BRANCH  22  24
HETATM   24  C   UNL     1       7.407  27.900  55.876  1.00  0.00     0.106 C 
HETATM   25  C   UNL     1       6.288  26.899  56.191  1.00  0.00     0.034 C 
BRANCH  24  26
HETATM   26  C   UNL     1       7.463  28.149  54.353  1.00  0.00     0.022 C 
HETATM   27  C   UNL     1       7.521  26.866  53.536  1.00  0.00     0.007 C 
ENDBRANCH  24  26
ENDBRANCH  22  24
BRANCH  23  28
HETATM   28  C   UNL     1       9.675  29.387  57.456  1.00  0.00     0.038 A 
HETATM   29  C   UNL     1      10.514  29.693  56.237  1.00  0.00     0.011 A 
HETATM   30  C   UNL     1      10.725  30.473  57.490  1.00  0.00     0.011 A 
ENDBRANCH  23  28
ENDBRANCH   1  19
TORSDOF 9
ENDMDL
MODEL 2
REMARK VINA RESULT:      -8.5      3.770      7.018
REMARK  9 active torsions:
REMARK  status: ('A' for Active; 'I' for Inactive)
REMARK    1  A    between atoms: C_2  and  C_3 
REMARK    2  A    between atoms: C_3  and  N_4 
REMARK    3  A    between atoms: C_7  and  C_8 
REMARK       I    between atoms: C_8  and  N_9 
REMARK    4  A    between atoms: N_9  and  C_10 
REMARK    5  A    between atoms: C_10  and  C_11 
REMARK    6  A    between atoms: C_13  and  O_14 
REMARK    7  A    between atoms: O_14  and  C_15 
REMARK    8  A    between atoms: C_15  and  C_16 
REMARK       I    between atoms: C_16  and  N_17 
REMARK    9  A    between atoms: C_23  and  C_24 
ROOT
HETATM    1  C   UNL     1       6.989  26.083  56.130  1.00  0.00     0.255 C 
HETATM    2  N   UNL     1       7.933  26.975  56.596  1.00  0.00    -0.353 N 
HETATM    3  O   UNL     1       5.910  26.432  55.658  1.00  0.00    -0.268 OA
HETATM    4  H   UNL     1       8.870  26.634  56.761  1.00  0.00     0.163 HD
ENDROOT
BRANCH   2   5
HETATM    5  C   UNL     1       7.727  28.381  56.334  1.00  0.00     0.161 C 
BRANCH   5   6
HETATM    6  C   UNL     1       8.650  29.333  57.052  1.00  0.00    -0.038 A 
HETATM    7  C   UNL     1       8.210  30.293  57.975  1.00  0.00     0.045 A 
HETATM    8  C   UNL     1       9.099  31.226  58.528  1.00  0.00     0.070 A 
HETATM    9  C   UNL     1      10.441  31.206  58.147  1.00  0.00     0.037 A 
HETATM   10  C   UNL     1      10.892  30.262  57.226  1.00  0.00     0.003 A 
HETATM   11  C   UNL     1      10.004  29.337  56.683  1.00  0.00     0.009 A 
BRANCH   8  12
HETATM   12  O   UNL     1       8.538  32.105  59.418  1.00  0.00    -0.342 OA
BRANCH  12  13
HETATM   13  C   UNL     1       9.127  32.155  60.717  1.00  0.00     0.278 C 
BRANCH  13  14
HETATM   14  C   UNL     1       8.696  30.962  61.568  1.00  0.00     0.239 C 
HETATM   15  N   UNL     1       7.388  30.950  61.954  1.00  0.00    -0.368 N 
HETATM   16  H   UNL     1       6.824  31.787  61.855  1.00  0.00     0.159 HD
HETATM   17  H   UNL     1       7.077  30.208  62.566  1.00  0.00     0.159 HD
HETATM   18  O   UNL     1       9.448  30.034  61.852  1.00  0.00    -0.271 OA
ENDBRANCH  13  14
ENDBRANCH  12  13
ENDBRANCH   8  12
ENDBRANCH   5   6
ENDBRANCH   2   5
BRANCH   1  19
HETATM   19  C   UNL     1       7.387  24.695  56.137  1.00  0.00     0.075 A 
HETATM   20  C   UNL     1       7.942  24.027  57.250  1.00  0.00     0.158 A 
HETATM   21  N   UNL     1       8.370  22.801  56.962  1.00  0.00    -0.183 NA
HETATM   22  N   UNL     1       8.145  22.683  55.638  1.00  0.00    -0.268 N 
HETATM   23  C   UNL     1       7.499  23.781  55.099  1.00  0.00     0.052 A 
BRANCH  22  24
HETATM   24  C   UNL     1       8.720  21.549  54.909  1.00  0.00     0.106 C 
HETATM   25  C   UNL     1       9.478  20.645  55.888  1.00  0.00     0.034 C 
BRANCH  24  26
HETATM   26  C   UNL     1       7.703  20.707  54.109  1.00  0.00     0.022 C 
HETATM   27  C   UNL     1       8.163  20.396  52.693  1.00  0.00     0.007 C 
ENDBRANCH  24  26
ENDBRANCH  22  24
BRANCH  23  28
HETATM   28  C   UNL     1       7.114  23.920  53.624  1.00  0.00     0.038 A 
HETATM   29  C   UNL     1       7.421  25.203  52.887  1.00  0.00     0.011 A 
HETATM   30  C   UNL     1       8.176  23.962  52.551  1.00  0.00     0.011 A 
ENDBRANCH  23  28
ENDBRANCH   1  19
TORSDOF 9
ENDMDL
MODEL 3
REMARK VINA RESULT:      -7.8      7.878     10.651
REMARK  9 active torsions:
REMARK  status: ('A' for Active; 'I' for Inactive)
REMARK    1  A    between atoms: C_2  and  C_3 
REMARK    2  A    between atoms: C_3  and  N_4 
REMARK    3  A    between atoms: C_7  and  C_8 
REMARK       I    between atoms: C_8  and  N_9 
REMARK    4  A    between atoms: N_9  and  C_10 
REMARK    5  A    between atoms: C_10  and  C_11 
REMARK    6  A    between atoms: C_13  and  O_14 
REMARK    7  A    between atoms: O_14  and  C_15 
REMARK    8  A    between atoms: C_15  and  C_16 
REMARK       I    between atoms: C_16  and  N_17 
REMARK    9  A    between atoms: C_23  and  C_24 
ROOT
HETATM    1  C   UNL     1       6.487  26.312  54.958  1.00  0.00     0.255 C 
HETATM    2  N   UNL     1       5.133  26.551  54.837  1.00  0.00    -0.353 N 
HETATM    3  O   UNL     1       7.334  27.199  54.889  1.00  0.00    -0.268 OA
HETATM    4  H   UNL     1       4.494  25.822  55.121  1.00  0.00     0.163 HD
ENDROOT
BRANCH   2   5
HETATM    5  C   UNL     1       4.683  27.924  54.830  1.00  0.00     0.161 C 
BRANCH   5   6
HETATM    6  C   UNL     1       4.191  28.456  53.507  1.00  0.00    -0.038 A 
HETATM    7  C   UNL     1       4.382  27.795  52.286  1.00  0.00     0.045 A 
HETATM    8  C   UNL     1       4.002  28.390  51.073  1.00  0.00     0.070 A 
HETATM    9  C   UNL     1       3.434  29.664  51.082  1.00  0.00     0.037 A 
HETATM   10  C   UNL     1       3.244  30.337  52.288  1.00  0.00     0.003 A 
HETATM   11  C   UNL     1       3.621  29.739  53.488  1.00  0.00     0.009 A 
BRANCH   8  12
HETATM   12  O   UNL     1       4.242  27.633  49.956  1.00  0.00    -0.342 OA
BRANCH  12  13
HETATM   13  C   UNL     1       4.803  28.316  48.836  1.00  0.00     0.278 C 
BRANCH  13  14
HETATM   14  C   UNL     1       5.001  27.372  47.652  1.00  0.00     0.239 C 
HETATM   15  N   UNL     1       6.230  27.412  47.060  1.00  0.00    -0.368 N 
HETATM   16  H   UNL     1       6.867  28.172  47.270  1.00  0.00     0.159 HD
HETATM   17  H   UNL     1       6.382  26.844  46.238  1.00  0.00     0.159 HD
HETATM   18  O   UNL     1       4.143  26.580  47.274  1.00  0.00    -0.271 OA
ENDBRANCH  13  14
ENDBRANCH  12  13
ENDBRANCH   8  12
ENDBRANCH   5   6
ENDBRANCH   2   5
BRANCH   1  19
HETATM   19  C   UNL     1       6.853  24.951  55.274  1.00  0.00     0.075 A 
HETATM   20  C   UNL     1       7.024  24.452  56.583  1.00  0.00     0.158 A 
HETATM   21  N   UNL     1       7.512  23.216  56.610  1.00  0.00    -0.183 NA
HETATM   22  N   UNL     1       7.716  22.921  55.310  1.00  0.00    -0.268 N 
HETATM   23  C   UNL     1       7.281  23.917  54.455  1.00  0.00     0.052 A 
BRANCH  22  24
HETATM   24  C   UNL     1       8.485  21.725  54.956  1.00  0.00     0.106 C 
HETATM   25  C   UNL     1       8.920  21.000  56.235  1.00  0.00     0.034 C 
BRANCH  24  26
HETATM   26  C   UNL     1       7.753  20.734  54.024  1.00  0.00     0.022 C 
HETATM   27  C   UNL     1       8.538  20.405  52.763  1.00  0.00     0.007 C 
ENDBRANCH  24  26
ENDBRANCH  22  24
BRANCH  23  28
HETATM   28  C   UNL     1       7.383  23.853  52.929  1.00  0.00     0.038 A 
HETATM   29  C   UNL     1       6.520  24.758  52.081  1.00  0.00     0.011 A 
HETATM   30  C   UNL     1       7.990  24.995  52.148  1.00  0.00     0.011 A 
ENDBRANCH  23  28
ENDBRANCH   1  19
TORSDOF 9
ENDMDL
MODEL 4
REMARK VINA RESULT:      -7.7      4.944      7.503
REMARK  9 active torsions:
REMARK  status: ('A' for Active; 'I' for Inactive)
REMARK    1  A    between atoms: C_2  and  C_3 
REMARK    2  A    between atoms: C_3  and  N_4 
REMARK    3  A    between atoms: C_7  and  C_8 
REMARK       I    between atoms: C_8  and  N_9 
REMARK    4  A    between atoms: N_9  and  C_10 
REMARK    5  A    between atoms: C_10  and  C_11 
REMARK    6  A    between atoms: C_13  and  O_14 
REMARK    7  A    between atoms: O_14  and  C_15 
REMARK    8  A    between atoms: C_15  and  C_16 
REMARK       I    between atoms: C_16  and  N_17 
REMARK    9  A    between atoms: C_23  and  C_24 
ROOT
HETATM    1  C   UNL     1       5.498  26.819  54.353  1.00  0.00     0.255 C 
HETATM    2  N   UNL     1       4.952  26.892  55.618  1.00  0.00    -0.353 N 
HETATM    3  O   UNL     1       5.379  27.712  53.518  1.00  0.00    -0.268 OA
HETATM    4  H   UNL     1       5.271  26.233  56.314  1.00  0.00     0.163 HD
ENDROOT
BRANCH   2   5
HETATM    5  C   UNL     1       4.391  28.154  56.044  1.00  0.00     0.161 C 
BRANCH   5   6
HETATM    6  C   UNL     1       5.322  29.077  56.790  1.00  0.00    -0.038 A 
HETATM    7  C   UNL     1       6.648  28.751  57.108  1.00  0.00     0.045 A 
HETATM    8  C   UNL     1       7.433  29.601  57.901  1.00  0.00     0.070 A 
HETATM    9  C   UNL     1       6.883  30.787  58.388  1.00  0.00     0.037 A 
HETATM   10  C   UNL     1       5.564  31.123  58.086  1.00  0.00     0.003 A 
HETATM   11  C   UNL     1       4.792  30.274  57.296  1.00  0.00     0.009 A 
BRANCH   8  12
HETATM   12  O   UNL     1       8.711  29.163  58.132  1.00  0.00    -0.342 OA
BRANCH  12  13
HETATM   13  C   UNL     1       9.740  30.149  58.073  1.00  0.00     0.278 C 
BRANCH  13  14
HETATM   14  C   UNL     1      10.654  29.926  56.869  1.00  0.00     0.239 C 
HETATM   15  N   UNL     1      11.946  29.595  57.158  1.00  0.00    -0.368 N 
HETATM   16  H   UNL     1      12.297  29.709  58.101  1.00  0.00     0.159 HD
HETATM   17  H   UNL     1      12.596  29.496  56.390  1.00  0.00     0.159 HD
HETATM   18  O   UNL     1      10.260  29.982  55.708  1.00  0.00    -0.271 OA
ENDBRANCH  13  14
ENDBRANCH  12  13
ENDBRANCH   8  12
ENDBRANCH   5   6
ENDBRANCH   2   5
BRANCH   1  19
HETATM   19  C   UNL     1       6.313  25.656  54.093  1.00  0.00     0.075 A 
HETATM   20  C   UNL     1       6.071  24.722  53.062  1.00  0.00     0.158 A 
HETATM   21  N   UNL     1       6.866  23.658  53.124  1.00  0.00    -0.183 NA
HETATM   22  N   UNL     1       7.600  23.868  54.236  1.00  0.00    -0.268 N 
HETATM   23  C   UNL     1       7.344  25.091  54.830  1.00  0.00     0.052 A 
BRANCH  22  24
HETATM   24  C   UNL     1       8.422  22.780  54.772  1.00  0.00     0.106 C 
HETATM   25  C   UNL     1       7.540  21.828  55.589  1.00  0.00     0.034 C 
BRANCH  24  26
HETATM   26  C   UNL     1       9.205  21.975  53.712  1.00  0.00     0.022 C 
HETATM   27  C   UNL     1       8.606  20.604  53.436  1.00  0.00     0.007 C 
ENDBRANCH  24  26
ENDBRANCH  22  24
BRANCH  23  28
HETATM   28  C   UNL     1       8.031  25.597  56.101  1.00  0.00     0.038 A 
HETATM   29  C   UNL     1       7.443  25.268  57.453  1.00  0.00     0.011 A 
HETATM   30  C   UNL     1       8.726  24.634  57.036  1.00  0.00     0.011 A 
ENDBRANCH  23  28
ENDBRANCH   1  19
TORSDOF 9
ENDMDL
MODEL 5
REMARK VINA RESULT:      -7.7      7.932     10.785
REMARK  9 active torsions:
REMARK  status: ('A' for Active; 'I' for Inactive)
REMARK    1  A    between atoms: C_2  and  C_3 
REMARK    2  A    between atoms: C_3  and  N_4 
REMARK    3  A    between atoms: C_7  and  C_8 
REMARK       I    between atoms: C_8  and  N_9 
REMARK    4  A    between atoms: N_9  and  C_10 
REMARK    5  A    between atoms: C_10  and  C_11 
REMARK    6  A    between atoms: C_13  and  O_14 
REMARK    7  A    between atoms: O_14  and  C_15 
REMARK    8  A    between atoms: C_15  and  C_16 
REMARK       I    between atoms: C_16  and  N_17 
REMARK    9  A    between atoms: C_23  and  C_24 
ROOT
HETATM    1  C   UNL     1       6.690  26.585  53.621  1.00  0.00     0.255 C 
HETATM    2  N   UNL     1       5.313  26.599  53.717  1.00  0.00    -0.353 N 
HETATM    3  O   UNL     1       7.376  27.603  53.660  1.00  0.00    -0.268 OA
HETATM    4  H   UNL     1       4.839  25.725  53.898  1.00  0.00     0.163 HD
ENDROOT
BRANCH   2   5
HETATM    5  C   UNL     1       4.670  27.841  54.081  1.00  0.00     0.161 C 
BRANCH   5   6
HETATM    6  C   UNL     1       4.114  28.660  52.943  1.00  0.00    -0.038 A 
HETATM    7  C   UNL     1       4.141  28.246  51.603  1.00  0.00     0.045 A 
HETATM    8  C   UNL     1       3.711  29.097  50.574  1.00  0.00     0.070 A 
HETATM    9  C   UNL     1       3.259  30.379  50.886  1.00  0.00     0.037 A 
HETATM   10  C   UNL     1       3.233  30.807  52.213  1.00  0.00     0.003 A 
HETATM   11  C   UNL     1       3.658  29.956  53.230  1.00  0.00     0.009 A 
BRANCH   8  12
HETATM   12  O   UNL     1       3.787  28.565  49.313  1.00  0.00    -0.342 OA
BRANCH  12  13
HETATM   13  C   UNL     1       4.587  27.392  49.167  1.00  0.00     0.278 C 
BRANCH  13  14
HETATM   14  C   UNL     1       4.825  27.063  47.695  1.00  0.00     0.239 C 
HETATM   15  N   UNL     1       5.985  27.542  47.159  1.00  0.00    -0.368 N 
HETATM   16  H   UNL     1       6.520  28.242  47.660  1.00  0.00     0.159 HD
HETATM   17  H   UNL     1       6.152  27.395  46.174  1.00  0.00     0.159 HD
HETATM   18  O   UNL     1       4.063  26.367  47.031  1.00  0.00    -0.271 OA
ENDBRANCH  13  14
ENDBRANCH  12  13
ENDBRANCH   8  12
ENDBRANCH   5   6
ENDBRANCH   2   5
BRANCH   1  19
HETATM   19  C   UNL     1       7.297  25.276  53.568  1.00  0.00     0.075 A 
HETATM   20  C   UNL     1       7.750  24.651  52.387  1.00  0.00     0.158 A 
HETATM   21  N   UNL     1       8.126  23.389  52.575  1.00  0.00    -0.183 NA
HETATM   22  N   UNL     1       7.866  23.166  53.880  1.00  0.00    -0.268 N 
HETATM   23  C   UNL     1       7.415  24.294  54.541  1.00  0.00     0.052 A 
BRANCH  22  24
HETATM   24  C   UNL     1       7.919  21.798  54.400  1.00  0.00     0.106 C 
HETATM   25  C   UNL     1       7.780  20.804  53.240  1.00  0.00     0.034 C 
BRANCH  24  26
HETATM   26  C   UNL     1       9.186  21.463  55.217  1.00  0.00     0.022 C 
HETATM   27  C   UNL     1       8.963  20.363  56.246  1.00  0.00     0.007 C 
ENDBRANCH  24  26
ENDBRANCH  22  24
BRANCH  23  28
HETATM   28  C   UNL     1       7.045  24.336  56.026  1.00  0.00     0.038 A 
HETATM   29  C   UNL     1       8.130  24.503  57.064  1.00  0.00     0.011 A 
HETATM   30  C   UNL     1       7.172  25.618  56.816  1.00  0.00     0.011 A 
ENDBRANCH  23  28
ENDBRANCH   1  19
TORSDOF 9
ENDMDL
MODEL 6
REMARK VINA RESULT:      -7.7      7.487     12.400
REMARK  9 active torsions:
REMARK  status: ('A' for Active; 'I' for Inactive)
REMARK    1  A    between atoms: C_2  and  C_3 
REMARK    2  A    between atoms: C_3  and  N_4 
REMARK    3  A    between atoms: C_7  and  C_8 
REMARK       I    between atoms: C_8  and  N_9 
REMARK    4  A    between atoms: N_9  and  C_10 
REMARK    5  A    between atoms: C_10  and  C_11 
REMARK    6  A    between atoms: C_13  and  O_14 
REMARK    7  A    between atoms: O_14  and  C_15 
REMARK    8  A    between atoms: C_15  and  C_16 
REMARK       I    between atoms: C_16  and  N_17 
REMARK    9  A    between atoms: C_23  and  C_24 
ROOT
HETATM    1  C   UNL     1       5.411  28.039  52.276  1.00  0.00     0.255 C 
HETATM    2  N   UNL     1       4.274  27.600  51.627  1.00  0.00    -0.353 N 
HETATM    3  O   UNL     1       6.124  28.939  51.843  1.00  0.00    -0.268 OA
HETATM    4  H   UNL     1       3.626  27.021  52.142  1.00  0.00     0.163 HD
ENDROOT
BRANCH   2   5
HETATM    5  C   UNL     1       3.795  28.368  50.500  1.00  0.00     0.161 C 
BRANCH   5   6
HETATM    6  C   UNL     1       3.365  27.576  49.291  1.00  0.00    -0.038 A 
HETATM    7  C   UNL     1       2.105  27.700  48.690  1.00  0.00     0.045 A 
HETATM    8  C   UNL     1       1.719  26.858  47.637  1.00  0.00     0.070 A 
HETATM    9  C   UNL     1       2.599  25.874  47.186  1.00  0.00     0.037 A 
HETATM   10  C   UNL     1       3.853  25.734  47.778  1.00  0.00     0.003 A 
HETATM   11  C   UNL     1       4.231  26.576  48.821  1.00  0.00     0.009 A 
BRANCH   8  12
HETATM   12  O   UNL     1       0.463  27.090  47.140  1.00  0.00    -0.342 OA
BRANCH  12  13
HETATM   13  C   UNL     1       0.290  28.291  46.389  1.00  0.00     0.278 C 
BRANCH  13  14
HETATM   14  C   UNL     1      -0.863  28.163  45.396  1.00  0.00     0.239 C 
HETATM   15  N   UNL     1      -0.609  27.414  44.283  1.00  0.00    -0.368 N 
HETATM   16  H   UNL     1       0.344  27.158  44.055  1.00  0.00     0.159 HD
HETATM   17  H   UNL     1      -1.327  27.353  43.575  1.00  0.00     0.159 HD
HETATM   18  O   UNL     1      -1.974  28.647  45.591  1.00  0.00    -0.271 OA
ENDBRANCH  13  14
ENDBRANCH  12  13
ENDBRANCH   8  12
ENDBRANCH   5   6
ENDBRANCH   2   5
BRANCH   1  19
HETATM   19  C   UNL     1       5.665  27.435  53.563  1.00  0.00     0.075 A 
HETATM   20  C   UNL     1       5.012  27.798  54.760  1.00  0.00     0.158 A 
HETATM   21  N   UNL     1       5.529  27.211  55.835  1.00  0.00    -0.183 NA
HETATM   22  N   UNL     1       6.564  26.497  55.347  1.00  0.00    -0.268 N 
HETATM   23  C   UNL     1       6.657  26.554  53.967  1.00  0.00     0.052 A 
BRANCH  22  24
HETATM   24  C   UNL     1       7.532  25.907  56.275  1.00  0.00     0.106 C 
HETATM   25  C   UNL     1       7.685  26.816  57.500  1.00  0.00     0.034 C 
BRANCH  24  26
HETATM   26  C   UNL     1       7.198  24.471  56.735  1.00  0.00     0.022 C 
HETATM   27  C   UNL     1       8.393  23.530  56.683  1.00  0.00     0.007 C 
ENDBRANCH  24  26
ENDBRANCH  22  24
BRANCH  23  28
HETATM   28  C   UNL     1       7.730  25.840  53.143  1.00  0.00     0.038 A 
HETATM   29  C   UNL     1       7.710  24.334  53.028  1.00  0.00     0.011 A 
HETATM   30  C   UNL     1       7.378  25.166  51.837  1.00  0.00     0.011 A 
ENDBRANCH  23  28
ENDBRANCH   1  19
TORSDOF 9
ENDMDL
MODEL 7
REMARK VINA RESULT:      -7.7      0.977      2.273
REMARK  9 active torsions:
REMARK  status: ('A' for Active; 'I' for Inactive)
REMARK    1  A    between atoms: C_2  and  C_3 
REMARK    2  A    between atoms: C_3  and  N_4 
REMARK    3  A    between atoms: C_7  and  C_8 
REMARK       I    between atoms: C_8  and  N_9 
REMARK    4  A    between atoms: N_9  and  C_10 
REMARK    5  A    between atoms: C_10  and  C_11 
REMARK    6  A    between atoms: C_13  and  O_14 
REMARK    7  A    between atoms: O_14  and  C_15 
REMARK    8  A    between atoms: C_15  and  C_16 
REMARK       I    between atoms: C_16  and  N_17 
REMARK    9  A    between atoms: C_23  and  C_24 
ROOT
HETATM    1  C   UNL     1       7.964  30.925  59.243  1.00  0.00     0.255 C 
HETATM    2  N   UNL     1       8.078  30.508  60.554  1.00  0.00    -0.353 N 
HETATM    3  O   UNL     1       8.104  32.094  58.896  1.00  0.00    -0.268 OA
HETATM    4  H   UNL     1       8.169  29.518  60.733  1.00  0.00     0.163 HD
ENDROOT
BRANCH   2   5
HETATM    5  C   UNL     1       8.582  31.452  61.525  1.00  0.00     0.161 C 
BRANCH   5   6
HETATM    6  C   UNL     1       7.584  31.967  62.531  1.00  0.00    -0.038 A 
HETATM    7  C   UNL     1       6.195  31.876  62.364  1.00  0.00     0.045 A 
HETATM    8  C   UNL     1       5.314  32.472  63.278  1.00  0.00     0.070 A 
HETATM    9  C   UNL     1       5.828  33.175  64.368  1.00  0.00     0.037 A 
HETATM   10  C   UNL     1       7.206  33.281  64.545  1.00  0.00     0.003 A 
HETATM   11  C   UNL     1       8.075  32.684  63.634  1.00  0.00     0.009 A 
BRANCH   8  12
HETATM   12  O   UNL     1       3.983  32.303  62.996  1.00  0.00    -0.342 OA
BRANCH  12  13
HETATM   13  C   UNL     1       3.407  33.230  62.077  1.00  0.00     0.278 C 
BRANCH  13  14
HETATM   14  C   UNL     1       2.579  34.288  62.802  1.00  0.00     0.239 C 
HETATM   15  N   UNL     1       1.670  33.815  63.704  1.00  0.00    -0.368 N 
HETATM   16  H   UNL     1       1.433  32.830  63.713  1.00  0.00     0.159 HD
HETATM   17  H   UNL     1       1.063  34.480  64.163  1.00  0.00     0.159 HD
HETATM   18  O   UNL     1       2.739  35.494  62.640  1.00  0.00    -0.271 OA
ENDBRANCH  13  14
ENDBRANCH  12  13
ENDBRANCH   8  12
ENDBRANCH   5   6
ENDBRANCH   2   5
BRANCH   1  19
HETATM   19  C   UNL     1       7.762  29.876  58.272  1.00  0.00     0.075 A 
HETATM   20  C   UNL     1       8.790  29.065  57.745  1.00  0.00     0.158 A 
HETATM   21  N   UNL     1       8.379  28.279  56.754  1.00  0.00    -0.183 NA
HETATM   22  N   UNL     1       7.083  28.616  56.592  1.00  0.00    -0.268 N 
HETATM   23  C   UNL     1       6.643  29.539  57.524  1.00  0.00     0.052 A 
BRANCH  22  24
HETATM   24  C   UNL     1       6.356  28.132  55.415  1.00  0.00     0.106 C 
HETATM   25  C   UNL     1       7.325  28.003  54.234  1.00  0.00     0.034 C 
BRANCH  24  26
HETATM   26  C   UNL     1       5.608  26.796  55.617  1.00  0.00     0.022 C 
HETATM   27  C   UNL     1       5.545  25.947  54.356  1.00  0.00     0.007 C 
ENDBRANCH  24  26
ENDBRANCH  22  24
BRANCH  23  28
HETATM   28  C   UNL     1       5.220  30.099  57.581  1.00  0.00     0.038 A 
HETATM   29  C   UNL     1       4.976  31.559  57.279  1.00  0.00     0.011 A 
HETATM   30  C   UNL     1       4.507  30.521  56.318  1.00  0.00     0.011 A 
ENDBRANCH  23  28
ENDBRANCH   1  19
TORSDOF 9
ENDMDL
MODEL 8
REMARK VINA RESULT:      -7.7      3.659      6.632
REMARK  9 active torsions:
REMARK  status: ('A' for Active; 'I' for Inactive)
REMARK    1  A    between atoms: C_2  and  C_3 
REMARK    2  A    between atoms: C_3  and  N_4 
REMARK    3  A    between atoms: C_7  and  C_8 
REMARK       I    between atoms: C_8  and  N_9 
REMARK    4  A    between atoms: N_9  and  C_10 
REMARK    5  A    between atoms: C_10  and  C_11 
REMARK    6  A    between atoms: C_13  and  O_14 
REMARK    7  A    between atoms: O_14  and  C_15 
REMARK    8  A    between atoms: C_15  and  C_16 
REMARK       I    between atoms: C_16  and  N_17 
REMARK    9  A    between atoms: C_23  and  C_24 
ROOT
HETATM    1  C   UNL     1       7.269  26.944  54.222  1.00  0.00     0.255 C 
HETATM    2  N   UNL     1       6.825  27.202  55.502  1.00  0.00    -0.353 N 
HETATM    3  O   UNL     1       7.387  27.815  53.364  1.00  0.00    -0.268 OA
HETATM    4  H   UNL     1       6.962  26.490  56.206  1.00  0.00     0.163 HD
ENDROOT
BRANCH   2   5
HETATM    5  C   UNL     1       6.686  28.582  55.909  1.00  0.00     0.161 C 
BRANCH   5   6
HETATM    6  C   UNL     1       7.795  29.137  56.767  1.00  0.00    -0.038 A 
HETATM    7  C   UNL     1       7.592  29.677  58.044  1.00  0.00     0.045 A 
HETATM    8  C   UNL     1       8.643  30.281  58.750  1.00  0.00     0.070 A 
HETATM    9  C   UNL     1       9.909  30.354  58.169  1.00  0.00     0.037 A 
HETATM   10  C   UNL     1      10.125  29.828  56.896  1.00  0.00     0.003 A 
HETATM   11  C   UNL     1       9.077  29.227  56.202  1.00  0.00     0.009 A 
BRANCH   8  12
HETATM   12  O   UNL     1       8.307  30.764  59.988  1.00  0.00    -0.342 OA
BRANCH  12  13
HETATM   13  C   UNL     1       7.342  31.815  60.018  1.00  0.00     0.278 C 
BRANCH  13  14
HETATM   14  C   UNL     1       6.732  31.969  61.409  1.00  0.00     0.239 C 
HETATM   15  N   UNL     1       7.070  31.006  62.316  1.00  0.00    -0.368 N 
HETATM   16  H   UNL     1       7.515  30.152  62.002  1.00  0.00     0.159 HD
HETATM   17  H   UNL     1       6.641  31.040  63.230  1.00  0.00     0.159 HD
HETATM   18  O   UNL     1       6.023  32.918  61.731  1.00  0.00    -0.271 OA
ENDBRANCH  13  14
ENDBRANCH  12  13
ENDBRANCH   8  12
ENDBRANCH   5   6
ENDBRANCH   2   5
BRANCH   1  19
HETATM   19  C   UNL     1       7.688  25.585  53.969  1.00  0.00     0.075 A 
HETATM   20  C   UNL     1       7.876  25.031  52.685  1.00  0.00     0.158 A 
HETATM   21  N   UNL     1       8.110  23.723  52.711  1.00  0.00    -0.183 NA
HETATM   22  N   UNL     1       8.021  23.404  54.018  1.00  0.00    -0.268 N 
HETATM   23  C   UNL     1       7.822  24.506  54.831  1.00  0.00     0.052 A 
BRANCH  22  24
HETATM   24  C   UNL     1       7.975  21.994  54.414  1.00  0.00     0.106 C 
HETATM   25  C   UNL     1       7.705  21.126  53.179  1.00  0.00     0.034 C 
BRANCH  24  26
HETATM   26  C   UNL     1       9.237  21.481  55.139  1.00  0.00     0.022 C 
HETATM   27  C   UNL     1       8.949  20.360  56.127  1.00  0.00     0.007 C 
ENDBRANCH  24  26
ENDBRANCH  22  24
BRANCH  23  28
HETATM   28  C   UNL     1       7.686  24.444  56.354  1.00  0.00     0.038 A 
HETATM   29  C   UNL     1       8.873  24.039  57.197  1.00  0.00     0.011 A 
HETATM   30  C   UNL     1       8.394  25.450  57.232  1.00  0.00     0.011 A 
ENDBRANCH  23  28
ENDBRANCH   1  19
TORSDOF 9
ENDMDL
MODEL 9
REMARK VINA RESULT:      -7.6      1.950      2.613
REMARK  9 active torsions:
REMARK  status: ('A' for Active; 'I' for Inactive)
REMARK    1  A    between atoms: C_2  and  C_3 
REMARK    2  A    between atoms: C_3  and  N_4 
REMARK    3  A    between atoms: C_7  and  C_8 
REMARK       I    between atoms: C_8  and  N_9 
REMARK    4  A    between atoms: N_9  and  C_10 
REMARK    5  A    between atoms: C_10  and  C_11 
REMARK    6  A    between atoms: C_13  and  O_14 
REMARK    7  A    between atoms: O_14  and  C_15 
REMARK    8  A    between atoms: C_15  and  C_16 
REMARK       I    between atoms: C_16  and  N_17 
REMARK    9  A    between atoms: C_23  and  C_24 
ROOT
HETATM    1  C   UNL     1       5.523  31.692  58.061  1.00  0.00     0.255 C 
HETATM    2  N   UNL     1       5.570  31.663  59.440  1.00  0.00    -0.353 N 
HETATM    3  O   UNL     1       5.555  32.732  57.410  1.00  0.00    -0.268 OA
HETATM    4  H   UNL     1       5.760  30.780  59.892  1.00  0.00     0.163 HD
ENDROOT
BRANCH   2   5
HETATM    5  C   UNL     1       5.873  32.894  60.135  1.00  0.00     0.161 C 
BRANCH   5   6
HETATM    6  C   UNL     1       6.258  32.759  61.587  1.00  0.00    -0.038 A 
HETATM    7  C   UNL     1       5.351  32.902  62.647  1.00  0.00     0.045 A 
HETATM    8  C   UNL     1       5.786  32.878  63.980  1.00  0.00     0.070 A 
HETATM    9  C   UNL     1       7.144  32.719  64.257  1.00  0.00     0.037 A 
HETATM   10  C   UNL     1       8.059  32.584  63.214  1.00  0.00     0.003 A 
HETATM   11  C   UNL     1       7.619  32.605  61.892  1.00  0.00     0.009 A 
BRANCH   8  12
HETATM   12  O   UNL     1       4.796  33.025  64.916  1.00  0.00    -0.342 OA
BRANCH  12  13
HETATM   13  C   UNL     1       4.367  34.359  65.181  1.00  0.00     0.278 C 
BRANCH  13  14
HETATM   14  C   UNL     1       3.901  34.516  66.627  1.00  0.00     0.239 C 
HETATM   15  N   UNL     1       2.820  35.327  66.818  1.00  0.00    -0.368 N 
HETATM   16  H   UNL     1       2.508  35.937  66.071  1.00  0.00     0.159 HD
HETATM   17  H   UNL     1       2.516  35.502  67.766  1.00  0.00     0.159 HD
HETATM   18  O   UNL     1       4.415  33.917  67.566  1.00  0.00    -0.271 OA
ENDBRANCH  13  14
ENDBRANCH  12  13
ENDBRANCH   8  12
ENDBRANCH   5   6
ENDBRANCH   2   5
BRANCH   1  19
HETATM   19  C   UNL     1       5.532  30.402  57.411  1.00  0.00     0.075 A 
HETATM   20  C   UNL     1       4.462  29.882  56.651  1.00  0.00     0.158 A 
HETATM   21  N   UNL     1       4.648  28.616  56.288  1.00  0.00    -0.183 NA
HETATM   22  N   UNL     1       5.824  28.285  56.859  1.00  0.00    -0.268 N 
HETATM   23  C   UNL     1       6.429  29.349  57.505  1.00  0.00     0.052 A 
BRANCH  22  24
HETATM   24  C   UNL     1       6.241  26.881  56.886  1.00  0.00     0.106 C 
HETATM   25  C   UNL     1       5.047  26.002  57.279  1.00  0.00     0.034 C 
BRANCH  24  26
HETATM   26  C   UNL     1       6.855  26.360  55.569  1.00  0.00     0.022 C 
HETATM   27  C   UNL     1       7.487  27.458  54.726  1.00  0.00     0.007 C 
ENDBRANCH  24  26
ENDBRANCH  22  24
BRANCH  23  28
HETATM   28  C   UNL     1       7.771  29.266  58.237  1.00  0.00     0.038 A 
HETATM   29  C   UNL     1       9.056  29.216  57.445  1.00  0.00     0.011 A 
HETATM   30  C   UNL     1       8.725  30.437  58.232  1.00  0.00     0.011 A 
ENDBRANCH  23  28
ENDBRANCH   1  19
TORSDOF 9
ENDMDL
MODEL 10
REMARK VINA RESULT:      -7.5      3.616      5.847
REMARK  9 active torsions:
REMARK  status: ('A' for Active; 'I' for Inactive)
REMARK    1  A    between atoms: C_2  and  C_3 
REMARK    2  A    between atoms: C_3  and  N_4 
REMARK    3  A    between atoms: C_7  and  C_8 
REMARK       I    between atoms: C_8  and  N_9 
REMARK    4  A    between atoms: N_9  and  C_10 
REMARK    5  A    between atoms: C_10  and  C_11 
REMARK    6  A    between atoms: C_13  and  O_14 
REMARK    7  A    between atoms: O_14  and  C_15 
REMARK    8  A    between atoms: C_15  and  C_16 
REMARK       I    between atoms: C_16  and  N_17 
REMARK    9  A    between atoms: C_23  and  C_24 
ROOT
HETATM    1  C   UNL     1       6.915  26.800  56.035  1.00  0.00     0.255 C 
HETATM    2  N   UNL     1       7.894  27.700  56.404  1.00  0.00    -0.353 N 
HETATM    3  O   UNL     1       5.774  27.137  55.731  1.00  0.00    -0.268 OA
HETATM    4  H   UNL     1       8.852  27.380  56.424  1.00  0.00     0.163 HD
ENDROOT
BRANCH   2   5
HETATM    5  C   UNL     1       7.622  29.109  56.231  1.00  0.00     0.161 C 
BRANCH   5   6
HETATM    6  C   UNL     1       7.496  29.922  57.494  1.00  0.00    -0.038 A 
HETATM    7  C   UNL     1       6.650  31.033  57.622  1.00  0.00     0.045 A 
HETATM    8  C   UNL     1       6.657  31.818  58.784  1.00  0.00     0.070 A 
HETATM    9  C   UNL     1       7.527  31.496  59.826  1.00  0.00     0.037 A 
HETATM   10  C   UNL     1       8.379  30.399  59.712  1.00  0.00     0.003 A 
HETATM   11  C   UNL     1       8.365  29.621  58.556  1.00  0.00     0.009 A 
BRANCH   8  12
HETATM   12  O   UNL     1       5.779  32.871  58.777  1.00  0.00    -0.342 OA
BRANCH  12  13
HETATM   13  C   UNL     1       4.834  32.915  59.845  1.00  0.00     0.278 C 
BRANCH  13  14
HETATM   14  C   UNL     1       3.644  31.998  59.572  1.00  0.00     0.239 C 
HETATM   15  N   UNL     1       3.160  31.315  60.650  1.00  0.00    -0.368 N 
HETATM   16  H   UNL     1       3.703  31.271  61.505  1.00  0.00     0.159 HD
HETATM   17  H   UNL     1       2.410  30.654  60.499  1.00  0.00     0.159 HD
HETATM   18  O   UNL     1       3.106  31.906  58.473  1.00  0.00    -0.271 OA
ENDBRANCH  13  14
ENDBRANCH  12  13
ENDBRANCH   8  12
ENDBRANCH   5   6
ENDBRANCH   2   5
BRANCH   1  19
HETATM   19  C   UNL     1       7.341  25.424  55.930  1.00  0.00     0.075 A 
HETATM   20  C   UNL     1       7.962  24.697  56.969  1.00  0.00     0.158 A 
HETATM   21  N   UNL     1       8.401  23.504  56.580  1.00  0.00    -0.183 NA
HETATM   22  N   UNL     1       8.116  23.469  55.262  1.00  0.00    -0.268 N 
HETATM   23  C   UNL     1       7.422  24.585  54.829  1.00  0.00     0.052 A 
BRANCH  22  24
HETATM   24  C   UNL     1       8.679  22.400  54.433  1.00  0.00     0.106 C 
HETATM   25  C   UNL     1       9.896  21.793  55.140  1.00  0.00     0.034 C 
BRANCH  24  26
HETATM   26  C   UNL     1       7.687  21.278  54.057  1.00  0.00     0.022 C 
HETATM   27  C   UNL     1       8.129  20.466  52.848  1.00  0.00     0.007 C 
ENDBRANCH  24  26
ENDBRANCH  22  24
BRANCH  23  28
HETATM   28  C   UNL     1       6.965  24.813  53.386  1.00  0.00     0.038 A 
HETATM   29  C   UNL     1       7.461  26.019  52.624  1.00  0.00     0.011 A 
HETATM   30  C   UNL     1       7.934  24.659  52.237  1.00  0.00     0.011 A 
ENDBRANCH  23  28
ENDBRANCH   1  19
TORSDOF 9
ENDMDL
