MODEL 1
REMARK VINA RESULT:     -10.0      0.000      0.000
REMARK  6 active torsions:
REMARK  status: ('A' for Active; 'I' for Inactive)
REMARK    1  A    between atoms: O_2  and  C_3 
REMARK    2  A    between atoms: C_5  and  C_6 
REMARK       I    between atoms: C_6  and  N_7 
REMARK    3  A    between atoms: N_7  and  C_8 
REMARK    4  A    between atoms: C_10  and  C_11 
REMARK    5  A    between atoms: C_11  and  C_12 
REMARK    6  A    between atoms: C_12  and  C_13 
ROOT
HETATM    1  C   UNL     1       6.984  27.021  55.173  1.00  0.00     0.725 A 
HETATM    2  N   UNL     1       7.444  26.422  54.102  1.00  0.00    -0.046 NA
HETATM    3  C   UNL     1       6.496  25.459  53.847  1.00  0.00     0.166 A 
HETATM    4  N   UNL     1       5.477  25.429  54.718  1.00  0.00    -0.144 NA
HETATM    5  N   UNL     1       5.808  26.432  55.551  1.00  0.00    -0.106 N 
HETATM    6  H   UNL     1       5.218  26.683  56.339  1.00  0.00     0.208 HD
ENDROOT
BRANCH   1   7
HETATM    7  N   UNL     1       7.586  28.074  55.809  1.00  0.00    -0.152 N 
HETATM    8  C   UNL     1       8.302  27.903  56.973  1.00  0.00     0.270 C 
HETATM    9  O   UNL     1       8.446  26.821  57.540  1.00  0.00    -0.267 OA
HETATM   10  H   UNL     1       7.413  28.981  55.401  1.00  0.00     0.187 HD
BRANCH   8  11
HETATM   11  C   UNL     1       8.900  29.135  57.560  1.00  0.00     0.035 A 
HETATM   12  C   UNL     1       8.254  29.731  58.651  1.00  0.00     0.053 A 
HETATM   13  C   UNL     1       8.767  30.889  59.240  1.00  0.00     0.069 A 
HETATM   14  C   UNL     1       9.941  31.452  58.734  1.00  0.00     0.037 A 
HETATM   15  C   UNL     1      10.600  30.852  57.658  1.00  0.00     0.004 A 
HETATM   16  C   UNL     1      10.087  29.695  57.072  1.00  0.00     0.017 A 
BRANCH  13  17
HETATM   17  O   UNL     1       8.034  31.370  60.289  1.00  0.00    -0.356 OA
HETATM   18  C   UNL     1       8.730  31.627  61.501  1.00  0.00     0.210 C 
ENDBRANCH  13  17
ENDBRANCH   8  11
ENDBRANCH   1   7
BRANCH   3  19
HETATM   19  C   UNL     1       6.587  24.514  52.702  1.00  0.00     0.087 C 
BRANCH  19  20
HETATM   20  C   UNL     1       7.952  23.833  52.599  1.00  0.00     0.048 C 
BRANCH  20  21
HETATM   21  C   UNL     1       7.986  22.510  53.300  1.00  0.00    -0.030 A 
HETATM   22  C   UNL     1       8.119  22.292  54.709  1.00  0.00    -0.002 A 
HETATM   23  C   UNL     1       8.092  20.913  54.923  1.00  0.00     0.042 A 
HETATM   24  C   UNL     1       8.259  23.142  55.825  1.00  0.00     0.014 A 
HETATM   25  C   UNL     1       8.194  20.342  56.197  1.00  0.00     0.030 A 
HETATM   26  N   UNL     1       7.953  20.316  53.692  1.00  0.00    -0.365 N 
HETATM   27  C   UNL     1       8.331  21.208  57.286  1.00  0.00     0.002 A 
HETATM   28  C   UNL     1       8.364  22.588  57.107  1.00  0.00     0.001 A 
HETATM   29  H   UNL     1       7.903  19.318  53.544  1.00  0.00     0.165 HD
HETATM   30  C   UNL     1       7.889  21.265  52.709  1.00  0.00     0.096 A 
ENDBRANCH  20  21
ENDBRANCH  19  20
ENDBRANCH   3  19
TORSDOF 6
ENDMDL
MODEL 2
REMARK VINA RESULT:      -9.8      2.654      4.980
REMARK  6 active torsions:
REMARK  status: ('A' for Active; 'I' for Inactive)
REMARK    1  A    between atoms: O_2  and  C_3 
REMARK    2  A    between atoms: C_5  and  C_6 
REMARK       I    between atoms: C_6  and  N_7 
REMARK    3  A    between atoms: N_7  and  C_8 
REMARK    4  A    between atoms: C_10  and  C_11 
REMARK    5  A    between atoms: C_11  and  C_12 
REMARK    6  A    between atoms: C_12  and  C_13 
ROOT
HETATM    1  C   UNL     1       8.378  29.778  58.883  1.00  0.00     0.725 A 
HETATM    2  N   UNL     1       7.775  28.742  58.353  1.00  0.00    -0.046 NA
HETATM    3  C   UNL     1       8.451  28.555  57.170  1.00  0.00     0.166 A 
HETATM    4  N   UNL     1       9.435  29.435  56.940  1.00  0.00    -0.144 NA
HETATM    5  N   UNL     1       9.371  30.202  58.044  1.00  0.00    -0.106 N 
HETATM    6  H   UNL     1      10.010  30.979  58.187  1.00  0.00     0.208 HD
ENDROOT
BRANCH   1   7
HETATM    7  N   UNL     1       8.062  30.344  60.090  1.00  0.00    -0.152 N 
HETATM    8  C   UNL     1       7.586  31.633  60.183  1.00  0.00     0.270 C 
HETATM    9  O   UNL     1       7.424  32.378  59.219  1.00  0.00    -0.267 OA
HETATM   10  H   UNL     1       8.262  29.774  60.899  1.00  0.00     0.187 HD
BRANCH   8  11
HETATM   11  C   UNL     1       7.287  32.122  61.559  1.00  0.00     0.035 A 
HETATM   12  C   UNL     1       5.950  32.359  61.902  1.00  0.00     0.053 A 
HETATM   13  C   UNL     1       5.611  32.820  63.177  1.00  0.00     0.069 A 
HETATM   14  C   UNL     1       6.620  33.040  64.116  1.00  0.00     0.037 A 
HETATM   15  C   UNL     1       7.954  32.789  63.786  1.00  0.00     0.004 A 
HETATM   16  C   UNL     1       8.291  32.327  62.512  1.00  0.00     0.017 A 
BRANCH  13  17
HETATM   17  O   UNL     1       4.273  33.018  63.375  1.00  0.00    -0.356 OA
HETATM   18  C   UNL     1       3.443  33.036  62.221  1.00  0.00     0.210 C 
ENDBRANCH  13  17
ENDBRANCH   8  11
ENDBRANCH   1   7
BRANCH   3  19
HETATM   19  C   UNL     1       8.119  27.468  56.210  1.00  0.00     0.087 C 
BRANCH  19  20
HETATM   20  C   UNL     1       7.340  26.321  56.855  1.00  0.00     0.048 C 
BRANCH  20  21
HETATM   21  C   UNL     1       7.842  24.977  56.427  1.00  0.00    -0.030 A 
HETATM   22  C   UNL     1       7.755  24.409  55.115  1.00  0.00    -0.002 A 
HETATM   23  C   UNL     1       8.357  23.151  55.164  1.00  0.00     0.042 A 
HETATM   24  C   UNL     1       7.220  24.850  53.888  1.00  0.00     0.014 A 
HETATM   25  C   UNL     1       8.454  22.313  54.046  1.00  0.00     0.030 A 
HETATM   26  N   UNL     1       8.789  22.959  56.456  1.00  0.00    -0.365 N 
HETATM   27  C   UNL     1       7.916  22.776  52.841  1.00  0.00     0.002 A 
HETATM   28  C   UNL     1       7.307  24.025  52.760  1.00  0.00     0.001 A 
HETATM   29  H   UNL     1       9.264  22.129  56.781  1.00  0.00     0.165 HD
HETATM   30  C   UNL     1       8.484  24.049  57.224  1.00  0.00     0.096 A 
ENDBRANCH  20  21
ENDBRANCH  19  20
ENDBRANCH   3  19
TORSDOF 6
ENDMDL
MODEL 3
REMARK VINA RESULT:      -9.6      1.893      3.196
REMARK  6 active torsions:
REMARK  status: ('A' for Active; 'I' for Inactive)
REMARK    1  A    between atoms: O_2  and  C_3 
REMARK    2  A    between atoms: C_5  and  C_6 
REMARK       I    between atoms: C_6  and  N_7 
REMARK    3  A    between atoms: N_7  and  C_8 
REMARK    4  A    between atoms: C_10  and  C_11 
REMARK    5  A    between atoms: C_11  and  C_12 
REMARK    6  A    between atoms: C_12  and  C_13 
ROOT
HETATM    1  C   UNL     1       6.878  28.894  56.979  1.00  0.00     0.725 A 
HETATM    2  N   UNL     1       6.398  27.678  56.890  1.00  0.00    -0.046 NA
HETATM    3  C   UNL     1       6.519  27.388  55.551  1.00  0.00     0.166 A 
HETATM    4  N   UNL     1       7.043  28.374  54.808  1.00  0.00    -0.144 NA
HETATM    5  N   UNL     1       7.264  29.320  55.739  1.00  0.00    -0.106 N 
HETATM    6  H   UNL     1       7.677  30.216  55.495  1.00  0.00     0.208 HD
ENDROOT
BRANCH   1   7
HETATM    7  N   UNL     1       6.980  29.620  58.137  1.00  0.00    -0.152 N 
HETATM    8  C   UNL     1       8.201  30.020  58.635  1.00  0.00     0.270 C 
HETATM    9  O   UNL     1       9.280  29.752  58.110  1.00  0.00    -0.267 OA
HETATM   10  H   UNL     1       6.110  29.781  58.622  1.00  0.00     0.187 HD
BRANCH   8  11
HETATM   11  C   UNL     1       8.164  30.800  59.904  1.00  0.00     0.035 A 
HETATM   12  C   UNL     1       7.118  31.712  60.091  1.00  0.00     0.053 A 
HETATM   13  C   UNL     1       7.034  32.473  61.261  1.00  0.00     0.069 A 
HETATM   14  C   UNL     1       8.004  32.314  62.252  1.00  0.00     0.037 A 
HETATM   15  C   UNL     1       9.041  31.392  62.079  1.00  0.00     0.004 A 
HETATM   16  C   UNL     1       9.122  30.633  60.911  1.00  0.00     0.017 A 
BRANCH  13  17
HETATM   17  O   UNL     1       5.969  33.329  61.310  1.00  0.00    -0.356 OA
HETATM   18  C   UNL     1       4.680  32.771  61.096  1.00  0.00     0.210 C 
ENDBRANCH  13  17
ENDBRANCH   8  11
ENDBRANCH   1   7
BRANCH   3  19
HETATM   19  C   UNL     1       6.100  26.089  54.961  1.00  0.00     0.087 C 
BRANCH  19  20
HETATM   20  C   UNL     1       7.255  25.335  54.299  1.00  0.00     0.048 C 
BRANCH  20  21
HETATM   21  C   UNL     1       7.658  24.116  55.069  1.00  0.00    -0.030 A 
HETATM   22  C   UNL     1       7.904  22.810  54.536  1.00  0.00    -0.002 A 
HETATM   23  C   UNL     1       8.263  21.984  55.602  1.00  0.00     0.042 A 
HETATM   24  C   UNL     1       7.855  22.253  53.241  1.00  0.00     0.014 A 
HETATM   25  C   UNL     1       8.580  20.630  55.438  1.00  0.00     0.030 A 
HETATM   26  N   UNL     1       8.232  22.756  56.739  1.00  0.00    -0.365 N 
HETATM   27  C   UNL     1       8.525  20.104  54.143  1.00  0.00     0.002 A 
HETATM   28  C   UNL     1       8.168  20.901  53.059  1.00  0.00     0.001 A 
HETATM   29  H   UNL     1       8.450  22.417  57.665  1.00  0.00     0.165 HD
HETATM   30  C   UNL     1       7.869  24.039  56.432  1.00  0.00     0.096 A 
ENDBRANCH  20  21
ENDBRANCH  19  20
ENDBRANCH   3  19
TORSDOF 6
ENDMDL
MODEL 4
REMARK VINA RESULT:      -9.5      2.183      4.056
REMARK  6 active torsions:
REMARK  status: ('A' for Active; 'I' for Inactive)
REMARK    1  A    between atoms: O_2  and  C_3 
REMARK    2  A    between atoms: C_5  and  C_6 
REMARK       I    between atoms: C_6  and  N_7 
REMARK    3  A    between atoms: N_7  and  C_8 
REMARK    4  A    between atoms: C_10  and  C_11 
REMARK    5  A    between atoms: C_11  and  C_12 
REMARK    6  A    between atoms: C_12  and  C_13 
ROOT
HETATM    1  C   UNL     1       7.610  29.164  57.997  1.00  0.00     0.725 A 
HETATM    2  N   UNL     1       7.621  27.883  58.274  1.00  0.00    -0.046 NA
HETATM    3  C   UNL     1       8.153  27.320  57.138  1.00  0.00     0.166 A 
HETATM    4  N   UNL     1       8.461  28.193  56.169  1.00  0.00    -0.144 NA
HETATM    5  N   UNL     1       8.107  29.360  56.739  1.00  0.00    -0.106 N 
HETATM    6  H   UNL     1       8.227  30.244  56.253  1.00  0.00     0.208 HD
ENDROOT
BRANCH   1   7
HETATM    7  N   UNL     1       7.171  30.151  58.841  1.00  0.00    -0.152 N 
HETATM    8  C   UNL     1       7.975  30.665  59.834  1.00  0.00     0.270 C 
HETATM    9  O   UNL     1       9.121  30.281  60.059  1.00  0.00    -0.267 OA
HETATM   10  H   UNL     1       6.206  30.423  58.721  1.00  0.00     0.187 HD
BRANCH   8  11
HETATM   11  C   UNL     1       7.368  31.730  60.680  1.00  0.00     0.035 A 
HETATM   12  C   UNL     1       7.922  31.968  61.945  1.00  0.00     0.053 A 
HETATM   13  C   UNL     1       7.393  32.953  62.783  1.00  0.00     0.069 A 
HETATM   14  C   UNL     1       6.302  33.708  62.347  1.00  0.00     0.037 A 
HETATM   15  C   UNL     1       5.756  33.488  61.080  1.00  0.00     0.004 A 
HETATM   16  C   UNL     1       6.287  32.505  60.244  1.00  0.00     0.017 A 
BRANCH  13  17
HETATM   17  O   UNL     1       8.022  33.075  63.990  1.00  0.00    -0.356 OA
HETATM   18  C   UNL     1       7.213  33.406  65.111  1.00  0.00     0.210 C 
ENDBRANCH  13  17
ENDBRANCH   8  11
ENDBRANCH   1   7
BRANCH   3  19
HETATM   19  C   UNL     1       8.369  25.856  56.983  1.00  0.00     0.087 C 
BRANCH  19  20
HETATM   20  C   UNL     1       7.144  25.130  56.425  1.00  0.00     0.048 C 
BRANCH  20  21
HETATM   21  C   UNL     1       7.430  24.445  55.124  1.00  0.00    -0.030 A 
HETATM   22  C   UNL     1       7.642  23.043  54.924  1.00  0.00    -0.002 A 
HETATM   23  C   UNL     1       7.862  22.843  53.560  1.00  0.00     0.042 A 
HETATM   24  C   UNL     1       7.667  21.922  55.779  1.00  0.00     0.014 A 
HETATM   25  C   UNL     1       8.101  21.579  53.008  1.00  0.00     0.030 A 
HETATM   26  N   UNL     1       7.791  24.076  52.955  1.00  0.00    -0.365 N 
HETATM   27  C   UNL     1       8.119  20.485  53.879  1.00  0.00     0.002 A 
HETATM   28  C   UNL     1       7.906  20.650  55.245  1.00  0.00     0.001 A 
HETATM   29  H   UNL     1       7.911  24.234  51.965  1.00  0.00     0.165 HD
HETATM   30  C   UNL     1       7.532  25.046  53.885  1.00  0.00     0.096 A 
ENDBRANCH  20  21
ENDBRANCH  19  20
ENDBRANCH   3  19
TORSDOF 6
ENDMDL
MODEL 5
REMARK VINA RESULT:      -9.2      1.463      2.037
REMARK  6 active torsions:
REMARK  status: ('A' for Active; 'I' for Inactive)
REMARK    1  A    between atoms: O_2  and  C_3 
REMARK    2  A    between atoms: C_5  and  C_6 
REMARK       I    between atoms: C_6  and  N_7 
REMARK    3  A    between atoms: N_7  and  C_8 
REMARK    4  A    between atoms: C_10  and  C_11 
REMARK    5  A    between atoms: C_11  and  C_12 
REMARK    6  A    between atoms: C_12  and  C_13 
ROOT
HETATM    1  C   UNL     1       7.406  28.429  54.605  1.00  0.00     0.725 A 
HETATM    2  N   UNL     1       8.010  27.342  54.192  1.00  0.00    -0.046 NA
HETATM    3  C   UNL     1       7.163  26.858  53.223  1.00  0.00     0.166 A 
HETATM    4  N   UNL     1       6.057  27.591  53.026  1.00  0.00    -0.144 NA
HETATM    5  N   UNL     1       6.235  28.585  53.915  1.00  0.00    -0.106 N 
HETATM    6  H   UNL     1       5.557  29.335  54.012  1.00  0.00     0.208 HD
ENDROOT
BRANCH   1   7
HETATM    7  N   UNL     1       7.877  29.276  55.573  1.00  0.00    -0.152 N 
HETATM    8  C   UNL     1       8.247  28.817  56.818  1.00  0.00     0.270 C 
HETATM    9  O   UNL     1       8.170  27.641  57.169  1.00  0.00    -0.267 OA
HETATM   10  H   UNL     1       7.873  30.255  55.328  1.00  0.00     0.187 HD
BRANCH   8  11
HETATM   11  C   UNL     1       8.738  29.848  57.775  1.00  0.00     0.035 A 
HETATM   12  C   UNL     1       7.962  30.124  58.908  1.00  0.00     0.053 A 
HETATM   13  C   UNL     1       8.372  31.084  59.838  1.00  0.00     0.069 A 
HETATM   14  C   UNL     1       9.572  31.768  59.632  1.00  0.00     0.037 A 
HETATM   15  C   UNL     1      10.359  31.485  58.513  1.00  0.00     0.004 A 
HETATM   16  C   UNL     1       9.949  30.525  57.586  1.00  0.00     0.017 A 
BRANCH  13  17
HETATM   17  O   UNL     1       7.519  31.260  60.891  1.00  0.00    -0.356 OA
HETATM   18  C   UNL     1       7.474  32.553  61.479  1.00  0.00     0.210 C 
ENDBRANCH  13  17
ENDBRANCH   8  11
ENDBRANCH   1   7
BRANCH   3  19
HETATM   19  C   UNL     1       7.437  25.616  52.451  1.00  0.00     0.087 C 
BRANCH  19  20
HETATM   20  C   UNL     1       6.490  24.470  52.812  1.00  0.00     0.048 C 
BRANCH  20  21
HETATM   21  C   UNL     1       6.952  23.703  54.012  1.00  0.00    -0.030 A 
HETATM   22  C   UNL     1       7.581  22.416  54.015  1.00  0.00    -0.002 A 
HETATM   23  C   UNL     1       7.852  22.086  55.344  1.00  0.00     0.042 A 
HETATM   24  C   UNL     1       7.947  21.501  53.008  1.00  0.00     0.014 A 
HETATM   25  C   UNL     1       8.473  20.888  55.716  1.00  0.00     0.030 A 
HETATM   26  N   UNL     1       7.400  23.129  56.119  1.00  0.00    -0.365 N 
HETATM   27  C   UNL     1       8.827  19.998  54.696  1.00  0.00     0.002 A 
HETATM   28  C   UNL     1       8.569  20.297  53.361  1.00  0.00     0.001 A 
HETATM   29  H   UNL     1       7.466  23.161  57.126  1.00  0.00     0.165 HD
HETATM   30  C   UNL     1       6.857  24.106  55.330  1.00  0.00     0.096 A 
ENDBRANCH  20  21
ENDBRANCH  19  20
ENDBRANCH   3  19
TORSDOF 6
ENDMDL
MODEL 6
REMARK VINA RESULT:      -9.2      2.713      9.781
REMARK  6 active torsions:
REMARK  status: ('A' for Active; 'I' for Inactive)
REMARK    1  A    between atoms: O_2  and  C_3 
REMARK    2  A    between atoms: C_5  and  C_6 
REMARK       I    between atoms: C_6  and  N_7 
REMARK    3  A    between atoms: N_7  and  C_8 
REMARK    4  A    between atoms: C_10  and  C_11 
REMARK    5  A    between atoms: C_11  and  C_12 
REMARK    6  A    between atoms: C_12  and  C_13 
ROOT
HETATM    1  C   UNL     1       7.671  26.656  57.335  1.00  0.00     0.725 A 
HETATM    2  N   UNL     1       8.576  27.578  57.553  1.00  0.00    -0.046 NA
HETATM    3  C   UNL     1       7.831  28.726  57.688  1.00  0.00     0.166 A 
HETATM    4  N   UNL     1       6.508  28.556  57.553  1.00  0.00    -0.144 NA
HETATM    5  N   UNL     1       6.431  27.232  57.330  1.00  0.00    -0.106 N 
HETATM    6  H   UNL     1       5.537  26.770  57.192  1.00  0.00     0.208 HD
ENDROOT
BRANCH   1   7
HETATM    7  N   UNL     1       7.930  25.324  57.145  1.00  0.00    -0.152 N 
HETATM    8  C   UNL     1       7.293  24.595  56.165  1.00  0.00     0.270 C 
HETATM    9  O   UNL     1       6.444  25.058  55.405  1.00  0.00    -0.267 OA
HETATM   10  H   UNL     1       8.566  24.909  57.811  1.00  0.00     0.187 HD
BRANCH   8  11
HETATM   11  C   UNL     1       7.667  23.156  56.074  1.00  0.00     0.035 A 
HETATM   12  C   UNL     1       7.473  22.497  54.853  1.00  0.00     0.053 A 
HETATM   13  C   UNL     1       7.803  21.146  54.710  1.00  0.00     0.069 A 
HETATM   14  C   UNL     1       8.338  20.454  55.797  1.00  0.00     0.037 A 
HETATM   15  C   UNL     1       8.551  21.110  57.013  1.00  0.00     0.004 A 
HETATM   16  C   UNL     1       8.221  22.459  57.154  1.00  0.00     0.017 A 
BRANCH  13  17
HETATM   17  O   UNL     1       7.555  20.626  53.470  1.00  0.00    -0.356 OA
HETATM   18  C   UNL     1       8.676  20.408  52.623  1.00  0.00     0.210 C 
ENDBRANCH  13  17
ENDBRANCH   8  11
ENDBRANCH   1   7
BRANCH   3  19
HETATM   19  C   UNL     1       8.435  30.058  57.957  1.00  0.00     0.087 C 
BRANCH  19  20
HETATM   20  C   UNL     1       7.528  30.967  58.789  1.00  0.00     0.048 C 
BRANCH  20  21
HETATM   21  C   UNL     1       8.035  31.157  60.185  1.00  0.00    -0.030 A 
HETATM   22  C   UNL     1       7.496  32.037  61.178  1.00  0.00    -0.002 A 
HETATM   23  C   UNL     1       8.266  31.888  62.332  1.00  0.00     0.042 A 
HETATM   24  C   UNL     1       6.420  32.949  61.202  1.00  0.00     0.014 A 
HETATM   25  C   UNL     1       8.013  32.601  63.510  1.00  0.00     0.030 A 
HETATM   26  N   UNL     1       9.239  30.957  62.050  1.00  0.00    -0.365 N 
HETATM   27  C   UNL     1       6.940  33.497  63.506  1.00  0.00     0.002 A 
HETATM   28  C   UNL     1       6.153  33.671  62.371  1.00  0.00     0.001 A 
HETATM   29  H   UNL     1       9.942  30.650  62.707  1.00  0.00     0.165 HD
HETATM   30  C   UNL     1       9.110  30.511  60.763  1.00  0.00     0.096 A 
ENDBRANCH  20  21
ENDBRANCH  19  20
ENDBRANCH   3  19
TORSDOF 6
ENDMDL
MODEL 7
REMARK VINA RESULT:      -9.2      4.389      7.473
REMARK  6 active torsions:
REMARK  status: ('A' for Active; 'I' for Inactive)
REMARK    1  A    between atoms: O_2  and  C_3 
REMARK    2  A    between atoms: C_5  and  C_6 
REMARK       I    between atoms: C_6  and  N_7 
REMARK    3  A    between atoms: N_7  and  C_8 
REMARK    4  A    between atoms: C_10  and  C_11 
REMARK    5  A    between atoms: C_11  and  C_12 
REMARK    6  A    between atoms: C_12  and  C_13 
ROOT
HETATM    1  C   UNL     1       4.902  26.496  53.528  1.00  0.00     0.725 A 
HETATM    2  N   UNL     1       5.503  25.507  54.144  1.00  0.00    -0.046 NA
HETATM    3  C   UNL     1       5.618  25.964  55.436  1.00  0.00     0.166 A 
HETATM    4  N   UNL     1       5.126  27.193  55.643  1.00  0.00    -0.144 NA
HETATM    5  N   UNL     1       4.675  27.511  54.416  1.00  0.00    -0.106 N 
HETATM    6  H   UNL     1       4.223  28.401  54.232  1.00  0.00     0.208 HD
ENDROOT
BRANCH   1   7
HETATM    7  N   UNL     1       4.555  26.506  52.203  1.00  0.00    -0.152 N 
HETATM    8  C   UNL     1       4.953  27.518  51.358  1.00  0.00     0.270 C 
HETATM    9  O   UNL     1       5.622  28.487  51.712  1.00  0.00    -0.267 OA
HETATM   10  H   UNL     1       3.940  25.759  51.912  1.00  0.00     0.187 HD
BRANCH   8  11
HETATM   11  C   UNL     1       4.500  27.404  49.943  1.00  0.00     0.035 A 
HETATM   12  C   UNL     1       4.243  28.584  49.233  1.00  0.00     0.053 A 
HETATM   13  C   UNL     1       3.813  28.539  47.904  1.00  0.00     0.069 A 
HETATM   14  C   UNL     1       3.645  27.301  47.281  1.00  0.00     0.037 A 
HETATM   15  C   UNL     1       3.916  26.120  47.979  1.00  0.00     0.004 A 
HETATM   16  C   UNL     1       4.347  26.168  49.305  1.00  0.00     0.017 A 
BRANCH  13  17
HETATM   17  O   UNL     1       3.591  29.761  47.333  1.00  0.00    -0.356 OA
HETATM   18  C   UNL     1       2.361  29.938  46.642  1.00  0.00     0.210 C 
ENDBRANCH  13  17
ENDBRANCH   8  11
ENDBRANCH   1   7
BRANCH   3  19
HETATM   19  C   UNL     1       6.244  25.168  56.526  1.00  0.00     0.087 C 
BRANCH  19  20
HETATM   20  C   UNL     1       7.722  24.868  56.270  1.00  0.00     0.048 C 
BRANCH  20  21
HETATM   21  C   UNL     1       8.005  23.399  56.206  1.00  0.00    -0.030 A 
HETATM   22  C   UNL     1       8.017  22.580  55.032  1.00  0.00    -0.002 A 
HETATM   23  C   UNL     1       8.338  21.282  55.430  1.00  0.00     0.042 A 
HETATM   24  C   UNL     1       7.785  22.825  53.663  1.00  0.00     0.014 A 
HETATM   25  C   UNL     1       8.442  20.216  54.528  1.00  0.00     0.030 A 
HETATM   26  N   UNL     1       8.509  21.309  56.794  1.00  0.00    -0.365 N 
HETATM   27  C   UNL     1       8.208  20.487  53.176  1.00  0.00     0.002 A 
HETATM   28  C   UNL     1       7.884  21.771  52.746  1.00  0.00     0.001 A 
HETATM   29  H   UNL     1       8.749  20.504  57.355  1.00  0.00     0.165 HD
HETATM   30  C   UNL     1       8.311  22.575  57.272  1.00  0.00     0.096 A 
ENDBRANCH  20  21
ENDBRANCH  19  20
ENDBRANCH   3  19
TORSDOF 6
ENDMDL
MODEL 8
REMARK VINA RESULT:      -9.1      2.701      9.822
REMARK  6 active torsions:
REMARK  status: ('A' for Active; 'I' for Inactive)
REMARK    1  A    between atoms: O_2  and  C_3 
REMARK    2  A    between atoms: C_5  and  C_6 
REMARK       I    between atoms: C_6  and  N_7 
REMARK    3  A    between atoms: N_7  and  C_8 
REMARK    4  A    between atoms: C_10  and  C_11 
REMARK    5  A    between atoms: C_11  and  C_12 
REMARK    6  A    between atoms: C_12  and  C_13 
ROOT
HETATM    1  C   UNL     1       7.859  27.906  56.601  1.00  0.00     0.725 A 
HETATM    2  N   UNL     1       8.309  28.134  57.811  1.00  0.00    -0.046 NA
HETATM    3  C   UNL     1       7.874  29.411  58.074  1.00  0.00     0.166 A 
HETATM    4  N   UNL     1       7.185  29.987  57.078  1.00  0.00    -0.144 NA
HETATM    5  N   UNL     1       7.187  29.010  56.153  1.00  0.00    -0.106 N 
HETATM    6  H   UNL     1       6.725  29.129  55.256  1.00  0.00     0.208 HD
ENDROOT
BRANCH   1   7
HETATM    7  N   UNL     1       8.032  26.742  55.900  1.00  0.00    -0.152 N 
HETATM    8  C   UNL     1       6.967  25.936  55.560  1.00  0.00     0.270 C 
HETATM    9  O   UNL     1       5.800  26.174  55.864  1.00  0.00    -0.267 OA
HETATM   10  H   UNL     1       8.991  26.491  55.710  1.00  0.00     0.187 HD
BRANCH   8  11
HETATM   11  C   UNL     1       7.301  24.698  54.801  1.00  0.00     0.035 A 
HETATM   12  C   UNL     1       7.342  23.484  55.498  1.00  0.00     0.053 A 
HETATM   13  C   UNL     1       7.652  22.292  54.839  1.00  0.00     0.069 A 
HETATM   14  C   UNL     1       7.918  22.317  53.469  1.00  0.00     0.037 A 
HETATM   15  C   UNL     1       7.862  23.522  52.764  1.00  0.00     0.004 A 
HETATM   16  C   UNL     1       7.550  24.711  53.424  1.00  0.00     0.017 A 
BRANCH  13  17
HETATM   17  O   UNL     1       7.666  21.183  55.639  1.00  0.00    -0.356 OA
HETATM   18  C   UNL     1       8.581  20.150  55.298  1.00  0.00     0.210 C 
ENDBRANCH  13  17
ENDBRANCH   8  11
ENDBRANCH   1   7
BRANCH   3  19
HETATM   19  C   UNL     1       8.146  30.113  59.357  1.00  0.00     0.087 C 
BRANCH  19  20
HETATM   20  C   UNL     1       7.950  31.627  59.261  1.00  0.00     0.048 C 
BRANCH  20  21
HETATM   21  C   UNL     1       6.904  32.130  60.206  1.00  0.00    -0.030 A 
HETATM   22  C   UNL     1       7.080  32.434  61.594  1.00  0.00    -0.002 A 
HETATM   23  C   UNL     1       5.852  32.881  62.084  1.00  0.00     0.042 A 
HETATM   24  C   UNL     1       8.174  32.373  62.481  1.00  0.00     0.014 A 
HETATM   25  C   UNL     1       5.663  33.273  63.415  1.00  0.00     0.030 A 
HETATM   26  N   UNL     1       4.962  32.845  61.035  1.00  0.00    -0.365 N 
HETATM   27  C   UNL     1       6.765  33.203  64.272  1.00  0.00     0.002 A 
HETATM   28  C   UNL     1       8.003  32.760  63.816  1.00  0.00     0.001 A 
HETATM   29  H   UNL     1       3.991  33.116  61.102  1.00  0.00     0.165 HD
HETATM   30  C   UNL     1       5.582  32.394  59.902  1.00  0.00     0.096 A 
ENDBRANCH  20  21
ENDBRANCH  19  20
ENDBRANCH   3  19
TORSDOF 6
ENDMDL
MODEL 9
REMARK VINA RESULT:      -9.1      5.893      8.820
REMARK  6 active torsions:
REMARK  status: ('A' for Active; 'I' for Inactive)
REMARK    1  A    between atoms: O_2  and  C_3 
REMARK    2  A    between atoms: C_5  and  C_6 
REMARK       I    between atoms: C_6  and  N_7 
REMARK    3  A    between atoms: N_7  and  C_8 
REMARK    4  A    between atoms: C_10  and  C_11 
REMARK    5  A    between atoms: C_11  and  C_12 
REMARK    6  A    between atoms: C_12  and  C_13 
ROOT
HETATM    1  C   UNL     1       4.970  26.711  51.148  1.00  0.00     0.725 A 
HETATM    2  N   UNL     1       4.743  26.568  52.431  1.00  0.00    -0.046 NA
HETATM    3  C   UNL     1       5.804  25.803  52.856  1.00  0.00     0.166 A 
HETATM    4  N   UNL     1       6.669  25.458  51.892  1.00  0.00    -0.144 NA
HETATM    5  N   UNL     1       6.119  26.048  50.815  1.00  0.00    -0.106 N 
HETATM    6  H   UNL     1       6.550  25.984  49.898  1.00  0.00     0.208 HD
ENDROOT
BRANCH   1   7
HETATM    7  N   UNL     1       4.180  27.418  50.281  1.00  0.00    -0.152 N 
HETATM    8  C   UNL     1       3.650  26.839  49.149  1.00  0.00     0.270 C 
HETATM    9  O   UNL     1       3.849  25.672  48.815  1.00  0.00    -0.267 OA
HETATM   10  H   UNL     1       4.071  28.398  50.498  1.00  0.00     0.187 HD
BRANCH   8  11
HETATM   11  C   UNL     1       2.813  27.725  48.292  1.00  0.00     0.035 A 
HETATM   12  C   UNL     1       1.783  27.142  47.543  1.00  0.00     0.053 A 
HETATM   13  C   UNL     1       0.967  27.924  46.720  1.00  0.00     0.069 A 
HETATM   14  C   UNL     1       1.183  29.301  46.652  1.00  0.00     0.037 A 
HETATM   15  C   UNL     1       2.198  29.892  47.411  1.00  0.00     0.004 A 
HETATM   16  C   UNL     1       3.010  29.110  48.233  1.00  0.00     0.017 A 
BRANCH  13  17
HETATM   17  O   UNL     1       0.009  27.227  46.038  1.00  0.00    -0.356 OA
HETATM   18  C   UNL     1      -0.601  27.879  44.932  1.00  0.00     0.210 C 
ENDBRANCH  13  17
ENDBRANCH   8  11
ENDBRANCH   1   7
BRANCH   3  19
HETATM   19  C   UNL     1       5.984  25.379  54.270  1.00  0.00     0.087 C 
BRANCH  19  20
HETATM   20  C   UNL     1       7.451  25.347  54.700  1.00  0.00     0.048 C 
BRANCH  20  21
HETATM   21  C   UNL     1       7.829  24.054  55.353  1.00  0.00    -0.030 A 
HETATM   22  C   UNL     1       8.029  22.794  54.703  1.00  0.00    -0.002 A 
HETATM   23  C   UNL     1       8.379  21.867  55.687  1.00  0.00     0.042 A 
HETATM   24  C   UNL     1       7.948  22.356  53.366  1.00  0.00     0.014 A 
HETATM   25  C   UNL     1       8.653  20.524  55.399  1.00  0.00     0.030 A 
HETATM   26  N   UNL     1       8.385  22.536  56.888  1.00  0.00    -0.365 N 
HETATM   27  C   UNL     1       8.566  20.117  54.064  1.00  0.00     0.002 A 
HETATM   28  C   UNL     1       8.218  21.016  53.060  1.00  0.00     0.001 A 
HETATM   29  H   UNL     1       8.605  22.110  57.777  1.00  0.00     0.165 HD
HETATM   30  C   UNL     1       8.056  23.851  56.701  1.00  0.00     0.096 A 
ENDBRANCH  20  21
ENDBRANCH  19  20
ENDBRANCH   3  19
TORSDOF 6
ENDMDL
MODEL 10
REMARK VINA RESULT:      -9.0      3.435     10.314
REMARK  6 active torsions:
REMARK  status: ('A' for Active; 'I' for Inactive)
REMARK    1  A    between atoms: O_2  and  C_3 
REMARK    2  A    between atoms: C_5  and  C_6 
REMARK       I    between atoms: C_6  and  N_7 
REMARK    3  A    between atoms: N_7  and  C_8 
REMARK    4  A    between atoms: C_10  and  C_11 
REMARK    5  A    between atoms: C_11  and  C_12 
REMARK    6  A    between atoms: C_12  and  C_13 
ROOT
HETATM    1  C   UNL     1       9.267  29.941  58.153  1.00  0.00     0.725 A 
HETATM    2  N   UNL     1       8.941  30.295  59.372  1.00  0.00    -0.046 NA
HETATM    3  C   UNL     1       9.507  31.541  59.501  1.00  0.00     0.166 A 
HETATM    4  N   UNL     1      10.178  31.968  58.422  1.00  0.00    -0.144 NA
HETATM    5  N   UNL     1      10.010  30.934  57.577  1.00  0.00    -0.106 N 
HETATM    6  H   UNL     1      10.400  30.949  56.639  1.00  0.00     0.208 HD
ENDROOT
BRANCH   1   7
HETATM    7  N   UNL     1       8.915  28.762  57.551  1.00  0.00    -0.152 N 
HETATM    8  C   UNL     1       7.900  28.699  56.621  1.00  0.00     0.270 C 
HETATM    9  O   UNL     1       7.226  29.665  56.272  1.00  0.00    -0.267 OA
HETATM   10  H   UNL     1       9.405  27.944  57.884  1.00  0.00     0.187 HD
BRANCH   8  11
HETATM   11  C   UNL     1       7.620  27.351  56.051  1.00  0.00     0.035 A 
HETATM   12  C   UNL     1       7.507  27.231  54.659  1.00  0.00     0.053 A 
HETATM   13  C   UNL     1       7.243  25.993  54.068  1.00  0.00     0.069 A 
HETATM   14  C   UNL     1       7.096  24.865  54.878  1.00  0.00     0.037 A 
HETATM   15  C   UNL     1       7.224  24.975  56.266  1.00  0.00     0.004 A 
HETATM   16  C   UNL     1       7.490  26.212  56.854  1.00  0.00     0.017 A 
BRANCH  13  17
HETATM   17  O   UNL     1       7.149  26.019  52.705  1.00  0.00    -0.356 OA
HETATM   18  C   UNL     1       7.778  24.962  51.992  1.00  0.00     0.210 C 
ENDBRANCH  13  17
ENDBRANCH   8  11
ENDBRANCH   1   7
BRANCH   3  19
HETATM   19  C   UNL     1       9.397  32.358  60.739  1.00  0.00     0.087 C 
BRANCH  19  20
HETATM   20  C   UNL     1       8.791  31.584  61.911  1.00  0.00     0.048 C 
BRANCH  20  21
HETATM   21  C   UNL     1       7.407  32.047  62.248  1.00  0.00    -0.030 A 
HETATM   22  C   UNL     1       6.997  32.715  63.446  1.00  0.00    -0.002 A 
HETATM   23  C   UNL     1       5.629  32.972  63.334  1.00  0.00     0.042 A 
HETATM   24  C   UNL     1       7.664  33.128  64.617  1.00  0.00     0.014 A 
HETATM   25  C   UNL     1       4.896  33.623  64.333  1.00  0.00     0.030 A 
HETATM   26  N   UNL     1       5.223  32.475  62.117  1.00  0.00    -0.365 N 
HETATM   27  C   UNL     1       5.583  34.023  65.484  1.00  0.00     0.002 A 
HETATM   28  C   UNL     1       6.946  33.780  65.627  1.00  0.00     0.001 A 
HETATM   29  H   UNL     1       4.276  32.522  61.769  1.00  0.00     0.165 HD
HETATM   30  C   UNL     1       6.283  31.916  61.456  1.00  0.00     0.096 A 
ENDBRANCH  20  21
ENDBRANCH  19  20
ENDBRANCH   3  19
TORSDOF 6
ENDMDL
