MODEL 1
REMARK VINA RESULT:     -10.1      0.000      0.000
REMARK  5 active torsions:
REMARK  status: ('A' for Active; 'I' for Inactive)
REMARK    1  A    between atoms: O_2  and  C_3 
REMARK    2  A    between atoms: C_6  and  C_7 
REMARK    3  A    between atoms: C_11  and  N_12 
REMARK       I    between atoms: N_15  and  C_16 
REMARK    4  A    between atoms: C_16  and  C_17 
REMARK    5  A    between atoms: C_17  and  C_18 
ROOT
HETATM    1  N   UNL     1       6.820  28.403  55.867  1.00  0.00    -0.363 N 
HETATM    2  C   UNL     1       7.380  28.634  54.520  1.00  0.00     0.144 C 
HETATM    3  C   UNL     1       8.023  27.352  53.973  1.00  0.00     0.145 C 
HETATM    4  N   UNL     1       7.135  26.185  54.041  1.00  0.00    -0.349 N 
HETATM    5  C   UNL     1       7.408  25.143  53.159  1.00  0.00     0.224 C 
HETATM    6  O   UNL     1       8.259  25.251  52.270  1.00  0.00    -0.273 OA
HETATM    7  C   UNL     1       6.477  25.997  55.342  1.00  0.00     0.145 C 
HETATM    8  C   UNL     1       5.854  27.291  55.910  1.00  0.00     0.144 C 
ENDROOT
BRANCH   1   9
HETATM    9  C   UNL     1       6.826  29.419  56.780  1.00  0.00     0.122 A 
HETATM   10  N   UNL     1       6.055  30.550  56.683  1.00  0.00    -0.262 N 
HETATM   11  N   UNL     1       6.159  31.389  57.726  1.00  0.00    -0.173 NA
HETATM   12  H   UNL     1       5.427  30.808  55.936  1.00  0.00     0.191 HD
HETATM   13  C   UNL     1       7.039  30.793  58.548  1.00  0.00     0.090 A 
HETATM   14  C   UNL     1       7.496  29.574  57.975  1.00  0.00     0.084 A 
BRANCH  13  15
HETATM   15  C   UNL     1       7.387  31.355  59.857  1.00  0.00    -0.005 A 
HETATM   16  C   UNL     1       6.616  32.385  60.417  1.00  0.00     0.016 A 
HETATM   17  C   UNL     1       6.896  32.884  61.696  1.00  0.00     0.037 A 
HETATM   18  C   UNL     1       7.955  32.360  62.436  1.00  0.00     0.068 A 
HETATM   19  C   UNL     1       8.748  31.360  61.872  1.00  0.00     0.037 A 
HETATM   20  C   UNL     1       8.467  30.858  60.597  1.00  0.00     0.016 A 
BRANCH  18  21
HETATM   21  O   UNL     1       8.320  32.741  63.697  1.00  0.00    -0.356 OA
HETATM   22  C   UNL     1       7.310  33.350  64.493  1.00  0.00     0.210 C 
ENDBRANCH  18  21
ENDBRANCH  13  15
ENDBRANCH   1   9
BRANCH   5  23
HETATM   23  C   UNL     1       6.615  23.851  53.283  1.00  0.00     0.141 C 
BRANCH  23  24
HETATM   24  C   UNL     1       7.412  22.654  53.751  1.00  0.00    -0.048 A 
HETATM   25  C   UNL     1       7.580  22.427  55.126  1.00  0.00     0.031 A 
HETATM   26  C   UNL     1       8.258  21.294  55.579  1.00  0.00     0.034 A 
HETATM   27 CL   UNL     1       8.449  21.035  57.270  1.00  0.00    -0.084 Cl
HETATM   28  C   UNL     1       8.771  20.368  54.676  1.00  0.00     0.024 A 
HETATM   29  C   UNL     1       8.599  20.574  53.307  1.00  0.00     0.002 A 
HETATM   30  C   UNL     1       7.916  21.704  52.849  1.00  0.00     0.007 A 
ENDBRANCH  23  24
ENDBRANCH   5  23
TORSDOF 5
ENDMDL
MODEL 2
REMARK VINA RESULT:     -10.0      3.515     11.114
REMARK  5 active torsions:
REMARK  status: ('A' for Active; 'I' for Inactive)
REMARK    1  A    between atoms: O_2  and  C_3 
REMARK    2  A    between atoms: C_6  and  C_7 
REMARK    3  A    between atoms: C_11  and  N_12 
REMARK       I    between atoms: N_15  and  C_16 
REMARK    4  A    between atoms: C_16  and  C_17 
REMARK    5  A    between atoms: C_17  and  C_18 
ROOT
HETATM    1  N   UNL     1       7.513  29.156  57.091  1.00  0.00    -0.363 N 
HETATM    2  C   UNL     1       8.752  29.286  57.885  1.00  0.00     0.144 C 
HETATM    3  C   UNL     1       8.944  30.734  58.357  1.00  0.00     0.145 C 
HETATM    4  N   UNL     1       7.761  31.285  59.030  1.00  0.00    -0.349 N 
HETATM    5  C   UNL     1       7.979  32.349  59.901  1.00  0.00     0.224 C 
HETATM    6  O   UNL     1       9.119  32.718  60.202  1.00  0.00    -0.273 OA
HETATM    7  C   UNL     1       6.497  31.069  58.312  1.00  0.00     0.145 C 
HETATM    8  C   UNL     1       6.313  29.620  57.810  1.00  0.00     0.144 C 
ENDROOT
BRANCH   1   9
HETATM    9  C   UNL     1       7.465  28.255  56.065  1.00  0.00     0.122 A 
HETATM   10  N   UNL     1       7.535  28.591  54.737  1.00  0.00    -0.262 N 
HETATM   11  N   UNL     1       7.545  27.545  53.895  1.00  0.00    -0.173 NA
HETATM   12  H   UNL     1       7.587  29.516  54.335  1.00  0.00     0.191 HD
HETATM   13  C   UNL     1       7.476  26.470  54.697  1.00  0.00     0.090 A 
HETATM   14  C   UNL     1       7.396  26.878  56.057  1.00  0.00     0.084 A 
BRANCH  13  15
HETATM   15  C   UNL     1       7.532  25.102  54.173  1.00  0.00    -0.005 A 
HETATM   16  C   UNL     1       7.767  24.871  52.809  1.00  0.00     0.016 A 
HETATM   17  C   UNL     1       7.892  23.569  52.307  1.00  0.00     0.037 A 
HETATM   18  C   UNL     1       7.782  22.474  53.163  1.00  0.00     0.068 A 
HETATM   19  C   UNL     1       7.513  22.694  54.515  1.00  0.00     0.037 A 
HETATM   20  C   UNL     1       7.393  23.993  55.019  1.00  0.00     0.016 A 
BRANCH  18  21
HETATM   21  O   UNL     1       7.903  21.160  52.807  1.00  0.00    -0.356 OA
HETATM   22  C   UNL     1       8.637  20.328  53.697  1.00  0.00     0.210 C 
ENDBRANCH  18  21
ENDBRANCH  13  15
ENDBRANCH   1   9
BRANCH   5  23
HETATM   23  C   UNL     1       6.779  33.052  60.514  1.00  0.00     0.141 C 
BRANCH  23  24
HETATM   24  C   UNL     1       6.908  33.372  61.987  1.00  0.00    -0.048 A 
HETATM   25  C   UNL     1       6.126  34.396  62.546  1.00  0.00     0.031 A 
HETATM   26  C   UNL     1       6.185  34.664  63.914  1.00  0.00     0.034 A 
HETATM   27 CL   UNL     1       5.214  35.922  64.578  1.00  0.00    -0.084 Cl
HETATM   28  C   UNL     1       7.014  33.918  64.747  1.00  0.00     0.024 A 
HETATM   29  C   UNL     1       7.784  32.889  64.207  1.00  0.00     0.002 A 
HETATM   30  C   UNL     1       7.725  32.613  62.839  1.00  0.00     0.007 A 
ENDBRANCH  23  24
ENDBRANCH   5  23
TORSDOF 5
ENDMDL
MODEL 3
REMARK VINA RESULT:     -10.0      1.478      2.019
REMARK  5 active torsions:
REMARK  status: ('A' for Active; 'I' for Inactive)
REMARK    1  A    between atoms: O_2  and  C_3 
REMARK    2  A    between atoms: C_6  and  C_7 
REMARK    3  A    between atoms: C_11  and  N_12 
REMARK       I    between atoms: N_15  and  C_16 
REMARK    4  A    between atoms: C_16  and  C_17 
REMARK    5  A    between atoms: C_17  and  C_18 
ROOT
HETATM    1  N   UNL     1       6.646  29.218  56.501  1.00  0.00    -0.363 N 
HETATM    2  C   UNL     1       5.342  28.757  55.981  1.00  0.00     0.144 C 
HETATM    3  C   UNL     1       5.472  28.298  54.522  1.00  0.00     0.145 C 
HETATM    4  N   UNL     1       6.556  27.330  54.314  1.00  0.00    -0.349 N 
HETATM    5  C   UNL     1       6.449  26.506  53.197  1.00  0.00     0.224 C 
HETATM    6  O   UNL     1       5.431  26.489  52.499  1.00  0.00    -0.273 OA
HETATM    7  C   UNL     1       7.839  27.715  54.920  1.00  0.00     0.145 C 
HETATM    8  C   UNL     1       7.708  28.205  56.379  1.00  0.00     0.144 C 
ENDROOT
BRANCH   1   9
HETATM    9  C   UNL     1       6.682  30.229  57.418  1.00  0.00     0.122 A 
HETATM   10  N   UNL     1       6.075  31.447  57.251  1.00  0.00    -0.262 N 
HETATM   11  N   UNL     1       6.171  32.271  58.306  1.00  0.00    -0.173 NA
HETATM   12  H   UNL     1       5.568  31.780  56.443  1.00  0.00     0.191 HD
HETATM   13  C   UNL     1       6.875  31.572  59.213  1.00  0.00     0.090 A 
HETATM   14  C   UNL     1       7.234  30.303  58.680  1.00  0.00     0.084 A 
BRANCH  13  15
HETATM   15  C   UNL     1       7.148  32.091  60.556  1.00  0.00    -0.005 A 
HETATM   16  C   UNL     1       6.254  32.981  61.171  1.00  0.00     0.016 A 
HETATM   17  C   UNL     1       6.467  33.431  62.481  1.00  0.00     0.037 A 
HETATM   18  C   UNL     1       7.582  32.998  63.197  1.00  0.00     0.068 A 
HETATM   19  C   UNL     1       8.495  32.140  62.580  1.00  0.00     0.037 A 
HETATM   20  C   UNL     1       8.281  31.687  61.275  1.00  0.00     0.016 A 
BRANCH  18  21
HETATM   21  O   UNL     1       7.895  33.342  64.483  1.00  0.00    -0.356 OA
HETATM   22  C   UNL     1       6.806  33.691  65.328  1.00  0.00     0.210 C 
ENDBRANCH  18  21
ENDBRANCH  13  15
ENDBRANCH   1   9
BRANCH   5  23
HETATM   23  C   UNL     1       7.609  25.586  52.851  1.00  0.00     0.141 C 
BRANCH  23  24
HETATM   24  C   UNL     1       7.603  24.252  53.564  1.00  0.00    -0.048 A 
HETATM   25  C   UNL     1       7.920  23.084  52.852  1.00  0.00     0.031 A 
HETATM   26  C   UNL     1       7.981  21.852  53.505  1.00  0.00     0.034 A 
HETATM   27 CL   UNL     1       8.377  20.434  52.613  1.00  0.00    -0.084 Cl
HETATM   28  C   UNL     1       7.735  21.762  54.872  1.00  0.00     0.024 A 
HETATM   29  C   UNL     1       7.432  22.917  55.593  1.00  0.00     0.002 A 
HETATM   30  C   UNL     1       7.375  24.153  54.945  1.00  0.00     0.007 A 
ENDBRANCH  23  24
ENDBRANCH   5  23
TORSDOF 5
ENDMDL
MODEL 4
REMARK VINA RESULT:      -9.9      1.736      2.811
REMARK  5 active torsions:
REMARK  status: ('A' for Active; 'I' for Inactive)
REMARK    1  A    between atoms: O_2  and  C_3 
REMARK    2  A    between atoms: C_6  and  C_7 
REMARK    3  A    between atoms: C_11  and  N_12 
REMARK       I    between atoms: N_15  and  C_16 
REMARK    4  A    between atoms: C_16  and  C_17 
REMARK    5  A    between atoms: C_17  and  C_18 
ROOT
HETATM    1  N   UNL     1       7.659  29.817  57.656  1.00  0.00    -0.363 N 
HETATM    2  C   UNL     1       6.323  29.195  57.560  1.00  0.00     0.144 C 
HETATM    3  C   UNL     1       5.951  28.934  56.094  1.00  0.00     0.145 C 
HETATM    4  N   UNL     1       6.988  28.204  55.354  1.00  0.00    -0.349 N 
HETATM    5  C   UNL     1       6.571  27.505  54.224  1.00  0.00     0.224 C 
HETATM    6  O   UNL     1       5.375  27.387  53.938  1.00  0.00    -0.273 OA
HETATM    7  C   UNL     1       8.346  28.739  55.524  1.00  0.00     0.145 C 
HETATM    8  C   UNL     1       8.714  29.029  56.996  1.00  0.00     0.144 C 
ENDROOT
BRANCH   1   9
HETATM    9  C   UNL     1       7.913  30.708  58.660  1.00  0.00     0.122 A 
HETATM   10  N   UNL     1       8.875  31.685  58.602  1.00  0.00    -0.262 N 
HETATM   11  N   UNL     1       8.908  32.501  59.667  1.00  0.00    -0.173 NA
HETATM   12  H   UNL     1       9.538  31.857  57.860  1.00  0.00     0.191 HD
HETATM   13  C   UNL     1       7.929  32.047  60.467  1.00  0.00     0.090 A 
HETATM   14  C   UNL     1       7.306  30.910  59.881  1.00  0.00     0.084 A 
BRANCH  13  15
HETATM   15  C   UNL     1       7.579  32.713  61.726  1.00  0.00    -0.005 A 
HETATM   16  C   UNL     1       6.595  33.713  61.753  1.00  0.00     0.016 A 
HETATM   17  C   UNL     1       6.202  34.309  62.958  1.00  0.00     0.037 A 
HETATM   18  C   UNL     1       6.789  33.914  64.159  1.00  0.00     0.068 A 
HETATM   19  C   UNL     1       7.794  32.944  64.137  1.00  0.00     0.037 A 
HETATM   20  C   UNL     1       8.184  32.345  62.935  1.00  0.00     0.016 A 
BRANCH  18  21
HETATM   21  O   UNL     1       6.484  34.397  65.400  1.00  0.00    -0.356 OA
HETATM   22  C   UNL     1       5.221  34.019  65.935  1.00  0.00     0.210 C 
ENDBRANCH  18  21
ENDBRANCH  13  15
ENDBRANCH   1   9
BRANCH   5  23
HETATM   23  C   UNL     1       7.620  26.851  53.339  1.00  0.00     0.141 C 
BRANCH  23  24
HETATM   24  C   UNL     1       7.797  25.364  53.548  1.00  0.00    -0.048 A 
HETATM   25  C   UNL     1       7.972  24.863  54.849  1.00  0.00     0.031 A 
HETATM   26  C   UNL     1       8.073  23.488  55.069  1.00  0.00     0.034 A 
HETATM   27 CL   UNL     1       8.283  22.896  56.672  1.00  0.00    -0.084 Cl
HETATM   28  C   UNL     1       7.996  22.593  54.006  1.00  0.00     0.024 A 
HETATM   29  C   UNL     1       7.808  23.077  52.712  1.00  0.00     0.002 A 
HETATM   30  C   UNL     1       7.701  24.451  52.487  1.00  0.00     0.007 A 
ENDBRANCH  23  24
ENDBRANCH   5  23
TORSDOF 5
ENDMDL
MODEL 5
REMARK VINA RESULT:      -9.6      2.334      4.080
REMARK  5 active torsions:
REMARK  status: ('A' for Active; 'I' for Inactive)
REMARK    1  A    between atoms: O_2  and  C_3 
REMARK    2  A    between atoms: C_6  and  C_7 
REMARK    3  A    between atoms: C_11  and  N_12 
REMARK       I    between atoms: N_15  and  C_16 
REMARK    4  A    between atoms: C_16  and  C_17 
REMARK    5  A    between atoms: C_17  and  C_18 
ROOT
HETATM    1  N   UNL     1       8.018  30.352  58.839  1.00  0.00    -0.363 N 
HETATM    2  C   UNL     1       9.153  30.814  58.013  1.00  0.00     0.144 C 
HETATM    3  C   UNL     1       9.512  29.765  56.952  1.00  0.00     0.145 C 
HETATM    4  N   UNL     1       8.357  29.324  56.159  1.00  0.00    -0.349 N 
HETATM    5  C   UNL     1       8.632  28.788  54.904  1.00  0.00     0.224 C 
HETATM    6  O   UNL     1       9.769  28.811  54.423  1.00  0.00    -0.273 OA
HETATM    7  C   UNL     1       7.175  28.965  56.955  1.00  0.00     0.145 C 
HETATM    8  C   UNL     1       6.827  30.005  58.044  1.00  0.00     0.144 C 
ENDROOT
BRANCH   1   9
HETATM    9  C   UNL     1       7.956  30.713  60.155  1.00  0.00     0.122 A 
HETATM   10  N   UNL     1       8.900  30.382  61.093  1.00  0.00    -0.262 N 
HETATM   11  N   UNL     1       8.685  30.901  62.312  1.00  0.00    -0.173 NA
HETATM   12  H   UNL     1       9.724  29.811  60.967  1.00  0.00     0.191 HD
HETATM   13  C   UNL     1       7.548  31.604  62.179  1.00  0.00     0.090 A 
HETATM   14  C   UNL     1       7.051  31.485  60.852  1.00  0.00     0.084 A 
BRANCH  13  15
HETATM   15  C   UNL     1       6.989  32.398  63.279  1.00  0.00    -0.005 A 
HETATM   16  C   UNL     1       7.835  33.099  64.152  1.00  0.00     0.016 A 
HETATM   17  C   UNL     1       7.314  33.916  65.164  1.00  0.00     0.037 A 
HETATM   18  C   UNL     1       5.934  34.043  65.320  1.00  0.00     0.068 A 
HETATM   19  C   UNL     1       5.086  33.321  64.478  1.00  0.00     0.037 A 
HETATM   20  C   UNL     1       5.605  32.509  63.465  1.00  0.00     0.016 A 
BRANCH  18  21
HETATM   21  O   UNL     1       5.298  34.819  66.248  1.00  0.00    -0.356 OA
HETATM   22  C   UNL     1       5.077  34.228  67.524  1.00  0.00     0.210 C 
ENDBRANCH  18  21
ENDBRANCH  13  15
ENDBRANCH   1   9
BRANCH   5  23
HETATM   23  C   UNL     1       7.491  28.183  54.100  1.00  0.00     0.141 C 
BRANCH  23  24
HETATM   24  C   UNL     1       7.613  26.699  53.835  1.00  0.00    -0.048 A 
HETATM   25  C   UNL     1       7.513  25.793  54.903  1.00  0.00     0.031 A 
HETATM   26  C   UNL     1       7.559  24.418  54.670  1.00  0.00     0.034 A 
HETATM   27 CL   UNL     1       7.431  23.325  55.995  1.00  0.00    -0.084 Cl
HETATM   28  C   UNL     1       7.697  23.922  53.377  1.00  0.00     0.024 A 
HETATM   29  C   UNL     1       7.783  24.811  52.306  1.00  0.00     0.002 A 
HETATM   30  C   UNL     1       7.732  26.189  52.533  1.00  0.00     0.007 A 
ENDBRANCH  23  24
ENDBRANCH   5  23
TORSDOF 5
ENDMDL
MODEL 6
REMARK VINA RESULT:      -9.3      2.768     10.346
REMARK  5 active torsions:
REMARK  status: ('A' for Active; 'I' for Inactive)
REMARK    1  A    between atoms: O_2  and  C_3 
REMARK    2  A    between atoms: C_6  and  C_7 
REMARK    3  A    between atoms: C_11  and  N_12 
REMARK       I    between atoms: N_15  and  C_16 
REMARK    4  A    between atoms: C_16  and  C_17 
REMARK    5  A    between atoms: C_17  and  C_18 
ROOT
HETATM    1  N   UNL     1       5.357  28.856  56.326  1.00  0.00    -0.363 N 
HETATM    2  C   UNL     1       4.025  29.468  56.514  1.00  0.00     0.144 C 
HETATM    3  C   UNL     1       3.940  30.174  57.874  1.00  0.00     0.145 C 
HETATM    4  N   UNL     1       5.048  31.108  58.111  1.00  0.00    -0.349 N 
HETATM    5  C   UNL     1       4.818  32.124  59.034  1.00  0.00     0.224 C 
HETATM    6  O   UNL     1       3.700  32.318  59.523  1.00  0.00    -0.273 OA
HETATM    7  C   UNL     1       6.380  30.557  57.823  1.00  0.00     0.145 C 
HETATM    8  C   UNL     1       6.461  29.820  56.468  1.00  0.00     0.144 C 
ENDROOT
BRANCH   1   9
HETATM    9  C   UNL     1       5.467  27.696  55.613  1.00  0.00     0.122 A 
HETATM   10  N   UNL     1       4.764  27.422  54.468  1.00  0.00    -0.262 N 
HETATM   11  N   UNL     1       5.078  26.255  53.884  1.00  0.00    -0.173 NA
HETATM   12  H   UNL     1       4.060  27.993  54.022  1.00  0.00     0.191 HD
HETATM   13  C   UNL     1       6.027  25.729  54.676  1.00  0.00     0.090 A 
HETATM   14  C   UNL     1       6.273  26.591  55.781  1.00  0.00     0.084 A 
BRANCH  13  15
HETATM   15  C   UNL     1       6.701  24.468  54.354  1.00  0.00    -0.005 A 
HETATM   16  C   UNL     1       7.103  24.192  53.038  1.00  0.00     0.016 A 
HETATM   17  C   UNL     1       7.810  23.022  52.728  1.00  0.00     0.037 A 
HETATM   18  C   UNL     1       8.124  22.107  53.731  1.00  0.00     0.068 A 
HETATM   19  C   UNL     1       7.697  22.357  55.037  1.00  0.00     0.037 A 
HETATM   20  C   UNL     1       6.996  23.527  55.348  1.00  0.00     0.016 A 
BRANCH  18  21
HETATM   21  O   UNL     1       8.823  20.944  53.567  1.00  0.00    -0.356 OA
HETATM   22  C   UNL     1       8.788  20.026  54.653  1.00  0.00     0.210 C 
ENDBRANCH  18  21
ENDBRANCH  13  15
ENDBRANCH   1   9
BRANCH   5  23
HETATM   23  C   UNL     1       5.973  33.032  59.428  1.00  0.00     0.141 C 
BRANCH  23  24
HETATM   24  C   UNL     1       6.604  32.721  60.767  1.00  0.00    -0.048 A 
HETATM   25  C   UNL     1       7.554  31.691  60.864  1.00  0.00     0.031 A 
HETATM   26  C   UNL     1       8.194  31.431  62.077  1.00  0.00     0.034 A 
HETATM   27 CL   UNL     1       9.359  30.166  62.171  1.00  0.00    -0.084 Cl
HETATM   28  C   UNL     1       7.906  32.191  63.207  1.00  0.00     0.024 A 
HETATM   29  C   UNL     1       6.974  33.225  63.120  1.00  0.00     0.002 A 
HETATM   30  C   UNL     1       6.335  33.493  61.907  1.00  0.00     0.007 A 
ENDBRANCH  23  24
ENDBRANCH   5  23
TORSDOF 5
ENDMDL
MODEL 7
REMARK VINA RESULT:      -8.9      5.328      9.347
REMARK  5 active torsions:
REMARK  status: ('A' for Active; 'I' for Inactive)
REMARK    1  A    between atoms: O_2  and  C_3 
REMARK    2  A    between atoms: C_6  and  C_7 
REMARK    3  A    between atoms: C_11  and  N_12 
REMARK       I    between atoms: N_15  and  C_16 
REMARK    4  A    between atoms: C_16  and  C_17 
REMARK    5  A    between atoms: C_17  and  C_18 
ROOT
HETATM    1  N   UNL     1       6.737  33.084  63.878  1.00  0.00    -0.363 N 
HETATM    2  C   UNL     1       5.717  32.775  62.855  1.00  0.00     0.144 C 
HETATM    3  C   UNL     1       6.250  33.082  61.449  1.00  0.00     0.145 C 
HETATM    4  N   UNL     1       7.554  32.465  61.176  1.00  0.00    -0.349 N 
HETATM    5  C   UNL     1       7.879  32.263  59.837  1.00  0.00     0.224 C 
HETATM    6  O   UNL     1       7.061  32.458  58.934  1.00  0.00    -0.273 OA
HETATM    7  C   UNL     1       8.555  32.665  62.234  1.00  0.00     0.145 C 
HETATM    8  C   UNL     1       8.014  32.384  63.654  1.00  0.00     0.144 C 
ENDROOT
BRANCH   1   9
HETATM    9  C   UNL     1       6.340  33.535  65.105  1.00  0.00     0.122 A 
HETATM   10  N   UNL     1       5.034  33.609  65.516  1.00  0.00    -0.262 N 
HETATM   11  N   UNL     1       4.869  34.010  66.786  1.00  0.00    -0.173 NA
HETATM   12  H   UNL     1       4.204  33.390  64.984  1.00  0.00     0.191 HD
HETATM   13  C   UNL     1       6.118  34.216  67.237  1.00  0.00     0.090 A 
HETATM   14  C   UNL     1       7.059  33.956  66.203  1.00  0.00     0.084 A 
BRANCH  13  15
HETATM   15  C   UNL     1       6.392  34.603  68.625  1.00  0.00    -0.005 A 
HETATM   16  C   UNL     1       7.527  35.365  68.940  1.00  0.00     0.016 A 
HETATM   17  C   UNL     1       7.765  35.800  70.250  1.00  0.00     0.037 A 
HETATM   18  C   UNL     1       6.869  35.478  71.269  1.00  0.00     0.068 A 
HETATM   19  C   UNL     1       5.756  34.691  70.970  1.00  0.00     0.037 A 
HETATM   20  C   UNL     1       5.515  34.260  69.661  1.00  0.00     0.016 A 
BRANCH  18  21
HETATM   21  O   UNL     1       6.972  35.855  72.579  1.00  0.00    -0.356 OA
HETATM   22  C   UNL     1       7.621  37.095  72.832  1.00  0.00     0.210 C 
ENDBRANCH  18  21
ENDBRANCH  13  15
ENDBRANCH   1   9
BRANCH   5  23
HETATM   23  C   UNL     1       9.272  31.762  59.489  1.00  0.00     0.141 C 
BRANCH  23  24
HETATM   24  C   UNL     1       9.314  30.638  58.478  1.00  0.00    -0.048 A 
HETATM   25  C   UNL     1       8.331  29.636  58.514  1.00  0.00     0.031 A 
HETATM   26  C   UNL     1       8.316  28.625  57.551  1.00  0.00     0.034 A 
HETATM   27 CL   UNL     1       7.099  27.409  57.613  1.00  0.00    -0.084 Cl
HETATM   28  C   UNL     1       9.269  28.599  56.537  1.00  0.00     0.024 A 
HETATM   29  C   UNL     1      10.241  29.597  56.481  1.00  0.00     0.002 A 
HETATM   30  C   UNL     1      10.258  30.613  57.440  1.00  0.00     0.007 A 
ENDBRANCH  23  24
ENDBRANCH   5  23
TORSDOF 5
ENDMDL
MODEL 8
REMARK VINA RESULT:      -8.9      3.465     10.882
REMARK  5 active torsions:
REMARK  status: ('A' for Active; 'I' for Inactive)
REMARK    1  A    between atoms: O_2  and  C_3 
REMARK    2  A    between atoms: C_6  and  C_7 
REMARK    3  A    between atoms: C_11  and  N_12 
REMARK       I    between atoms: N_15  and  C_16 
REMARK    4  A    between atoms: C_16  and  C_17 
REMARK    5  A    between atoms: C_17  and  C_18 
ROOT
HETATM    1  N   UNL     1       6.436  29.277  57.481  1.00  0.00    -0.363 N 
HETATM    2  C   UNL     1       5.108  29.641  56.943  1.00  0.00     0.144 C 
HETATM    3  C   UNL     1       4.307  30.444  57.977  1.00  0.00     0.145 C 
HETATM    4  N   UNL     1       5.048  31.589  58.522  1.00  0.00    -0.349 N 
HETATM    5  C   UNL     1       4.287  32.626  59.054  1.00  0.00     0.224 C 
HETATM    6  O   UNL     1       3.057  32.650  58.947  1.00  0.00    -0.273 OA
HETATM    7  C   UNL     1       6.415  31.274  58.962  1.00  0.00     0.145 C 
HETATM    8  C   UNL     1       7.215  30.441  57.936  1.00  0.00     0.144 C 
ENDROOT
BRANCH   1   9
HETATM    9  C   UNL     1       7.010  28.096  57.105  1.00  0.00     0.122 A 
HETATM   10  N   UNL     1       7.884  27.379  57.882  1.00  0.00    -0.262 N 
HETATM   11  N   UNL     1       8.274  26.209  57.353  1.00  0.00    -0.173 NA
HETATM   12  H   UNL     1       8.251  27.627  58.790  1.00  0.00     0.191 HD
HETATM   13  C   UNL     1       7.634  26.146  56.173  1.00  0.00     0.090 A 
HETATM   14  C   UNL     1       6.859  27.322  55.975  1.00  0.00     0.084 A 
BRANCH  13  15
HETATM   15  C   UNL     1       7.732  24.976  55.295  1.00  0.00    -0.005 A 
HETATM   16  C   UNL     1       8.512  23.870  55.666  1.00  0.00     0.016 A 
HETATM   17  C   UNL     1       8.559  22.719  54.870  1.00  0.00     0.037 A 
HETATM   18  C   UNL     1       7.826  22.655  53.685  1.00  0.00     0.068 A 
HETATM   19  C   UNL     1       7.075  23.764  53.291  1.00  0.00     0.037 A 
HETATM   20  C   UNL     1       7.024  24.913  54.088  1.00  0.00     0.016 A 
BRANCH  18  21
HETATM   21  O   UNL     1       7.768  21.589  52.832  1.00  0.00    -0.356 OA
HETATM   22  C   UNL     1       8.470  20.418  53.232  1.00  0.00     0.210 C 
ENDBRANCH  18  21
ENDBRANCH  13  15
ENDBRANCH   1   9
BRANCH   5  23
HETATM   23  C   UNL     1       4.999  33.768  59.762  1.00  0.00     0.141 C 
BRANCH  23  24
HETATM   24  C   UNL     1       5.044  33.658  61.270  1.00  0.00    -0.048 A 
HETATM   25  C   UNL     1       6.270  33.420  61.912  1.00  0.00     0.031 A 
HETATM   26  C   UNL     1       6.342  33.378  63.305  1.00  0.00     0.034 A 
HETATM   27 CL   UNL     1       7.857  33.090  64.071  1.00  0.00    -0.084 Cl
HETATM   28  C   UNL     1       5.203  33.577  64.080  1.00  0.00     0.024 A 
HETATM   29  C   UNL     1       3.982  33.828  63.455  1.00  0.00     0.002 A 
HETATM   30  C   UNL     1       3.905  33.876  62.060  1.00  0.00     0.007 A 
ENDBRANCH  23  24
ENDBRANCH   5  23
TORSDOF 5
ENDMDL
MODEL 9
REMARK VINA RESULT:      -8.8      2.411      3.138
REMARK  5 active torsions:
REMARK  status: ('A' for Active; 'I' for Inactive)
REMARK    1  A    between atoms: O_2  and  C_3 
REMARK    2  A    between atoms: C_6  and  C_7 
REMARK    3  A    between atoms: C_11  and  N_12 
REMARK       I    between atoms: N_15  and  C_16 
REMARK    4  A    between atoms: C_16  and  C_17 
REMARK    5  A    between atoms: C_17  and  C_18 
ROOT
HETATM    1  N   UNL     1       5.082  29.546  56.823  1.00  0.00    -0.363 N 
HETATM    2  C   UNL     1       6.020  29.982  55.767  1.00  0.00     0.144 C 
HETATM    3  C   UNL     1       6.944  28.829  55.353  1.00  0.00     0.145 C 
HETATM    4  N   UNL     1       6.219  27.598  55.014  1.00  0.00    -0.349 N 
HETATM    5  C   UNL     1       6.878  26.696  54.183  1.00  0.00     0.224 C 
HETATM    6  O   UNL     1       7.953  26.976  53.645  1.00  0.00    -0.273 OA
HETATM    7  C   UNL     1       5.200  27.203  55.997  1.00  0.00     0.145 C 
HETATM    8  C   UNL     1       4.285  28.368  56.438  1.00  0.00     0.144 C 
ENDROOT
BRANCH   1   9
HETATM    9  C   UNL     1       4.679  30.440  57.773  1.00  0.00     0.122 A 
HETATM   10  N   UNL     1       3.454  30.413  58.390  1.00  0.00    -0.262 N 
HETATM   11  N   UNL     1       3.289  31.339  59.348  1.00  0.00    -0.173 NA
HETATM   12  H   UNL     1       2.686  29.782  58.212  1.00  0.00     0.191 HD
HETATM   13  C   UNL     1       4.452  32.012  59.366  1.00  0.00     0.090 A 
HETATM   14  C   UNL     1       5.332  31.494  58.375  1.00  0.00     0.084 A 
BRANCH  13  15
HETATM   15  C   UNL     1       4.719  33.081  60.333  1.00  0.00    -0.005 A 
HETATM   16  C   UNL     1       5.820  32.999  61.199  1.00  0.00     0.016 A 
HETATM   17  C   UNL     1       6.127  34.044  62.081  1.00  0.00     0.037 A 
HETATM   18  C   UNL     1       5.334  35.190  62.110  1.00  0.00     0.068 A 
HETATM   19  C   UNL     1       4.216  35.265  61.277  1.00  0.00     0.037 A 
HETATM   20  C   UNL     1       3.912  34.224  60.394  1.00  0.00     0.016 A 
BRANCH  18  21
HETATM   21  O   UNL     1       5.534  36.285  62.904  1.00  0.00    -0.356 OA
HETATM   22  C   UNL     1       4.400  37.110  63.143  1.00  0.00     0.210 C 
ENDBRANCH  18  21
ENDBRANCH  13  15
ENDBRANCH   1   9
BRANCH   5  23
HETATM   23  C   UNL     1       6.237  25.343  53.916  1.00  0.00     0.141 C 
BRANCH  23  24
HETATM   24  C   UNL     1       7.048  24.151  54.371  1.00  0.00    -0.048 A 
HETATM   25  C   UNL     1       7.303  23.102  53.473  1.00  0.00     0.031 A 
HETATM   26  C   UNL     1       8.102  22.023  53.854  1.00  0.00     0.034 A 
HETATM   27 CL   UNL     1       8.405  20.750  52.735  1.00  0.00    -0.084 Cl
HETATM   28  C   UNL     1       8.664  21.972  55.127  1.00  0.00     0.024 A 
HETATM   29  C   UNL     1       8.430  23.014  56.023  1.00  0.00     0.002 A 
HETATM   30  C   UNL     1       7.635  24.099  55.645  1.00  0.00     0.007 A 
ENDBRANCH  23  24
ENDBRANCH   5  23
TORSDOF 5
ENDMDL
MODEL 10
REMARK VINA RESULT:      -8.8      7.709     10.981
REMARK  5 active torsions:
REMARK  status: ('A' for Active; 'I' for Inactive)
REMARK    1  A    between atoms: O_2  and  C_3 
REMARK    2  A    between atoms: C_6  and  C_7 
REMARK    3  A    between atoms: C_11  and  N_12 
REMARK       I    between atoms: N_15  and  C_16 
REMARK    4  A    between atoms: C_16  and  C_17 
REMARK    5  A    between atoms: C_17  and  C_18 
ROOT
HETATM    1  N   UNL     1       5.146  27.704  50.627  1.00  0.00    -0.363 N 
HETATM    2  C   UNL     1       5.119  27.307  49.204  1.00  0.00     0.144 C 
HETATM    3  C   UNL     1       4.139  28.185  48.415  1.00  0.00     0.145 C 
HETATM    4  N   UNL     1       4.361  29.623  48.613  1.00  0.00    -0.349 N 
HETATM    5  C   UNL     1       3.892  30.469  47.612  1.00  0.00     0.224 C 
HETATM    6  O   UNL     1       3.442  30.030  46.549  1.00  0.00    -0.273 OA
HETATM    7  C   UNL     1       4.503  30.027  50.019  1.00  0.00     0.145 C 
HETATM    8  C   UNL     1       5.467  29.128  50.825  1.00  0.00     0.144 C 
ENDROOT
BRANCH   1   9
HETATM    9  C   UNL     1       5.356  26.753  51.585  1.00  0.00     0.122 A 
HETATM   10  N   UNL     1       4.402  26.323  52.470  1.00  0.00    -0.262 N 
HETATM   11  N   UNL     1       4.796  25.327  53.280  1.00  0.00    -0.173 NA
HETATM   12  H   UNL     1       3.455  26.659  52.571  1.00  0.00     0.191 HD
HETATM   13  C   UNL     1       6.068  25.088  52.919  1.00  0.00     0.090 A 
HETATM   14  C   UNL     1       6.458  25.980  51.882  1.00  0.00     0.084 A 
BRANCH  13  15
HETATM   15  C   UNL     1       6.859  24.009  53.520  1.00  0.00    -0.005 A 
HETATM   16  C   UNL     1       7.735  23.245  52.734  1.00  0.00     0.016 A 
HETATM   17  C   UNL     1       8.547  22.258  53.307  1.00  0.00     0.037 A 
HETATM   18  C   UNL     1       8.495  22.018  54.679  1.00  0.00     0.068 A 
HETATM   19  C   UNL     1       7.601  22.750  55.463  1.00  0.00     0.037 A 
HETATM   20  C   UNL     1       6.793  23.739  54.893  1.00  0.00     0.016 A 
BRANCH  18  21
HETATM   21  O   UNL     1       9.245  21.103  55.364  1.00  0.00    -0.356 OA
HETATM   22  C   UNL     1       8.726  20.667  56.615  1.00  0.00     0.210 C 
ENDBRANCH  18  21
ENDBRANCH  13  15
ENDBRANCH   1   9
BRANCH   5  23
HETATM   23  C   UNL     1       3.964  31.972  47.831  1.00  0.00     0.141 C 
BRANCH  23  24
HETATM   24  C   UNL     1       5.278  32.613  47.443  1.00  0.00    -0.048 A 
HETATM   25  C   UNL     1       5.542  32.893  46.092  1.00  0.00     0.031 A 
HETATM   26  C   UNL     1       6.721  33.540  45.722  1.00  0.00     0.034 A 
HETATM   27 CL   UNL     1       7.021  33.877  44.060  1.00  0.00    -0.084 Cl
HETATM   28  C   UNL     1       7.650  33.926  46.684  1.00  0.00     0.024 A 
HETATM   29  C   UNL     1       7.394  33.667  48.030  1.00  0.00     0.002 A 
HETATM   30  C   UNL     1       6.212  33.023  48.407  1.00  0.00     0.007 A 
ENDBRANCH  23  24
ENDBRANCH   5  23
TORSDOF 5
ENDMDL
