MODEL 1
REMARK VINA RESULT:      -8.7      0.000      0.000
REMARK  5 active torsions:
REMARK  status: ('A' for Active; 'I' for Inactive)
REMARK    1  A    between atoms: C_5  and  N_6 
REMARK       I    between atoms: N_6  and  C_7 
REMARK    2  A    between atoms: C_7  and  C_8 
REMARK    3  A    between atoms: C_9  and  C_10 
REMARK    4  A    between atoms: C_13  and  O_14 
REMARK    5  A    between atoms: N_20  and  C_21 
ROOT
HETATM    1  C   UNL     1       4.933  26.845  53.202  1.00  0.00     0.060 C 
HETATM    2  C   UNL     1       4.762  27.537  54.518  1.00  0.00     0.158 C 
HETATM    3  N   UNL     1       4.055  28.782  54.321  1.00  0.00    -0.354 N 
HETATM    4  C   UNL     1       4.065  29.525  53.173  1.00  0.00     0.179 C 
HETATM    5  S   UNL     1       3.458  31.085  53.323  1.00  0.00    -0.040 SA
HETATM    6  N   UNL     1       4.519  28.872  52.004  1.00  0.00    -0.292 N 
HETATM    7  C   UNL     1       4.894  27.507  52.025  1.00  0.00     0.030 C 
HETATM    8  C   UNL     1       5.353  26.870  50.728  1.00  0.00     0.070 C 
HETATM    9  H   UNL     1       3.788  29.293  55.153  1.00  0.00     0.163 HD
ENDROOT
BRANCH   1  10
HETATM   10  C   UNL     1       5.205  25.377  53.319  1.00  0.00     0.257 C 
HETATM   11  N   UNL     1       6.533  25.091  53.549  1.00  0.00    -0.306 N 
HETATM   12  H   UNL     1       7.205  25.842  53.589  1.00  0.00     0.170 HD
HETATM   13  O   UNL     1       4.299  24.575  53.147  1.00  0.00    -0.267 OA
BRANCH  11  14
HETATM   14  C   UNL     1       7.013  23.824  53.824  1.00  0.00     0.160 A 
HETATM   15  N   UNL     1       7.074  23.253  55.030  1.00  0.00    -0.110 NA
HETATM   16  O   UNL     1       7.663  22.019  54.851  1.00  0.00    -0.216 OA
HETATM   17  C   UNL     1       7.963  21.850  53.539  1.00  0.00     0.078 A 
HETATM   18  C   UNL     1       8.636  20.589  53.181  1.00  0.00     0.079 C 
HETATM   19  C   UNL     1       7.552  22.958  52.840  1.00  0.00     0.087 A 
ENDBRANCH  11  14
ENDBRANCH   1  10
BRANCH   2  20
HETATM   20  C   UNL     1       6.061  27.791  55.271  1.00  0.00    -0.031 A 
HETATM   21  C   UNL     1       6.219  27.431  56.622  1.00  0.00     0.012 A 
HETATM   22  C   UNL     1       7.402  27.719  57.307  1.00  0.00     0.037 A 
HETATM   23  C   UNL     1       8.440  28.362  56.640  1.00  0.00     0.065 A 
HETATM   24  C   UNL     1       8.317  28.708  55.301  1.00  0.00     0.037 A 
HETATM   25  C   UNL     1       7.132  28.424  54.619  1.00  0.00     0.012 A 
BRANCH  23  26
HETATM   26  O   UNL     1       9.602  28.681  57.276  1.00  0.00    -0.361 OA
HETATM   27  H   UNL     1       9.592  28.271  58.156  1.00  0.00     0.217 HD
ENDBRANCH  23  26
ENDBRANCH   2  20
BRANCH   6  28
HETATM   28  C   UNL     1       4.486  29.595  50.765  1.00  0.00     0.042 A 
HETATM   29  C   UNL     1       3.348  29.538  49.950  1.00  0.00     0.030 A 
HETATM   30  C   UNL     1       3.304  30.268  48.761  1.00  0.00     0.002 A 
HETATM   31  C   UNL     1       4.394  31.052  48.382  1.00  0.00     0.000 A 
HETATM   32  C   UNL     1       5.531  31.108  49.187  1.00  0.00     0.002 A 
HETATM   33  C   UNL     1       5.578  30.382  50.378  1.00  0.00     0.030 A 
ENDBRANCH   6  28
TORSDOF 5
ENDMDL
MODEL 2
REMARK VINA RESULT:      -8.7      1.734      2.200
REMARK  5 active torsions:
REMARK  status: ('A' for Active; 'I' for Inactive)
REMARK    1  A    between atoms: C_5  and  N_6 
REMARK       I    between atoms: N_6  and  C_7 
REMARK    2  A    between atoms: C_7  and  C_8 
REMARK    3  A    between atoms: C_9  and  C_10 
REMARK    4  A    between atoms: C_13  and  O_14 
REMARK    5  A    between atoms: N_20  and  C_21 
ROOT
HETATM    1  C   UNL     1       5.440  27.234  55.393  1.00  0.00     0.060 C 
HETATM    2  C   UNL     1       5.719  28.379  56.315  1.00  0.00     0.158 C 
HETATM    3  N   UNL     1       4.987  29.545  55.874  1.00  0.00    -0.354 N 
HETATM    4  C   UNL     1       4.613  29.803  54.585  1.00  0.00     0.179 C 
HETATM    5  S   UNL     1       4.091  31.373  54.291  1.00  0.00    -0.040 SA
HETATM    6  N   UNL     1       4.649  28.711  53.687  1.00  0.00    -0.292 N 
HETATM    7  C   UNL     1       5.009  27.414  54.125  1.00  0.00     0.030 C 
HETATM    8  C   UNL     1       5.007  26.289  53.109  1.00  0.00     0.070 C 
HETATM    9  H   UNL     1       5.015  30.357  56.478  1.00  0.00     0.163 HD
ENDROOT
BRANCH   1  10
HETATM   10  C   UNL     1       5.736  25.891  55.985  1.00  0.00     0.257 C 
HETATM   11  N   UNL     1       6.864  25.304  55.456  1.00  0.00    -0.306 N 
HETATM   12  H   UNL     1       7.372  25.773  54.722  1.00  0.00     0.170 HD
HETATM   13  O   UNL     1       4.967  25.404  56.802  1.00  0.00    -0.267 OA
BRANCH  11  14
HETATM   14  C   UNL     1       7.417  24.129  55.931  1.00  0.00     0.160 A 
HETATM   15  N   UNL     1       8.095  23.986  57.073  1.00  0.00    -0.110 NA
HETATM   16  O   UNL     1       8.505  22.670  57.123  1.00  0.00    -0.216 OA
HETATM   17  C   UNL     1       8.081  22.023  56.009  1.00  0.00     0.078 A 
HETATM   18  C   UNL     1       8.471  20.608  55.888  1.00  0.00     0.079 C 
HETATM   19  C   UNL     1       7.367  22.899  55.229  1.00  0.00     0.087 A 
ENDBRANCH  11  14
ENDBRANCH   1  10
BRANCH   2  20
HETATM   20  C   UNL     1       7.195  28.720  56.468  1.00  0.00    -0.031 A 
HETATM   21  C   UNL     1       7.772  28.980  57.726  1.00  0.00     0.012 A 
HETATM   22  C   UNL     1       9.117  29.341  57.837  1.00  0.00     0.037 A 
HETATM   23  C   UNL     1       9.897  29.434  56.689  1.00  0.00     0.065 A 
HETATM   24  C   UNL     1       9.359  29.161  55.440  1.00  0.00     0.037 A 
HETATM   25  C   UNL     1       8.013  28.806  55.329  1.00  0.00     0.012 A 
BRANCH  23  26
HETATM   26  O   UNL     1      11.208  29.803  56.752  1.00  0.00    -0.361 OA
HETATM   27  H   UNL     1      11.755  29.010  56.633  1.00  0.00     0.217 HD
ENDBRANCH  23  26
ENDBRANCH   2  20
BRANCH   6  28
HETATM   28  C   UNL     1       4.203  28.923  52.340  1.00  0.00     0.042 A 
HETATM   29  C   UNL     1       2.835  28.883  52.040  1.00  0.00     0.030 A 
HETATM   30  C   UNL     1       2.400  29.122  50.735  1.00  0.00     0.002 A 
HETATM   31  C   UNL     1       3.326  29.398  49.729  1.00  0.00     0.000 A 
HETATM   32  C   UNL     1       4.689  29.433  50.022  1.00  0.00     0.002 A 
HETATM   33  C   UNL     1       5.128  29.198  51.325  1.00  0.00     0.030 A 
ENDBRANCH   6  28
TORSDOF 5
ENDMDL
MODEL 3
REMARK VINA RESULT:      -8.6      1.316      1.840
REMARK  5 active torsions:
REMARK  status: ('A' for Active; 'I' for Inactive)
REMARK    1  A    between atoms: C_5  and  N_6 
REMARK       I    between atoms: N_6  and  C_7 
REMARK    2  A    between atoms: C_7  and  C_8 
REMARK    3  A    between atoms: C_9  and  C_10 
REMARK    4  A    between atoms: C_13  and  O_14 
REMARK    5  A    between atoms: N_20  and  C_21 
ROOT
HETATM    1  C   UNL     1       5.619  27.038  54.737  1.00  0.00     0.060 C 
HETATM    2  C   UNL     1       5.806  27.954  55.906  1.00  0.00     0.158 C 
HETATM    3  N   UNL     1       4.944  29.105  55.761  1.00  0.00    -0.354 N 
HETATM    4  C   UNL     1       4.504  29.620  54.573  1.00  0.00     0.179 C 
HETATM    5  S   UNL     1       3.812  31.149  54.667  1.00  0.00    -0.040 SA
HETATM    6  N   UNL     1       4.626  28.783  53.440  1.00  0.00    -0.292 N 
HETATM    7  C   UNL     1       5.132  27.466  53.552  1.00  0.00     0.030 C 
HETATM    8  C   UNL     1       5.215  26.621  52.296  1.00  0.00     0.070 C 
HETATM    9  H   UNL     1       4.905  29.749  56.542  1.00  0.00     0.163 HD
ENDROOT
BRANCH   1  10
HETATM   10  C   UNL     1       6.072  25.633  54.989  1.00  0.00     0.257 C 
HETATM   11  N   UNL     1       7.050  25.216  54.113  1.00  0.00    -0.306 N 
HETATM   12  H   UNL     1       7.359  25.835  53.380  1.00  0.00     0.170 HD
HETATM   13  O   UNL     1       5.530  24.967  55.859  1.00  0.00    -0.267 OA
BRANCH  11  14
HETATM   14  C   UNL     1       7.721  24.012  54.223  1.00  0.00     0.160 A 
HETATM   15  N   UNL     1       8.649  23.711  55.136  1.00  0.00    -0.110 NA
HETATM   16  O   UNL     1       9.085  22.435  54.846  1.00  0.00    -0.216 OA
HETATM   17  C   UNL     1       8.426  21.971  53.755  1.00  0.00     0.078 A 
HETATM   18  C   UNL     1       8.804  20.626  53.288  1.00  0.00     0.079 C 
HETATM   19  C   UNL     1       7.533  22.925  53.333  1.00  0.00     0.087 A 
ENDBRANCH  11  14
ENDBRANCH   1  10
BRANCH   2  20
HETATM   20  C   UNL     1       7.243  28.408  56.128  1.00  0.00    -0.031 A 
HETATM   21  C   UNL     1       7.775  28.586  57.419  1.00  0.00     0.012 A 
HETATM   22  C   UNL     1       9.080  29.051  57.598  1.00  0.00     0.037 A 
HETATM   23  C   UNL     1       9.866  29.332  56.485  1.00  0.00     0.065 A 
HETATM   24  C   UNL     1       9.373  29.144  55.202  1.00  0.00     0.037 A 
HETATM   25  C   UNL     1       8.066  28.684  55.023  1.00  0.00     0.012 A 
BRANCH  23  26
HETATM   26  O   UNL     1      11.136  29.808  56.616  1.00  0.00    -0.361 OA
HETATM   27  H   UNL     1      11.755  29.083  56.430  1.00  0.00     0.217 HD
ENDBRANCH  23  26
ENDBRANCH   2  20
BRANCH   6  28
HETATM   28  C   UNL     1       4.118  29.259  52.185  1.00  0.00     0.042 A 
HETATM   29  C   UNL     1       4.959  29.952  51.305  1.00  0.00     0.030 A 
HETATM   30  C   UNL     1       4.473  30.386  50.071  1.00  0.00     0.002 A 
HETATM   31  C   UNL     1       3.148  30.132  49.714  1.00  0.00     0.000 A 
HETATM   32  C   UNL     1       2.305  29.448  50.589  1.00  0.00     0.002 A 
HETATM   33  C   UNL     1       2.788  29.011  51.823  1.00  0.00     0.030 A 
ENDBRANCH   6  28
TORSDOF 5
ENDMDL
MODEL 4
REMARK VINA RESULT:      -8.1      9.006     12.338
REMARK  5 active torsions:
REMARK  status: ('A' for Active; 'I' for Inactive)
REMARK    1  A    between atoms: C_5  and  N_6 
REMARK       I    between atoms: N_6  and  C_7 
REMARK    2  A    between atoms: C_7  and  C_8 
REMARK    3  A    between atoms: C_9  and  C_10 
REMARK    4  A    between atoms: C_13  and  O_14 
REMARK    5  A    between atoms: N_20  and  C_21 
ROOT
HETATM    1  C   UNL     1       4.949  33.645  61.478  1.00  0.00     0.060 C 
HETATM    2  C   UNL     1       4.444  34.951  60.950  1.00  0.00     0.158 C 
HETATM    3  N   UNL     1       4.803  36.013  61.862  1.00  0.00    -0.354 N 
HETATM    4  C   UNL     1       4.998  35.868  63.208  1.00  0.00     0.179 C 
HETATM    5  S   UNL     1       5.058  37.302  64.082  1.00  0.00    -0.040 SA
HETATM    6  N   UNL     1       5.188  34.548  63.679  1.00  0.00    -0.292 N 
HETATM    7  C   UNL     1       5.221  33.449  62.787  1.00  0.00     0.030 C 
HETATM    8  C   UNL     1       5.447  32.065  63.363  1.00  0.00     0.070 C 
HETATM    9  H   UNL     1       4.605  36.960  61.563  1.00  0.00     0.163 HD
ENDROOT
BRANCH   1  10
HETATM   10  C   UNL     1       5.068  32.575  60.438  1.00  0.00     0.257 C 
HETATM   11  N   UNL     1       6.283  32.584  59.789  1.00  0.00    -0.306 N 
HETATM   12  H   UNL     1       6.965  33.290  60.019  1.00  0.00     0.170 HD
HETATM   13  O   UNL     1       4.113  31.850  60.200  1.00  0.00    -0.267 OA
BRANCH  11  14
HETATM   14  C   UNL     1       6.682  31.617  58.885  1.00  0.00     0.160 A 
HETATM   15  N   UNL     1       6.128  31.380  57.693  1.00  0.00    -0.110 NA
HETATM   16  O   UNL     1       6.802  30.305  57.154  1.00  0.00    -0.216 OA
HETATM   17  C   UNL     1       7.756  29.889  58.023  1.00  0.00     0.078 A 
HETATM   18  C   UNL     1       8.547  28.716  57.613  1.00  0.00     0.079 C 
HETATM   19  C   UNL     1       7.736  30.702  59.130  1.00  0.00     0.087 A 
ENDBRANCH  11  14
ENDBRANCH   1  10
BRANCH   2  20
HETATM   20  C   UNL     1       2.946  34.985  60.678  1.00  0.00    -0.031 A 
HETATM   21  C   UNL     1       2.006  34.575  61.643  1.00  0.00     0.012 A 
HETATM   22  C   UNL     1       0.639  34.567  61.354  1.00  0.00     0.037 A 
HETATM   23  C   UNL     1       0.203  34.979  60.100  1.00  0.00     0.065 A 
HETATM   24  C   UNL     1       1.107  35.409  59.139  1.00  0.00     0.037 A 
HETATM   25  C   UNL     1       2.474  35.411  59.426  1.00  0.00     0.012 A 
BRANCH  23  26
HETATM   26  O   UNL     1      -1.120  34.967  59.770  1.00  0.00    -0.361 OA
HETATM   27  H   UNL     1      -1.399  35.879  59.590  1.00  0.00     0.217 HD
ENDBRANCH  23  26
ENDBRANCH   2  20
BRANCH   6  28
HETATM   28  C   UNL     1       5.459  34.356  65.074  1.00  0.00     0.042 A 
HETATM   29  C   UNL     1       6.783  34.283  65.528  1.00  0.00     0.030 A 
HETATM   30  C   UNL     1       7.046  34.129  66.889  1.00  0.00     0.002 A 
HETATM   31  C   UNL     1       5.992  34.047  67.800  1.00  0.00     0.000 A 
HETATM   32  C   UNL     1       4.673  34.114  67.353  1.00  0.00     0.002 A 
HETATM   33  C   UNL     1       4.406  34.270  65.993  1.00  0.00     0.030 A 
ENDBRANCH   6  28
TORSDOF 5
ENDMDL
MODEL 5
REMARK VINA RESULT:      -8.1      1.807      2.439
REMARK  5 active torsions:
REMARK  status: ('A' for Active; 'I' for Inactive)
REMARK    1  A    between atoms: C_5  and  N_6 
REMARK       I    between atoms: N_6  and  C_7 
REMARK    2  A    between atoms: C_7  and  C_8 
REMARK    3  A    between atoms: C_9  and  C_10 
REMARK    4  A    between atoms: C_13  and  O_14 
REMARK    5  A    between atoms: N_20  and  C_21 
ROOT
HETATM    1  C   UNL     1       6.311  25.977  54.125  1.00  0.00     0.060 C 
HETATM    2  C   UNL     1       5.595  26.830  55.125  1.00  0.00     0.158 C 
HETATM    3  N   UNL     1       4.475  27.486  54.489  1.00  0.00    -0.354 N 
HETATM    4  C   UNL     1       4.396  27.805  53.161  1.00  0.00     0.179 C 
HETATM    5  S   UNL     1       3.157  28.866  52.752  1.00  0.00    -0.040 SA
HETATM    6  N   UNL     1       5.313  27.159  52.301  1.00  0.00    -0.292 N 
HETATM    7  C   UNL     1       6.228  26.198  52.795  1.00  0.00     0.030 C 
HETATM    8  C   UNL     1       7.169  25.533  51.809  1.00  0.00     0.070 C 
HETATM    9  H   UNL     1       3.851  28.012  55.088  1.00  0.00     0.163 HD
ENDROOT
BRANCH   1  10
HETATM   10  C   UNL     1       7.161  24.908  54.737  1.00  0.00     0.257 C 
HETATM   11  N   UNL     1       6.633  23.644  54.582  1.00  0.00    -0.306 N 
HETATM   12  H   UNL     1       5.744  23.529  54.122  1.00  0.00     0.170 HD
HETATM   13  O   UNL     1       8.171  25.213  55.354  1.00  0.00    -0.267 OA
BRANCH  11  14
HETATM   14  C   UNL     1       7.294  22.484  54.942  1.00  0.00     0.160 A 
HETATM   15  N   UNL     1       7.495  22.049  56.189  1.00  0.00    -0.110 NA
HETATM   16  O   UNL     1       8.234  20.890  56.086  1.00  0.00    -0.216 OA
HETATM   17  C   UNL     1       8.484  20.630  54.778  1.00  0.00     0.078 A 
HETATM   18  C   UNL     1       9.301  19.438  54.495  1.00  0.00     0.079 C 
HETATM   19  C   UNL     1       7.891  21.600  54.009  1.00  0.00     0.087 A 
ENDBRANCH  11  14
ENDBRANCH   1  10
BRANCH   2  20
HETATM   20  C   UNL     1       6.474  27.862  55.820  1.00  0.00    -0.031 A 
HETATM   21  C   UNL     1       7.583  28.445  55.179  1.00  0.00     0.012 A 
HETATM   22  C   UNL     1       8.404  29.352  55.853  1.00  0.00     0.037 A 
HETATM   23  C   UNL     1       8.116  29.688  57.171  1.00  0.00     0.065 A 
HETATM   24  C   UNL     1       7.016  29.144  57.818  1.00  0.00     0.037 A 
HETATM   25  C   UNL     1       6.197  28.233  57.146  1.00  0.00     0.012 A 
BRANCH  23  26
HETATM   26  O   UNL     1       8.903  30.553  57.871  1.00  0.00    -0.361 OA
HETATM   27  H   UNL     1       9.829  30.387  57.631  1.00  0.00     0.217 HD
ENDBRANCH  23  26
ENDBRANCH   2  20
BRANCH   6  28
HETATM   28  C   UNL     1       5.223  27.417  50.893  1.00  0.00     0.042 A 
HETATM   29  C   UNL     1       5.729  28.611  50.364  1.00  0.00     0.030 A 
HETATM   30  C   UNL     1       5.670  28.846  48.989  1.00  0.00     0.002 A 
HETATM   31  C   UNL     1       5.104  27.893  48.141  1.00  0.00     0.000 A 
HETATM   32  C   UNL     1       4.594  26.705  48.664  1.00  0.00     0.002 A 
HETATM   33  C   UNL     1       4.653  26.465  50.037  1.00  0.00     0.030 A 
ENDBRANCH   6  28
TORSDOF 5
ENDMDL
MODEL 6
REMARK VINA RESULT:      -7.8      2.926      4.179
REMARK  5 active torsions:
REMARK  status: ('A' for Active; 'I' for Inactive)
REMARK    1  A    between atoms: C_5  and  N_6 
REMARK       I    between atoms: N_6  and  C_7 
REMARK    2  A    between atoms: C_7  and  C_8 
REMARK    3  A    between atoms: C_9  and  C_10 
REMARK    4  A    between atoms: C_13  and  O_14 
REMARK    5  A    between atoms: N_20  and  C_21 
ROOT
HETATM    1  C   UNL     1       5.961  28.840  55.504  1.00  0.00     0.060 C 
HETATM    2  C   UNL     1       6.536  28.819  56.885  1.00  0.00     0.158 C 
HETATM    3  N   UNL     1       5.697  29.593  57.771  1.00  0.00    -0.354 N 
HETATM    4  C   UNL     1       4.905  30.642  57.395  1.00  0.00     0.179 C 
HETATM    5  S   UNL     1       4.313  31.582  58.656  1.00  0.00    -0.040 SA
HETATM    6  N   UNL     1       4.635  30.763  56.012  1.00  0.00    -0.292 N 
HETATM    7  C   UNL     1       5.123  29.813  55.083  1.00  0.00     0.030 C 
HETATM    8  C   UNL     1       4.776  29.999  53.619  1.00  0.00     0.070 C 
HETATM    9  H   UNL     1       5.928  29.569  58.757  1.00  0.00     0.163 HD
ENDROOT
BRANCH   1  10
HETATM   10  C   UNL     1       6.442  27.725  54.629  1.00  0.00     0.257 C 
HETATM   11  N   UNL     1       6.362  26.490  55.234  1.00  0.00    -0.306 N 
HETATM   12  H   UNL     1       6.035  26.422  56.185  1.00  0.00     0.170 HD
HETATM   13  O   UNL     1       6.908  27.975  53.526  1.00  0.00    -0.267 OA
BRANCH  11  14
HETATM   14  C   UNL     1       6.621  25.295  54.587  1.00  0.00     0.160 A 
HETATM   15  N   UNL     1       5.850  24.722  53.659  1.00  0.00    -0.110 NA
HETATM   16  O   UNL     1       6.457  23.529  53.327  1.00  0.00    -0.216 OA
HETATM   17  C   UNL     1       7.589  23.381  54.059  1.00  0.00     0.078 A 
HETATM   18  C   UNL     1       8.341  22.132  53.850  1.00  0.00     0.079 C 
HETATM   19  C   UNL     1       7.751  24.484  54.860  1.00  0.00     0.087 A 
ENDBRANCH  11  14
ENDBRANCH   1  10
BRANCH   2  20
HETATM   20  C   UNL     1       7.976  29.307  56.976  1.00  0.00    -0.031 A 
HETATM   21  C   UNL     1       8.853  29.247  55.876  1.00  0.00     0.012 A 
HETATM   22  C   UNL     1      10.183  29.654  55.998  1.00  0.00     0.037 A 
HETATM   23  C   UNL     1      10.644  30.134  57.219  1.00  0.00     0.065 A 
HETATM   24  C   UNL     1       9.795  30.224  58.313  1.00  0.00     0.037 A 
HETATM   25  C   UNL     1       8.466  29.812  58.193  1.00  0.00     0.012 A 
BRANCH  23  26
HETATM   26  O   UNL     1      11.940  30.521  57.386  1.00  0.00    -0.361 OA
HETATM   27  H   UNL     1      12.516  29.777  57.147  1.00  0.00     0.217 HD
ENDBRANCH  23  26
ENDBRANCH   2  20
BRANCH   6  28
HETATM   28  C   UNL     1       3.756  31.812  55.580  1.00  0.00     0.042 A 
HETATM   29  C   UNL     1       2.376  31.586  55.509  1.00  0.00     0.030 A 
HETATM   30  C   UNL     1       1.518  32.616  55.120  1.00  0.00     0.002 A 
HETATM   31  C   UNL     1       2.036  33.872  54.801  1.00  0.00     0.000 A 
HETATM   32  C   UNL     1       3.410  34.101  54.866  1.00  0.00     0.002 A 
HETATM   33  C   UNL     1       4.270  33.074  55.256  1.00  0.00     0.030 A 
ENDBRANCH   6  28
TORSDOF 5
ENDMDL
MODEL 7
REMARK VINA RESULT:      -7.7      2.590      5.569
REMARK  5 active torsions:
REMARK  status: ('A' for Active; 'I' for Inactive)
REMARK    1  A    between atoms: C_5  and  N_6 
REMARK       I    between atoms: N_6  and  C_7 
REMARK    2  A    between atoms: C_7  and  C_8 
REMARK    3  A    between atoms: C_9  and  C_10 
REMARK    4  A    between atoms: C_13  and  O_14 
REMARK    5  A    between atoms: N_20  and  C_21 
ROOT
HETATM    1  C   UNL     1       5.137  27.589  51.706  1.00  0.00     0.060 C 
HETATM    2  C   UNL     1       5.454  27.965  50.293  1.00  0.00     0.158 C 
HETATM    3  N   UNL     1       5.663  29.392  50.206  1.00  0.00    -0.354 N 
HETATM    4  C   UNL     1       5.105  30.325  51.035  1.00  0.00     0.179 C 
HETATM    5  S   UNL     1       5.226  31.917  50.508  1.00  0.00    -0.040 SA
HETATM    6  N   UNL     1       4.560  29.845  52.249  1.00  0.00    -0.292 N 
HETATM    7  C   UNL     1       4.640  28.475  52.597  1.00  0.00     0.030 C 
HETATM    8  C   UNL     1       4.050  28.038  53.924  1.00  0.00     0.070 C 
HETATM    9  H   UNL     1       5.985  29.755  49.317  1.00  0.00     0.163 HD
ENDROOT
BRANCH   1  10
HETATM   10  C   UNL     1       5.368  26.143  52.016  1.00  0.00     0.257 C 
HETATM   11  N   UNL     1       6.518  25.923  52.741  1.00  0.00    -0.306 N 
HETATM   12  H   UNL     1       7.116  26.700  52.976  1.00  0.00     0.170 HD
HETATM   13  O   UNL     1       4.602  25.298  51.576  1.00  0.00    -0.267 OA
BRANCH  11  14
HETATM   14  C   UNL     1       6.879  24.693  53.261  1.00  0.00     0.160 A 
HETATM   15  N   UNL     1       6.590  24.243  54.485  1.00  0.00    -0.110 NA
HETATM   16  O   UNL     1       7.183  23.004  54.598  1.00  0.00    -0.216 OA
HETATM   17  C   UNL     1       7.836  22.710  53.445  1.00  0.00     0.078 A 
HETATM   18  C   UNL     1       8.559  21.428  53.414  1.00  0.00     0.079 C 
HETATM   19  C   UNL     1       7.656  23.741  52.556  1.00  0.00     0.087 A 
ENDBRANCH  11  14
ENDBRANCH   1  10
BRANCH   2  20
HETATM   20  C   UNL     1       4.406  27.532  49.275  1.00  0.00    -0.031 A 
HETATM   21  C   UNL     1       4.687  26.579  48.278  1.00  0.00     0.012 A 
HETATM   22  C   UNL     1       3.726  26.235  47.325  1.00  0.00     0.037 A 
HETATM   23  C   UNL     1       2.473  26.835  47.369  1.00  0.00     0.065 A 
HETATM   24  C   UNL     1       2.162  27.761  48.355  1.00  0.00     0.037 A 
HETATM   25  C   UNL     1       3.125  28.109  49.305  1.00  0.00     0.012 A 
BRANCH  23  26
HETATM   26  O   UNL     1       1.513  26.543  46.445  1.00  0.00    -0.361 OA
HETATM   27  H   UNL     1       0.966  25.820  46.790  1.00  0.00     0.217 HD
ENDBRANCH  23  26
ENDBRANCH   2  20
BRANCH   6  28
HETATM   28  C   UNL     1       4.022  30.798  53.177  1.00  0.00     0.042 A 
HETATM   29  C   UNL     1       4.714  31.095  54.358  1.00  0.00     0.030 A 
HETATM   30  C   UNL     1       4.206  32.045  55.244  1.00  0.00     0.002 A 
HETATM   31  C   UNL     1       3.008  32.700  54.956  1.00  0.00     0.000 A 
HETATM   32  C   UNL     1       2.313  32.405  53.783  1.00  0.00     0.002 A 
HETATM   33  C   UNL     1       2.819  31.456  52.894  1.00  0.00     0.030 A 
ENDBRANCH   6  28
TORSDOF 5
ENDMDL
MODEL 8
REMARK VINA RESULT:      -7.6      3.039      6.746
REMARK  5 active torsions:
REMARK  status: ('A' for Active; 'I' for Inactive)
REMARK    1  A    between atoms: C_5  and  N_6 
REMARK       I    between atoms: N_6  and  C_7 
REMARK    2  A    between atoms: C_7  and  C_8 
REMARK    3  A    between atoms: C_9  and  C_10 
REMARK    4  A    between atoms: C_13  and  O_14 
REMARK    5  A    between atoms: N_20  and  C_21 
ROOT
HETATM    1  C   UNL     1       6.165  26.272  54.607  1.00  0.00     0.060 C 
HETATM    2  C   UNL     1       6.089  24.940  55.286  1.00  0.00     0.158 C 
HETATM    3  N   UNL     1       6.483  25.079  56.670  1.00  0.00    -0.354 N 
HETATM    4  C   UNL     1       7.337  26.029  57.157  1.00  0.00     0.179 C 
HETATM    5  S   UNL     1       7.897  25.756  58.719  1.00  0.00    -0.040 SA
HETATM    6  N   UNL     1       7.587  27.141  56.322  1.00  0.00    -0.292 N 
HETATM    7  C   UNL     1       6.941  27.277  55.069  1.00  0.00     0.030 C 
HETATM    8  C   UNL     1       7.244  28.507  54.236  1.00  0.00     0.070 C 
HETATM    9  H   UNL     1       6.375  24.264  57.261  1.00  0.00     0.163 HD
ENDROOT
BRANCH   1  10
HETATM   10  C   UNL     1       5.352  26.361  53.353  1.00  0.00     0.257 C 
HETATM   11  N   UNL     1       5.988  27.052  52.345  1.00  0.00    -0.306 N 
HETATM   12  H   UNL     1       6.895  27.459  52.516  1.00  0.00     0.170 HD
HETATM   13  O   UNL     1       4.220  25.900  53.329  1.00  0.00    -0.267 OA
BRANCH  11  14
HETATM   14  C   UNL     1       5.502  27.155  51.055  1.00  0.00     0.160 A 
HETATM   15  N   UNL     1       5.390  28.282  50.347  1.00  0.00    -0.110 NA
HETATM   16  O   UNL     1       4.815  27.933  49.143  1.00  0.00    -0.216 OA
HETATM   17  C   UNL     1       4.575  26.599  49.129  1.00  0.00     0.078 A 
HETATM   18  C   UNL     1       3.924  26.066  47.920  1.00  0.00     0.079 C 
HETATM   19  C   UNL     1       5.012  26.054  50.311  1.00  0.00     0.087 A 
ENDBRANCH  11  14
ENDBRANCH   1  10
BRANCH   2  20
HETATM   20  C   UNL     1       6.912  23.845  54.620  1.00  0.00    -0.031 A 
HETATM   21  C   UNL     1       7.238  23.888  53.251  1.00  0.00     0.012 A 
HETATM   22  C   UNL     1       7.951  22.847  52.651  1.00  0.00     0.037 A 
HETATM   23  C   UNL     1       8.352  21.760  53.420  1.00  0.00     0.065 A 
HETATM   24  C   UNL     1       8.064  21.704  54.776  1.00  0.00     0.037 A 
HETATM   25  C   UNL     1       7.345  22.742  55.375  1.00  0.00     0.012 A 
BRANCH  23  26
HETATM   26  O   UNL     1       9.031  20.714  52.870  1.00  0.00    -0.361 OA
HETATM   27  H   UNL     1       9.697  20.411  53.509  1.00  0.00     0.217 HD
ENDBRANCH  23  26
ENDBRANCH   2  20
BRANCH   6  28
HETATM   28  C   UNL     1       8.426  28.193  56.821  1.00  0.00     0.042 A 
HETATM   29  C   UNL     1       9.760  28.282  56.404  1.00  0.00     0.030 A 
HETATM   30  C   UNL     1      10.567  29.324  56.865  1.00  0.00     0.002 A 
HETATM   31  C   UNL     1      10.045  30.276  57.742  1.00  0.00     0.000 A 
HETATM   32  C   UNL     1       8.719  30.188  58.164  1.00  0.00     0.002 A 
HETATM   33  C   UNL     1       7.909  29.149  57.704  1.00  0.00     0.030 A 
ENDBRANCH   6  28
TORSDOF 5
ENDMDL
MODEL 9
REMARK VINA RESULT:      -7.4      2.637      5.590
REMARK  5 active torsions:
REMARK  status: ('A' for Active; 'I' for Inactive)
REMARK    1  A    between atoms: C_5  and  N_6 
REMARK       I    between atoms: N_6  and  C_7 
REMARK    2  A    between atoms: C_7  and  C_8 
REMARK    3  A    between atoms: C_9  and  C_10 
REMARK    4  A    between atoms: C_13  and  O_14 
REMARK    5  A    between atoms: N_20  and  C_21 
ROOT
HETATM    1  C   UNL     1       5.038  28.279  52.299  1.00  0.00     0.060 C 
HETATM    2  C   UNL     1       5.122  28.725  50.873  1.00  0.00     0.158 C 
HETATM    3  N   UNL     1       5.198  30.167  50.821  1.00  0.00    -0.354 N 
HETATM    4  C   UNL     1       4.684  31.021  51.757  1.00  0.00     0.179 C 
HETATM    5  S   UNL     1       4.597  32.632  51.288  1.00  0.00    -0.040 SA
HETATM    6  N   UNL     1       4.356  30.457  53.012  1.00  0.00    -0.292 N 
HETATM    7  C   UNL     1       4.597  29.089  53.286  1.00  0.00     0.030 C 
HETATM    8  C   UNL     1       4.237  28.560  54.661  1.00  0.00     0.070 C 
HETATM    9  H   UNL     1       5.362  30.585  49.913  1.00  0.00     0.163 HD
ENDROOT
BRANCH   1  10
HETATM   10  C   UNL     1       5.430  26.850  52.512  1.00  0.00     0.257 C 
HETATM   11  N   UNL     1       6.779  26.688  52.741  1.00  0.00    -0.306 N 
HETATM   12  H   UNL     1       7.388  27.491  52.719  1.00  0.00     0.170 HD
HETATM   13  O   UNL     1       4.590  25.968  52.410  1.00  0.00    -0.267 OA
BRANCH  11  14
HETATM   14  C   UNL     1       7.362  25.485  53.095  1.00  0.00     0.160 A 
HETATM   15  N   UNL     1       7.980  24.639  52.267  1.00  0.00    -0.110 NA
HETATM   16  O   UNL     1       8.361  23.554  53.029  1.00  0.00    -0.216 OA
HETATM   17  C   UNL     1       7.966  23.743  54.312  1.00  0.00     0.078 A 
HETATM   18  C   UNL     1       8.265  22.651  55.255  1.00  0.00     0.079 C 
HETATM   19  C   UNL     1       7.345  24.964  54.413  1.00  0.00     0.087 A 
ENDBRANCH  11  14
ENDBRANCH   1  10
BRANCH   2  20
HETATM   20  C   UNL     1       3.983  28.233  49.990  1.00  0.00    -0.031 A 
HETATM   21  C   UNL     1       2.699  28.805  50.046  1.00  0.00     0.012 A 
HETATM   22  C   UNL     1       1.656  28.305  49.262  1.00  0.00     0.037 A 
HETATM   23  C   UNL     1       1.895  27.233  48.409  1.00  0.00     0.065 A 
HETATM   24  C   UNL     1       3.158  26.665  48.318  1.00  0.00     0.037 A 
HETATM   25  C   UNL     1       4.199  27.162  49.106  1.00  0.00     0.012 A 
BRANCH  23  26
HETATM   26  O   UNL     1       0.901  26.700  47.643  1.00  0.00    -0.361 OA
HETATM   27  H   UNL     1       0.449  27.425  47.181  1.00  0.00     0.217 HD
ENDBRANCH  23  26
ENDBRANCH   2  20
BRANCH   6  28
HETATM   28  C   UNL     1       3.874  31.329  54.044  1.00  0.00     0.042 A 
HETATM   29  C   UNL     1       2.510  31.634  54.125  1.00  0.00     0.030 A 
HETATM   30  C   UNL     1       2.037  32.456  55.149  1.00  0.00     0.002 A 
HETATM   31  C   UNL     1       2.924  32.976  56.093  1.00  0.00     0.000 A 
HETATM   32  C   UNL     1       4.284  32.679  56.014  1.00  0.00     0.002 A 
HETATM   33  C   UNL     1       4.760  31.856  54.993  1.00  0.00     0.030 A 
ENDBRANCH   6  28
TORSDOF 5
ENDMDL
MODEL 10
REMARK VINA RESULT:      -7.3      3.385      6.408
REMARK  5 active torsions:
REMARK  status: ('A' for Active; 'I' for Inactive)
REMARK    1  A    between atoms: C_5  and  N_6 
REMARK       I    between atoms: N_6  and  C_7 
REMARK    2  A    between atoms: C_7  and  C_8 
REMARK    3  A    between atoms: C_9  and  C_10 
REMARK    4  A    between atoms: C_13  and  O_14 
REMARK    5  A    between atoms: N_20  and  C_21 
ROOT
HETATM    1  C   UNL     1       4.067  28.938  51.776  1.00  0.00     0.060 C 
HETATM    2  C   UNL     1       5.473  28.493  51.519  1.00  0.00     0.158 C 
HETATM    3  N   UNL     1       5.739  28.526  50.098  1.00  0.00    -0.354 N 
HETATM    4  C   UNL     1       4.801  28.378  49.114  1.00  0.00     0.179 C 
HETATM    5  S   UNL     1       5.415  28.107  47.573  1.00  0.00    -0.040 SA
HETATM    6  N   UNL     1       3.450  28.534  49.502  1.00  0.00    -0.292 N 
HETATM    7  C   UNL     1       3.104  28.876  50.831  1.00  0.00     0.030 C 
HETATM    8  C   UNL     1       1.635  29.046  51.168  1.00  0.00     0.070 C 
HETATM    9  H   UNL     1       6.691  28.344  49.806  1.00  0.00     0.163 HD
ENDROOT
BRANCH   1  10
HETATM   10  C   UNL     1       3.824  29.397  53.180  1.00  0.00     0.257 C 
HETATM   11  N   UNL     1       3.982  30.756  53.339  1.00  0.00    -0.306 N 
HETATM   12  H   UNL     1       4.267  31.320  52.552  1.00  0.00     0.170 HD
HETATM   13  O   UNL     1       3.581  28.578  54.054  1.00  0.00    -0.267 OA
BRANCH  11  14
HETATM   14  C   UNL     1       3.684  31.437  54.505  1.00  0.00     0.160 A 
HETATM   15  N   UNL     1       2.461  31.669  54.988  1.00  0.00    -0.110 NA
HETATM   16  O   UNL     1       2.627  32.419  56.133  1.00  0.00    -0.216 OA
HETATM   17  C   UNL     1       3.949  32.645  56.336  1.00  0.00     0.078 A 
HETATM   18  C   UNL     1       4.298  33.469  57.505  1.00  0.00     0.079 C 
HETATM   19  C   UNL     1       4.665  32.025  55.342  1.00  0.00     0.087 A 
ENDBRANCH  11  14
ENDBRANCH   1  10
BRANCH   2  20
HETATM   20  C   UNL     1       5.811  27.116  52.077  1.00  0.00    -0.031 A 
HETATM   21  C   UNL     1       4.989  25.998  51.846  1.00  0.00     0.012 A 
HETATM   22  C   UNL     1       5.293  24.756  52.409  1.00  0.00     0.037 A 
HETATM   23  C   UNL     1       6.429  24.624  53.201  1.00  0.00     0.065 A 
HETATM   24  C   UNL     1       7.268  25.705  53.426  1.00  0.00     0.037 A 
HETATM   25  C   UNL     1       6.961  26.948  52.867  1.00  0.00     0.012 A 
BRANCH  23  26
HETATM   26  O   UNL     1       6.750  23.436  53.787  1.00  0.00    -0.361 OA
HETATM   27  H   UNL     1       6.549  22.721  53.161  1.00  0.00     0.217 HD
ENDBRANCH  23  26
ENDBRANCH   2  20
BRANCH   6  28
HETATM   28  C   UNL     1       2.438  28.450  48.488  1.00  0.00     0.042 A 
HETATM   29  C   UNL     1       1.817  27.225  48.217  1.00  0.00     0.030 A 
HETATM   30  C   UNL     1       0.809  27.151  47.254  1.00  0.00     0.002 A 
HETATM   31  C   UNL     1       0.421  28.297  46.560  1.00  0.00     0.000 A 
HETATM   32  C   UNL     1       1.040  29.519  46.822  1.00  0.00     0.002 A 
HETATM   33  C   UNL     1       2.046  29.597  47.786  1.00  0.00     0.030 A 
ENDBRANCH   6  28
TORSDOF 5
ENDMDL
