MODEL 1
REMARK VINA RESULT:     -11.0      0.000      0.000
REMARK  9 active torsions:
REMARK  status: ('A' for Active; 'I' for Inactive)
REMARK    1  A    between atoms: C_3  and  N_4 
REMARK    2  A    between atoms: N_4  and  C_5 
REMARK    3  A    between atoms: C_7  and  C_8 
REMARK    4  A    between atoms: C_19  and  N_20 
REMARK       I    between atoms: N_20  and  C_21 
REMARK    5  A    between atoms: C_21  and  C_22 
REMARK    6  A    between atoms: C_24  and  N_25 
REMARK       I    between atoms: N_25  and  C_26 
REMARK    7  A    between atoms: C_26  and  C_27 
REMARK    8  A    between atoms: C_28  and  C_29 
REMARK    9  A    between atoms: C_29  and  N_30 
ROOT
HETATM    1  C   UNL     1       5.151  34.538  61.893  1.00  0.00     0.050 C 
HETATM    2  C   UNL     1       6.271  33.617  62.301  1.00  0.00    -0.033 A 
HETATM    3  C   UNL     1       6.825  33.657  63.597  1.00  0.00     0.055 A 
HETATM    4  C   UNL     1       7.868  32.768  63.887  1.00  0.00     0.033 A 
HETATM    5  C   UNL     1       8.380  31.884  62.929  1.00  0.00     0.032 A 
HETATM    6  C   UNL     1       7.876  31.883  61.636  1.00  0.00     0.035 A 
HETATM    7  C   UNL     1       6.809  32.740  61.335  1.00  0.00     0.038 A 
ENDROOT
BRANCH   6   8
HETATM    8  N   UNL     1       8.401  31.101  60.583  1.00  0.00    -0.323 N 
HETATM    9  C   UNL     1       9.154  31.546  59.509  1.00  0.00     0.256 C 
HETATM   10  O   UNL     1       9.570  32.684  59.329  1.00  0.00    -0.267 OA
HETATM   11  H   UNL     1       8.109  30.134  60.586  1.00  0.00     0.169 HD
BRANCH   9  12
HETATM   12  C   UNL     1       9.438  30.530  58.452  1.00  0.00     0.034 A 
HETATM   13  C   UNL     1       8.495  29.569  58.055  1.00  0.00     0.046 A 
HETATM   14  C   UNL     1       8.796  28.658  57.038  1.00  0.00     0.035 A 
HETATM   15  C   UNL     1      10.064  28.693  56.444  1.00  0.00     0.029 A 
HETATM   16  C   UNL     1      11.016  29.628  56.851  1.00  0.00     0.003 A 
HETATM   17  C   UNL     1      10.703  30.545  57.851  1.00  0.00     0.017 A 
BRANCH  14  18
HETATM   18  N   UNL     1       7.889  27.682  56.565  1.00  0.00    -0.324 N 
HETATM   19  C   UNL     1       7.706  26.416  57.072  1.00  0.00     0.245 C 
HETATM   20  O   UNL     1       8.257  25.907  58.040  1.00  0.00    -0.268 OA
HETATM   21  H   UNL     1       7.321  27.972  55.780  1.00  0.00     0.169 HD
BRANCH  19  22
HETATM   22  C   UNL     1       6.682  25.638  56.314  1.00  0.00     0.072 C 
HETATM   23  C   UNL     1       6.859  25.462  54.994  1.00  0.00     0.006 C 
BRANCH  23  24
HETATM   24  C   UNL     1       5.965  24.673  54.101  1.00  0.00     0.261 C 
BRANCH  24  25
HETATM   25  N   UNL     1       6.735  23.888  53.068  1.00  0.00    -0.076 N 
HETATM   26  H   UNL     1       6.040  23.438  52.458  1.00  0.00     0.279 HD
HETATM   27  C   UNL     1       7.592  24.751  52.184  1.00  0.00     0.269 C 
HETATM   28  C   UNL     1       7.534  22.780  53.695  1.00  0.00     0.269 C 
ENDBRANCH  24  25
ENDBRANCH  23  24
ENDBRANCH  19  22
ENDBRANCH  14  18
ENDBRANCH   9  12
ENDBRANCH   6   8
BRANCH   3  29
HETATM   29  N   UNL     1       6.408  34.624  64.523  1.00  0.00    -0.188 N 
HETATM   30  H   UNL     1       6.714  35.574  64.393  1.00  0.00     0.184 HD
BRANCH  29  31
HETATM   31  C   UNL     1       5.712  34.519  65.726  1.00  0.00     0.727 A 
HETATM   32  N   UNL     1       6.470  34.379  66.825  1.00  0.00    -0.062 NA
HETATM   33  C   UNL     1       5.849  34.236  68.021  1.00  0.00     0.089 A 
HETATM   34  C   UNL     1       4.471  34.205  68.120  1.00  0.00     0.053 A 
HETATM   35  C   UNL     1       3.779  34.344  66.947  1.00  0.00     0.139 A 
HETATM   36  N   UNL     1       4.373  34.504  65.755  1.00  0.00    -0.075 NA
BRANCH  33  37
HETATM   37  C   UNL     1       6.733  34.099  69.193  1.00  0.00     0.011 A 
HETATM   38  C   UNL     1       6.461  33.177  70.206  1.00  0.00     0.130 A 
HETATM   39  N   UNL     1       7.209  32.998  71.325  1.00  0.00    -0.272 NA
HETATM   40  C   UNL     1       8.304  33.773  71.450  1.00  0.00     0.116 A 
HETATM   41  C   UNL     1       8.685  34.713  70.509  1.00  0.00     0.020 A 
HETATM   42  C   UNL     1       7.891  34.872  69.373  1.00  0.00     0.017 A 
ENDBRANCH  33  37
ENDBRANCH  29  31
ENDBRANCH   3  29
TORSDOF 9
ENDMDL
MODEL 2
REMARK VINA RESULT:     -10.4      2.154     13.675
REMARK  9 active torsions:
REMARK  status: ('A' for Active; 'I' for Inactive)
REMARK    1  A    between atoms: C_3  and  N_4 
REMARK    2  A    between atoms: N_4  and  C_5 
REMARK    3  A    between atoms: C_7  and  C_8 
REMARK    4  A    between atoms: C_19  and  N_20 
REMARK       I    between atoms: N_20  and  C_21 
REMARK    5  A    between atoms: C_21  and  C_22 
REMARK    6  A    between atoms: C_24  and  N_25 
REMARK       I    between atoms: N_25  and  C_26 
REMARK    7  A    between atoms: C_26  and  C_27 
REMARK    8  A    between atoms: C_28  and  C_29 
REMARK    9  A    between atoms: C_29  and  N_30 
ROOT
HETATM    1  C   UNL     1      10.567  29.760  57.026  1.00  0.00     0.050 C 
HETATM    2  C   UNL     1       9.113  29.946  57.371  1.00  0.00    -0.033 A 
HETATM    3  C   UNL     1       8.090  29.338  56.615  1.00  0.00     0.055 A 
HETATM    4  C   UNL     1       6.765  29.572  57.005  1.00  0.00     0.033 A 
HETATM    5  C   UNL     1       6.443  30.404  58.084  1.00  0.00     0.032 A 
HETATM    6  C   UNL     1       7.445  31.050  58.794  1.00  0.00     0.035 A 
HETATM    7  C   UNL     1       8.778  30.802  58.442  1.00  0.00     0.038 A 
ENDROOT
BRANCH   6   8
HETATM    8  N   UNL     1       7.205  31.984  59.827  1.00  0.00    -0.323 N 
HETATM    9  C   UNL     1       7.418  31.800  61.183  1.00  0.00     0.256 C 
HETATM   10  O   UNL     1       7.934  30.825  61.717  1.00  0.00    -0.267 OA
HETATM   11  H   UNL     1       6.746  32.834  59.533  1.00  0.00     0.169 HD
BRANCH   9  12
HETATM   12  C   UNL     1       6.921  32.893  62.071  1.00  0.00     0.034 A 
HETATM   13  C   UNL     1       7.243  32.963  63.435  1.00  0.00     0.046 A 
HETATM   14  C   UNL     1       6.779  34.023  64.220  1.00  0.00     0.035 A 
HETATM   15  C   UNL     1       5.958  34.996  63.635  1.00  0.00     0.029 A 
HETATM   16  C   UNL     1       5.612  34.920  62.286  1.00  0.00     0.003 A 
HETATM   17  C   UNL     1       6.093  33.871  61.506  1.00  0.00     0.017 A 
BRANCH  14  18
HETATM   18  N   UNL     1       7.084  34.177  65.592  1.00  0.00    -0.324 N 
HETATM   19  C   UNL     1       6.205  34.082  66.646  1.00  0.00     0.245 C 
HETATM   20  O   UNL     1       5.011  33.812  66.606  1.00  0.00    -0.268 OA
HETATM   21  H   UNL     1       8.058  34.366  65.793  1.00  0.00     0.169 HD
BRANCH  19  22
HETATM   22  C   UNL     1       6.863  34.325  67.964  1.00  0.00     0.072 C 
HETATM   23  C   UNL     1       6.086  34.444  69.054  1.00  0.00     0.006 C 
BRANCH  23  24
HETATM   24  C   UNL     1       6.578  34.637  70.447  1.00  0.00     0.261 C 
BRANCH  24  25
HETATM   25  N   UNL     1       7.483  33.517  70.894  1.00  0.00    -0.076 N 
HETATM   26  H   UNL     1       8.187  33.391  70.155  1.00  0.00     0.279 HD
HETATM   27  C   UNL     1       8.236  33.830  72.158  1.00  0.00     0.269 C 
HETATM   28  C   UNL     1       6.741  32.214  71.005  1.00  0.00     0.269 C 
ENDBRANCH  24  25
ENDBRANCH  23  24
ENDBRANCH  19  22
ENDBRANCH  14  18
ENDBRANCH   9  12
ENDBRANCH   6   8
BRANCH   3  29
HETATM   29  N   UNL     1       8.395  28.610  55.456  1.00  0.00    -0.188 N 
HETATM   30  H   UNL     1       9.319  28.698  55.065  1.00  0.00     0.184 HD
BRANCH  29  31
HETATM   31  C   UNL     1       7.604  27.831  54.613  1.00  0.00     0.727 A 
HETATM   32  N   UNL     1       7.805  26.506  54.687  1.00  0.00    -0.062 NA
HETATM   33  C   UNL     1       7.091  25.699  53.864  1.00  0.00     0.089 A 
HETATM   34  C   UNL     1       6.195  26.214  52.949  1.00  0.00     0.053 A 
HETATM   35  C   UNL     1       6.061  27.577  52.936  1.00  0.00     0.139 A 
HETATM   36  N   UNL     1       6.746  28.392  53.751  1.00  0.00    -0.075 NA
BRANCH  33  37
HETATM   37  C   UNL     1       7.347  24.254  54.001  1.00  0.00     0.011 A 
HETATM   38  C   UNL     1       7.219  23.606  55.232  1.00  0.00     0.130 A 
HETATM   39  N   UNL     1       7.451  22.286  55.451  1.00  0.00    -0.272 NA
HETATM   40  C   UNL     1       7.826  21.553  54.384  1.00  0.00     0.116 A 
HETATM   41  C   UNL     1       7.976  22.078  53.113  1.00  0.00     0.020 A 
HETATM   42  C   UNL     1       7.732  23.438  52.925  1.00  0.00     0.017 A 
ENDBRANCH  33  37
ENDBRANCH  29  31
ENDBRANCH   3  29
TORSDOF 9
ENDMDL
MODEL 3
REMARK VINA RESULT:     -10.3      2.665     13.848
REMARK  9 active torsions:
REMARK  status: ('A' for Active; 'I' for Inactive)
REMARK    1  A    between atoms: C_3  and  N_4 
REMARK    2  A    between atoms: N_4  and  C_5 
REMARK    3  A    between atoms: C_7  and  C_8 
REMARK    4  A    between atoms: C_19  and  N_20 
REMARK       I    between atoms: N_20  and  C_21 
REMARK    5  A    between atoms: C_21  and  C_22 
REMARK    6  A    between atoms: C_24  and  N_25 
REMARK       I    between atoms: N_25  and  C_26 
REMARK    7  A    between atoms: C_26  and  C_27 
REMARK    8  A    between atoms: C_28  and  C_29 
REMARK    9  A    between atoms: C_29  and  N_30 
ROOT
HETATM    1  C   UNL     1       3.935  28.661  53.558  1.00  0.00     0.050 C 
HETATM    2  C   UNL     1       4.596  28.481  54.900  1.00  0.00    -0.033 A 
HETATM    3  C   UNL     1       5.146  27.243  55.292  1.00  0.00     0.055 A 
HETATM    4  C   UNL     1       5.735  27.165  56.561  1.00  0.00     0.033 A 
HETATM    5  C   UNL     1       5.759  28.256  57.438  1.00  0.00     0.032 A 
HETATM    6  C   UNL     1       5.167  29.458  57.078  1.00  0.00     0.035 A 
HETATM    7  C   UNL     1       4.603  29.568  55.800  1.00  0.00     0.038 A 
ENDROOT
BRANCH   6   8
HETATM    8  N   UNL     1       5.056  30.573  57.938  1.00  0.00    -0.323 N 
HETATM    9  C   UNL     1       6.090  31.345  58.441  1.00  0.00     0.256 C 
HETATM   10  O   UNL     1       7.278  31.251  58.158  1.00  0.00    -0.267 OA
HETATM   11  H   UNL     1       4.123  30.752  58.282  1.00  0.00     0.169 HD
BRANCH   9  12
HETATM   12  C   UNL     1       5.701  32.361  59.465  1.00  0.00     0.034 A 
HETATM   13  C   UNL     1       6.328  32.450  60.716  1.00  0.00     0.046 A 
HETATM   14  C   UNL     1       5.952  33.439  61.630  1.00  0.00     0.035 A 
HETATM   15  C   UNL     1       4.914  34.318  61.294  1.00  0.00     0.029 A 
HETATM   16  C   UNL     1       4.268  34.220  60.062  1.00  0.00     0.003 A 
HETATM   17  C   UNL     1       4.661  33.245  59.149  1.00  0.00     0.017 A 
BRANCH  14  18
HETATM   18  N   UNL     1       6.555  33.609  62.897  1.00  0.00    -0.324 N 
HETATM   19  C   UNL     1       6.075  33.157  64.104  1.00  0.00     0.245 C 
HETATM   20  O   UNL     1       5.064  32.496  64.311  1.00  0.00    -0.268 OA
HETATM   21  H   UNL     1       7.435  34.109  62.887  1.00  0.00     0.169 HD
BRANCH  19  22
HETATM   22  C   UNL     1       6.956  33.534  65.249  1.00  0.00     0.072 C 
HETATM   23  C   UNL     1       6.382  33.994  66.374  1.00  0.00     0.006 C 
BRANCH  23  24
HETATM   24  C   UNL     1       7.105  34.366  67.622  1.00  0.00     0.261 C 
BRANCH  24  25
HETATM   25  N   UNL     1       6.391  33.888  68.861  1.00  0.00    -0.076 N 
HETATM   26  H   UNL     1       5.911  33.014  68.609  1.00  0.00     0.279 HD
HETATM   27  C   UNL     1       7.323  33.557  69.994  1.00  0.00     0.269 C 
HETATM   28  C   UNL     1       5.322  34.853  69.293  1.00  0.00     0.269 C 
ENDBRANCH  24  25
ENDBRANCH  23  24
ENDBRANCH  19  22
ENDBRANCH  14  18
ENDBRANCH   9  12
ENDBRANCH   6   8
BRANCH   3  29
HETATM   29  N   UNL     1       5.013  26.112  54.475  1.00  0.00    -0.188 N 
HETATM   30  H   UNL     1       4.131  25.626  54.470  1.00  0.00     0.184 HD
BRANCH  29  31
HETATM   31  C   UNL     1       5.938  25.405  53.709  1.00  0.00     0.727 A 
HETATM   32  N   UNL     1       6.378  24.254  54.244  1.00  0.00    -0.062 NA
HETATM   33  C   UNL     1       7.307  23.540  53.563  1.00  0.00     0.089 A 
HETATM   34  C   UNL     1       7.819  23.985  52.360  1.00  0.00     0.053 A 
HETATM   35  C   UNL     1       7.322  25.173  51.895  1.00  0.00     0.139 A 
HETATM   36  N   UNL     1       6.391  25.887  52.544  1.00  0.00    -0.075 NA
BRANCH  33  37
HETATM   37  C   UNL     1       7.740  22.281  54.195  1.00  0.00     0.011 A 
HETATM   38  C   UNL     1       8.164  21.192  53.430  1.00  0.00     0.130 A 
HETATM   39  N   UNL     1       8.561  19.992  53.927  1.00  0.00    -0.272 NA
HETATM   40  C   UNL     1       8.549  19.859  55.268  1.00  0.00     0.116 A 
HETATM   41  C   UNL     1       8.161  20.868  56.130  1.00  0.00     0.020 A 
HETATM   42  C   UNL     1       7.756  22.087  55.585  1.00  0.00     0.017 A 
ENDBRANCH  33  37
ENDBRANCH  29  31
ENDBRANCH   3  29
TORSDOF 9
ENDMDL
MODEL 4
REMARK VINA RESULT:     -10.2      3.679     13.198
REMARK  9 active torsions:
REMARK  status: ('A' for Active; 'I' for Inactive)
REMARK    1  A    between atoms: C_3  and  N_4 
REMARK    2  A    between atoms: N_4  and  C_5 
REMARK    3  A    between atoms: C_7  and  C_8 
REMARK    4  A    between atoms: C_19  and  N_20 
REMARK       I    between atoms: N_20  and  C_21 
REMARK    5  A    between atoms: C_21  and  C_22 
REMARK    6  A    between atoms: C_24  and  N_25 
REMARK       I    between atoms: N_25  and  C_26 
REMARK    7  A    between atoms: C_26  and  C_27 
REMARK    8  A    between atoms: C_28  and  C_29 
REMARK    9  A    between atoms: C_29  and  N_30 
ROOT
HETATM    1  C   UNL     1       9.994  29.417  55.418  1.00  0.00     0.050 C 
HETATM    2  C   UNL     1       8.700  29.326  56.184  1.00  0.00    -0.033 A 
HETATM    3  C   UNL     1       7.623  28.541  55.724  1.00  0.00     0.055 A 
HETATM    4  C   UNL     1       6.455  28.520  56.497  1.00  0.00     0.033 A 
HETATM    5  C   UNL     1       6.327  29.272  57.671  1.00  0.00     0.032 A 
HETATM    6  C   UNL     1       7.364  30.091  58.095  1.00  0.00     0.035 A 
HETATM    7  C   UNL     1       8.553  30.099  57.355  1.00  0.00     0.038 A 
ENDROOT
BRANCH   6   8
HETATM    8  N   UNL     1       7.282  30.958  59.208  1.00  0.00    -0.323 N 
HETATM    9  C   UNL     1       8.048  30.910  60.361  1.00  0.00     0.256 C 
HETATM   10  O   UNL     1       8.992  30.161  60.581  1.00  0.00    -0.267 OA
HETATM   11  H   UNL     1       6.518  31.617  59.177  1.00  0.00     0.169 HD
BRANCH   9  12
HETATM   12  C   UNL     1       7.638  31.845  61.451  1.00  0.00     0.034 A 
HETATM   13  C   UNL     1       6.653  32.828  61.271  1.00  0.00     0.046 A 
HETATM   14  C   UNL     1       6.279  33.660  62.331  1.00  0.00     0.035 A 
HETATM   15  C   UNL     1       6.928  33.524  63.566  1.00  0.00     0.029 A 
HETATM   16  C   UNL     1       7.926  32.567  63.745  1.00  0.00     0.003 A 
HETATM   17  C   UNL     1       8.280  31.729  62.690  1.00  0.00     0.017 A 
BRANCH  14  18
HETATM   18  N   UNL     1       5.277  34.652  62.235  1.00  0.00    -0.324 N 
HETATM   19  C   UNL     1       3.997  34.579  62.735  1.00  0.00     0.245 C 
HETATM   20  O   UNL     1       3.494  33.670  63.384  1.00  0.00    -0.268 OA
HETATM   21  H   UNL     1       5.557  35.496  61.754  1.00  0.00     0.169 HD
BRANCH  19  22
HETATM   22  C   UNL     1       3.193  35.800  62.432  1.00  0.00     0.072 C 
HETATM   23  C   UNL     1       3.841  36.963  62.246  1.00  0.00     0.006 C 
BRANCH  23  24
HETATM   24  C   UNL     1       3.201  38.259  61.887  1.00  0.00     0.261 C 
BRANCH  24  25
HETATM   25  N   UNL     1       3.996  39.025  60.860  1.00  0.00    -0.076 N 
HETATM   26  H   UNL     1       3.315  39.501  60.252  1.00  0.00     0.279 HD
HETATM   27  C   UNL     1       4.863  40.098  61.459  1.00  0.00     0.269 C 
HETATM   28  C   UNL     1       4.790  38.107  59.974  1.00  0.00     0.269 C 
ENDBRANCH  24  25
ENDBRANCH  23  24
ENDBRANCH  19  22
ENDBRANCH  14  18
ENDBRANCH   9  12
ENDBRANCH   6   8
BRANCH   3  29
HETATM   29  N   UNL     1       7.693  27.888  54.485  1.00  0.00    -0.188 N 
HETATM   30  H   UNL     1       8.315  28.256  53.784  1.00  0.00     0.184 HD
BRANCH  29  31
HETATM   31  C   UNL     1       6.949  26.840  53.943  1.00  0.00     0.727 A 
HETATM   32  N   UNL     1       7.414  25.606  54.197  1.00  0.00    -0.062 NA
HETATM   33  C   UNL     1       6.754  24.548  53.666  1.00  0.00     0.089 A 
HETATM   34  C   UNL     1       5.646  24.719  52.860  1.00  0.00     0.053 A 
HETATM   35  C   UNL     1       5.249  26.012  52.647  1.00  0.00     0.139 A 
HETATM   36  N   UNL     1       5.877  27.073  53.175  1.00  0.00    -0.075 NA
BRANCH  33  37
HETATM   37  C   UNL     1       7.304  23.219  53.990  1.00  0.00     0.011 A 
HETATM   38  C   UNL     1       7.414  22.780  55.312  1.00  0.00     0.130 A 
HETATM   39  N   UNL     1       7.923  21.583  55.701  1.00  0.00    -0.272 NA
HETATM   40  C   UNL     1       8.345  20.759  54.721  1.00  0.00     0.116 A 
HETATM   41  C   UNL     1       8.278  21.076  53.377  1.00  0.00     0.020 A 
HETATM   42  C   UNL     1       7.752  22.316  53.014  1.00  0.00     0.017 A 
ENDBRANCH  33  37
ENDBRANCH  29  31
ENDBRANCH   3  29
TORSDOF 9
ENDMDL
MODEL 5
REMARK VINA RESULT:     -10.2      2.348     13.488
REMARK  9 active torsions:
REMARK  status: ('A' for Active; 'I' for Inactive)
REMARK    1  A    between atoms: C_3  and  N_4 
REMARK    2  A    between atoms: N_4  and  C_5 
REMARK    3  A    between atoms: C_7  and  C_8 
REMARK    4  A    between atoms: C_19  and  N_20 
REMARK       I    between atoms: N_20  and  C_21 
REMARK    5  A    between atoms: C_21  and  C_22 
REMARK    6  A    between atoms: C_24  and  N_25 
REMARK       I    between atoms: N_25  and  C_26 
REMARK    7  A    between atoms: C_26  and  C_27 
REMARK    8  A    between atoms: C_28  and  C_29 
REMARK    9  A    between atoms: C_29  and  N_30 
ROOT
HETATM    1  C   UNL     1       4.505  28.893  54.903  1.00  0.00     0.050 C 
HETATM    2  C   UNL     1       5.926  29.057  55.375  1.00  0.00    -0.033 A 
HETATM    3  C   UNL     1       7.019  28.639  54.588  1.00  0.00     0.055 A 
HETATM    4  C   UNL     1       8.306  28.824  55.110  1.00  0.00     0.033 A 
HETATM    5  C   UNL     1       8.522  29.374  56.380  1.00  0.00     0.032 A 
HETATM    6  C   UNL     1       7.446  29.733  57.180  1.00  0.00     0.035 A 
HETATM    7  C   UNL     1       6.152  29.587  56.663  1.00  0.00     0.038 A 
ENDROOT
BRANCH   6   8
HETATM    8  N   UNL     1       7.570  30.196  58.509  1.00  0.00    -0.323 N 
HETATM    9  C   UNL     1       7.212  31.443  58.994  1.00  0.00     0.256 C 
HETATM   10  O   UNL     1       6.644  32.334  58.373  1.00  0.00    -0.267 OA
HETATM   11  H   UNL     1       8.055  29.569  59.134  1.00  0.00     0.169 HD
BRANCH   9  12
HETATM   12  C   UNL     1       7.607  31.727  60.406  1.00  0.00     0.034 A 
HETATM   13  C   UNL     1       6.839  32.536  61.256  1.00  0.00     0.046 A 
HETATM   14  C   UNL     1       7.234  32.748  62.582  1.00  0.00     0.035 A 
HETATM   15  C   UNL     1       8.426  32.171  63.038  1.00  0.00     0.029 A 
HETATM   16  C   UNL     1       9.209  31.387  62.191  1.00  0.00     0.003 A 
HETATM   17  C   UNL     1       8.800  31.165  60.878  1.00  0.00     0.017 A 
BRANCH  14  18
HETATM   18  N   UNL     1       6.499  33.525  63.505  1.00  0.00    -0.324 N 
HETATM   19  C   UNL     1       5.303  33.189  64.095  1.00  0.00     0.245 C 
HETATM   20  O   UNL     1       4.667  32.149  63.967  1.00  0.00    -0.268 OA
HETATM   21  H   UNL     1       6.922  34.411  63.749  1.00  0.00     0.169 HD
BRANCH  19  22
HETATM   22  C   UNL     1       4.792  34.257  65.005  1.00  0.00     0.072 C 
HETATM   23  C   UNL     1       5.402  34.434  66.189  1.00  0.00     0.006 C 
BRANCH  23  24
HETATM   24  C   UNL     1       5.055  35.482  67.190  1.00  0.00     0.261 C 
BRANCH  24  25
HETATM   25  N   UNL     1       5.324  35.034  68.605  1.00  0.00    -0.076 N 
HETATM   26  H   UNL     1       4.661  35.539  69.207  1.00  0.00     0.279 HD
HETATM   27  C   UNL     1       5.073  33.567  68.821  1.00  0.00     0.269 C 
HETATM   28  C   UNL     1       6.701  35.429  69.060  1.00  0.00     0.269 C 
ENDBRANCH  24  25
ENDBRANCH  23  24
ENDBRANCH  19  22
ENDBRANCH  14  18
ENDBRANCH   9  12
ENDBRANCH   6   8
BRANCH   3  29
HETATM   29  N   UNL     1       6.810  27.971  53.374  1.00  0.00    -0.188 N 
HETATM   30  H   UNL     1       6.903  28.493  52.518  1.00  0.00     0.184 HD
BRANCH  29  31
HETATM   31  C   UNL     1       6.357  26.683  53.087  1.00  0.00     0.727 A 
HETATM   32  N   UNL     1       7.116  25.682  53.560  1.00  0.00    -0.062 NA
HETATM   33  C   UNL     1       6.747  24.408  53.283  1.00  0.00     0.089 A 
HETATM   34  C   UNL     1       5.635  24.131  52.511  1.00  0.00     0.053 A 
HETATM   35  C   UNL     1       4.927  25.213  52.062  1.00  0.00     0.139 A 
HETATM   36  N   UNL     1       5.265  26.481  52.339  1.00  0.00    -0.075 NA
BRANCH  33  37
HETATM   37  C   UNL     1       7.611  23.352  53.840  1.00  0.00     0.011 A 
HETATM   38  C   UNL     1       8.368  23.566  54.995  1.00  0.00     0.130 A 
HETATM   39  N   UNL     1       9.201  22.658  55.565  1.00  0.00    -0.272 NA
HETATM   40  C   UNL     1       9.289  21.456  54.962  1.00  0.00     0.116 A 
HETATM   41  C   UNL     1       8.582  21.122  53.822  1.00  0.00     0.020 A 
HETATM   42  C   UNL     1       7.737  22.079  53.262  1.00  0.00     0.017 A 
ENDBRANCH  33  37
ENDBRANCH  29  31
ENDBRANCH   3  29
TORSDOF 9
ENDMDL
MODEL 6
REMARK VINA RESULT:     -10.2      3.816     13.271
REMARK  9 active torsions:
REMARK  status: ('A' for Active; 'I' for Inactive)
REMARK    1  A    between atoms: C_3  and  N_4 
REMARK    2  A    between atoms: N_4  and  C_5 
REMARK    3  A    between atoms: C_7  and  C_8 
REMARK    4  A    between atoms: C_19  and  N_20 
REMARK       I    between atoms: N_20  and  C_21 
REMARK    5  A    between atoms: C_21  and  C_22 
REMARK    6  A    between atoms: C_24  and  N_25 
REMARK       I    between atoms: N_25  and  C_26 
REMARK    7  A    between atoms: C_26  and  C_27 
REMARK    8  A    between atoms: C_28  and  C_29 
REMARK    9  A    between atoms: C_29  and  N_30 
ROOT
HETATM    1  C   UNL     1       4.197  28.866  54.828  1.00  0.00     0.050 C 
HETATM    2  C   UNL     1       5.370  28.503  55.701  1.00  0.00    -0.033 A 
HETATM    3  C   UNL     1       6.104  27.316  55.496  1.00  0.00     0.055 A 
HETATM    4  C   UNL     1       7.175  27.056  56.361  1.00  0.00     0.033 A 
HETATM    5  C   UNL     1       7.503  27.913  57.419  1.00  0.00     0.032 A 
HETATM    6  C   UNL     1       6.746  29.052  57.658  1.00  0.00     0.035 A 
HETATM    7  C   UNL     1       5.692  29.348  56.784  1.00  0.00     0.038 A 
ENDROOT
BRANCH   6   8
HETATM    8  N   UNL     1       6.942  29.914  58.760  1.00  0.00    -0.323 N 
HETATM    9  C   UNL     1       8.045  30.715  59.006  1.00  0.00     0.256 C 
HETATM   10  O   UNL     1       9.007  30.882  58.267  1.00  0.00    -0.267 OA
HETATM   11  H   UNL     1       6.232  29.856  59.476  1.00  0.00     0.169 HD
BRANCH   9  12
HETATM   12  C   UNL     1       8.065  31.400  60.333  1.00  0.00     0.034 A 
HETATM   13  C   UNL     1       7.049  32.275  60.746  1.00  0.00     0.046 A 
HETATM   14  C   UNL     1       7.094  32.868  62.012  1.00  0.00     0.035 A 
HETATM   15  C   UNL     1       8.187  32.607  62.848  1.00  0.00     0.029 A 
HETATM   16  C   UNL     1       9.215  31.759  62.435  1.00  0.00     0.003 A 
HETATM   17  C   UNL     1       9.153  31.156  61.181  1.00  0.00     0.017 A 
BRANCH  14  18
HETATM   18  N   UNL     1       6.096  33.737  62.508  1.00  0.00    -0.324 N 
HETATM   19  C   UNL     1       5.096  33.417  63.398  1.00  0.00     0.245 C 
HETATM   20  O   UNL     1       4.900  32.343  63.954  1.00  0.00    -0.268 OA
HETATM   21  H   UNL     1       6.149  34.688  62.168  1.00  0.00     0.169 HD
BRANCH  19  22
HETATM   22  C   UNL     1       4.197  34.572  63.689  1.00  0.00     0.072 C 
HETATM   23  C   UNL     1       4.200  35.615  62.842  1.00  0.00     0.006 C 
BRANCH  23  24
HETATM   24  C   UNL     1       3.332  36.821  62.954  1.00  0.00     0.261 C 
BRANCH  24  25
HETATM   25  N   UNL     1       3.808  37.952  62.078  1.00  0.00    -0.076 N 
HETATM   26  H   UNL     1       3.099  38.695  62.142  1.00  0.00     0.279 HD
HETATM   27  C   UNL     1       5.107  38.555  62.539  1.00  0.00     0.269 C 
HETATM   28  C   UNL     1       3.873  37.546  60.633  1.00  0.00     0.269 C 
ENDBRANCH  24  25
ENDBRANCH  23  24
ENDBRANCH  19  22
ENDBRANCH  14  18
ENDBRANCH   9  12
ENDBRANCH   6   8
BRANCH   3  29
HETATM   29  N   UNL     1       5.705  26.389  54.524  1.00  0.00    -0.188 N 
HETATM   30  H   UNL     1       4.720  26.238  54.382  1.00  0.00     0.184 HD
BRANCH  29  31
HETATM   31  C   UNL     1       6.431  25.489  53.745  1.00  0.00     0.727 A 
HETATM   32  N   UNL     1       6.789  24.348  54.357  1.00  0.00    -0.062 NA
HETATM   33  C   UNL     1       7.528  23.450  53.662  1.00  0.00     0.089 A 
HETATM   34  C   UNL     1       7.935  23.698  52.366  1.00  0.00     0.053 A 
HETATM   35  C   UNL     1       7.534  24.891  51.826  1.00  0.00     0.139 A 
HETATM   36  N   UNL     1       6.788  25.786  52.489  1.00  0.00    -0.075 NA
BRANCH  33  37
HETATM   37  C   UNL     1       7.878  22.212  54.382  1.00  0.00     0.011 A 
HETATM   38  C   UNL     1       8.313  21.072  53.701  1.00  0.00     0.130 A 
HETATM   39  N   UNL     1       8.637  19.888  54.281  1.00  0.00    -0.272 NA
HETATM   40  C   UNL     1       8.537  19.825  55.623  1.00  0.00     0.116 A 
HETATM   41  C   UNL     1       8.130  20.889  56.408  1.00  0.00     0.020 A 
HETATM   42  C   UNL     1       7.801  22.089  55.778  1.00  0.00     0.017 A 
ENDBRANCH  33  37
ENDBRANCH  29  31
ENDBRANCH   3  29
TORSDOF 9
ENDMDL
MODEL 7
REMARK VINA RESULT:     -10.0      3.478     13.551
REMARK  9 active torsions:
REMARK  status: ('A' for Active; 'I' for Inactive)
REMARK    1  A    between atoms: C_3  and  N_4 
REMARK    2  A    between atoms: N_4  and  C_5 
REMARK    3  A    between atoms: C_7  and  C_8 
REMARK    4  A    between atoms: C_19  and  N_20 
REMARK       I    between atoms: N_20  and  C_21 
REMARK    5  A    between atoms: C_21  and  C_22 
REMARK    6  A    between atoms: C_24  and  N_25 
REMARK       I    between atoms: N_25  and  C_26 
REMARK    7  A    between atoms: C_26  and  C_27 
REMARK    8  A    between atoms: C_28  and  C_29 
REMARK    9  A    between atoms: C_29  and  N_30 
ROOT
HETATM    1  C   UNL     1       5.040  29.509  54.829  1.00  0.00     0.050 C 
HETATM    2  C   UNL     1       6.325  29.365  55.602  1.00  0.00    -0.033 A 
HETATM    3  C   UNL     1       7.414  28.628  55.093  1.00  0.00     0.055 A 
HETATM    4  C   UNL     1       8.568  28.541  55.884  1.00  0.00     0.033 A 
HETATM    5  C   UNL     1       8.646  29.129  57.152  1.00  0.00     0.032 A 
HETATM    6  C   UNL     1       7.555  29.805  57.680  1.00  0.00     0.035 A 
HETATM    7  C   UNL     1       6.405  29.933  56.891  1.00  0.00     0.038 A 
ENDROOT
BRANCH   6   8
HETATM    8  N   UNL     1       7.513  30.338  58.987  1.00  0.00    -0.323 N 
HETATM    9  C   UNL     1       7.147  31.623  59.353  1.00  0.00     0.256 C 
HETATM   10  O   UNL     1       6.712  32.498  58.614  1.00  0.00    -0.267 OA
HETATM   11  H   UNL     1       7.878  29.729  59.706  1.00  0.00     0.169 HD
BRANCH   9  12
HETATM   12  C   UNL     1       7.354  31.971  60.791  1.00  0.00     0.034 A 
HETATM   13  C   UNL     1       6.733  33.073  61.397  1.00  0.00     0.046 A 
HETATM   14  C   UNL     1       6.932  33.341  62.756  1.00  0.00     0.035 A 
HETATM   15  C   UNL     1       7.788  32.515  63.495  1.00  0.00     0.029 A 
HETATM   16  C   UNL     1       8.429  31.432  62.893  1.00  0.00     0.003 A 
HETATM   17  C   UNL     1       8.211  31.160  61.545  1.00  0.00     0.017 A 
BRANCH  14  18
HETATM   18  N   UNL     1       6.320  34.414  63.442  1.00  0.00    -0.324 N 
HETATM   19  C   UNL     1       5.138  34.374  64.145  1.00  0.00     0.245 C 
HETATM   20  O   UNL     1       4.413  33.406  64.342  1.00  0.00    -0.268 OA
HETATM   21  H   UNL     1       6.828  35.288  63.407  1.00  0.00     0.169 HD
BRANCH  19  22
HETATM   22  C   UNL     1       4.772  35.698  64.727  1.00  0.00     0.072 C 
HETATM   23  C   UNL     1       5.370  36.799  64.240  1.00  0.00     0.006 C 
BRANCH  23  24
HETATM   24  C   UNL     1       5.086  38.197  64.669  1.00  0.00     0.261 C 
BRANCH  24  25
HETATM   25  N   UNL     1       6.336  39.037  64.745  1.00  0.00    -0.076 N 
HETATM   26  H   UNL     1       7.043  38.473  65.236  1.00  0.00     0.279 HD
HETATM   27  C   UNL     1       6.909  39.372  63.396  1.00  0.00     0.269 C 
HETATM   28  C   UNL     1       6.125  40.273  65.575  1.00  0.00     0.269 C 
ENDBRANCH  24  25
ENDBRANCH  23  24
ENDBRANCH  19  22
ENDBRANCH  14  18
ENDBRANCH   9  12
ENDBRANCH   6   8
BRANCH   3  29
HETATM   29  N   UNL     1       7.300  27.928  53.883  1.00  0.00    -0.188 N 
HETATM   30  H   UNL     1       7.704  28.335  53.055  1.00  0.00     0.184 HD
BRANCH  29  31
HETATM   31  C   UNL     1       6.601  26.772  53.542  1.00  0.00     0.727 A 
HETATM   32  N   UNL     1       7.197  25.614  53.870  1.00  0.00    -0.062 NA
HETATM   33  C   UNL     1       6.582  24.455  53.530  1.00  0.00     0.089 A 
HETATM   34  C   UNL     1       5.386  24.448  52.840  1.00  0.00     0.053 A 
HETATM   35  C   UNL     1       4.856  25.674  52.538  1.00  0.00     0.139 A 
HETATM   36  N   UNL     1       5.439  26.832  52.878  1.00  0.00    -0.075 NA
BRANCH  33  37
HETATM   37  C   UNL     1       7.278  23.218  53.928  1.00  0.00     0.011 A 
HETATM   38  C   UNL     1       7.369  22.834  55.269  1.00  0.00     0.130 A 
HETATM   39  N   UNL     1       8.005  21.724  55.724  1.00  0.00    -0.272 NA
HETATM   40  C   UNL     1       8.581  20.934  54.797  1.00  0.00     0.116 A 
HETATM   41  C   UNL     1       8.549  21.201  53.441  1.00  0.00     0.020 A 
HETATM   42  C   UNL     1       7.890  22.352  53.008  1.00  0.00     0.017 A 
ENDBRANCH  33  37
ENDBRANCH  29  31
ENDBRANCH   3  29
TORSDOF 9
ENDMDL
MODEL 8
REMARK VINA RESULT:      -9.9      2.340     13.515
REMARK  9 active torsions:
REMARK  status: ('A' for Active; 'I' for Inactive)
REMARK    1  A    between atoms: C_3  and  N_4 
REMARK    2  A    between atoms: N_4  and  C_5 
REMARK    3  A    between atoms: C_7  and  C_8 
REMARK    4  A    between atoms: C_19  and  N_20 
REMARK       I    between atoms: N_20  and  C_21 
REMARK    5  A    between atoms: C_21  and  C_22 
REMARK    6  A    between atoms: C_24  and  N_25 
REMARK       I    between atoms: N_25  and  C_26 
REMARK    7  A    between atoms: C_26  and  C_27 
REMARK    8  A    between atoms: C_28  and  C_29 
REMARK    9  A    between atoms: C_29  and  N_30 
ROOT
HETATM    1  C   UNL     1       6.004  30.611  56.984  1.00  0.00     0.050 C 
HETATM    2  C   UNL     1       7.026  30.786  58.077  1.00  0.00    -0.033 A 
HETATM    3  C   UNL     1       8.244  30.076  58.070  1.00  0.00     0.055 A 
HETATM    4  C   UNL     1       9.132  30.296  59.130  1.00  0.00     0.033 A 
HETATM    5  C   UNL     1       8.829  31.162  60.188  1.00  0.00     0.032 A 
HETATM    6  C   UNL     1       7.606  31.818  60.227  1.00  0.00     0.035 A 
HETATM    7  C   UNL     1       6.718  31.638  59.159  1.00  0.00     0.038 A 
ENDROOT
BRANCH   6   8
HETATM    8  N   UNL     1       7.177  32.626  61.303  1.00  0.00    -0.323 N 
HETATM    9  C   UNL     1       7.424  32.421  62.651  1.00  0.00     0.256 C 
HETATM   10  O   UNL     1       8.132  31.549  63.140  1.00  0.00    -0.267 OA
HETATM   11  H   UNL     1       6.550  33.376  61.048  1.00  0.00     0.169 HD
BRANCH   9  12
HETATM   12  C   UNL     1       6.709  33.338  63.588  1.00  0.00     0.034 A 
HETATM   13  C   UNL     1       6.946  33.339  64.970  1.00  0.00     0.046 A 
HETATM   14  C   UNL     1       6.276  34.240  65.804  1.00  0.00     0.035 A 
HETATM   15  C   UNL     1       5.336  35.115  65.246  1.00  0.00     0.029 A 
HETATM   16  C   UNL     1       5.075  35.103  63.876  1.00  0.00     0.003 A 
HETATM   17  C   UNL     1       5.761  34.217  63.049  1.00  0.00     0.017 A 
BRANCH  14  18
HETATM   18  N   UNL     1       6.482  34.320  67.201  1.00  0.00    -0.324 N 
HETATM   19  C   UNL     1       5.538  34.132  68.184  1.00  0.00     0.245 C 
HETATM   20  O   UNL     1       4.360  33.827  68.046  1.00  0.00    -0.268 OA
HETATM   21  H   UNL     1       7.432  34.528  67.480  1.00  0.00     0.169 HD
BRANCH  19  22
HETATM   22  C   UNL     1       6.096  34.316  69.556  1.00  0.00     0.072 C 
HETATM   23  C   UNL     1       7.168  33.589  69.914  1.00  0.00     0.006 C 
BRANCH  23  24
HETATM   24  C   UNL     1       7.878  33.684  71.220  1.00  0.00     0.261 C 
BRANCH  24  25
HETATM   25  N   UNL     1       7.395  32.655  72.211  1.00  0.00    -0.076 N 
HETATM   26  H   UNL     1       6.478  32.977  72.549  1.00  0.00     0.279 HD
HETATM   27  C   UNL     1       7.178  31.298  71.600  1.00  0.00     0.269 C 
HETATM   28  C   UNL     1       8.291  32.579  73.415  1.00  0.00     0.269 C 
ENDBRANCH  24  25
ENDBRANCH  23  24
ENDBRANCH  19  22
ENDBRANCH  14  18
ENDBRANCH   9  12
ENDBRANCH   6   8
BRANCH   3  29
HETATM   29  N   UNL     1       8.502  29.111  57.086  1.00  0.00    -0.188 N 
HETATM   30  H   UNL     1       9.039  29.383  56.279  1.00  0.00     0.184 HD
BRANCH  29  31
HETATM   31  C   UNL     1       8.045  27.804  56.923  1.00  0.00     0.727 A 
HETATM   32  N   UNL     1       7.475  27.532  55.738  1.00  0.00    -0.062 NA
HETATM   33  C   UNL     1       6.977  26.288  55.534  1.00  0.00     0.089 A 
HETATM   34  C   UNL     1       7.023  25.321  56.520  1.00  0.00     0.053 A 
HETATM   35  C   UNL     1       7.613  25.690  57.699  1.00  0.00     0.139 A 
HETATM   36  N   UNL     1       8.126  26.910  57.917  1.00  0.00    -0.075 NA
BRANCH  33  37
HETATM   37  C   UNL     1       6.376  26.045  54.210  1.00  0.00     0.011 A 
HETATM   38  C   UNL     1       6.741  26.804  53.095  1.00  0.00     0.130 A 
HETATM   39  N   UNL     1       6.226  26.661  51.847  1.00  0.00    -0.272 NA
HETATM   40  C   UNL     1       5.297  25.700  51.683  1.00  0.00     0.116 A 
HETATM   41  C   UNL     1       4.862  24.877  52.706  1.00  0.00     0.020 A 
HETATM   42  C   UNL     1       5.410  25.054  53.977  1.00  0.00     0.017 A 
ENDBRANCH  33  37
ENDBRANCH  29  31
ENDBRANCH   3  29
TORSDOF 9
ENDMDL
MODEL 9
REMARK VINA RESULT:      -9.9      1.776      2.471
REMARK  9 active torsions:
REMARK  status: ('A' for Active; 'I' for Inactive)
REMARK    1  A    between atoms: C_3  and  N_4 
REMARK    2  A    between atoms: N_4  and  C_5 
REMARK    3  A    between atoms: C_7  and  C_8 
REMARK    4  A    between atoms: C_19  and  N_20 
REMARK       I    between atoms: N_20  and  C_21 
REMARK    5  A    between atoms: C_21  and  C_22 
REMARK    6  A    between atoms: C_24  and  N_25 
REMARK       I    between atoms: N_25  and  C_26 
REMARK    7  A    between atoms: C_26  and  C_27 
REMARK    8  A    between atoms: C_28  and  C_29 
REMARK    9  A    between atoms: C_29  and  N_30 
ROOT
HETATM    1  C   UNL     1       7.980  32.807  63.965  1.00  0.00     0.050 C 
HETATM    2  C   UNL     1       7.045  33.075  62.814  1.00  0.00    -0.033 A 
HETATM    3  C   UNL     1       6.156  34.170  62.824  1.00  0.00     0.055 A 
HETATM    4  C   UNL     1       5.318  34.338  61.715  1.00  0.00     0.033 A 
HETATM    5  C   UNL     1       5.321  33.444  60.638  1.00  0.00     0.032 A 
HETATM    6  C   UNL     1       6.153  32.333  60.652  1.00  0.00     0.035 A 
HETATM    7  C   UNL     1       7.024  32.165  61.736  1.00  0.00     0.038 A 
ENDROOT
BRANCH   6   8
HETATM    8  N   UNL     1       6.146  31.328  59.659  1.00  0.00    -0.323 N 
HETATM    9  C   UNL     1       7.104  31.116  58.681  1.00  0.00     0.256 C 
HETATM   10  O   UNL     1       8.169  31.708  58.559  1.00  0.00    -0.267 OA
HETATM   11  H   UNL     1       5.302  30.775  59.620  1.00  0.00     0.169 HD
BRANCH   9  12
HETATM   12  C   UNL     1       6.764  30.086  57.654  1.00  0.00     0.034 A 
HETATM   13  C   UNL     1       7.497  28.900  57.503  1.00  0.00     0.046 A 
HETATM   14  C   UNL     1       7.121  27.950  56.547  1.00  0.00     0.035 A 
HETATM   15  C   UNL     1       6.024  28.215  55.717  1.00  0.00     0.029 A 
HETATM   16  C   UNL     1       5.305  29.404  55.844  1.00  0.00     0.003 A 
HETATM   17  C   UNL     1       5.674  30.336  56.810  1.00  0.00     0.017 A 
BRANCH  14  18
HETATM   18  N   UNL     1       7.792  26.720  56.356  1.00  0.00    -0.324 N 
HETATM   19  C   UNL     1       8.111  25.798  57.325  1.00  0.00     0.245 C 
HETATM   20  O   UNL     1       7.849  25.842  58.521  1.00  0.00    -0.268 OA
HETATM   21  H   UNL     1       8.043  26.516  55.397  1.00  0.00     0.169 HD
BRANCH  19  22
HETATM   22  C   UNL     1       8.843  24.619  56.775  1.00  0.00     0.072 C 
HETATM   23  C   UNL     1       8.212  23.830  55.890  1.00  0.00     0.006 C 
BRANCH  23  24
HETATM   24  C   UNL     1       8.809  22.648  55.208  1.00  0.00     0.261 C 
BRANCH  24  25
HETATM   25  N   UNL     1       7.804  21.546  54.986  1.00  0.00    -0.076 N 
HETATM   26  H   UNL     1       6.878  21.992  54.951  1.00  0.00     0.279 HD
HETATM   27  C   UNL     1       7.988  20.828  53.678  1.00  0.00     0.269 C 
HETATM   28  C   UNL     1       7.771  20.584  56.141  1.00  0.00     0.269 C 
ENDBRANCH  24  25
ENDBRANCH  23  24
ENDBRANCH  19  22
ENDBRANCH  14  18
ENDBRANCH   9  12
ENDBRANCH   6   8
BRANCH   3  29
HETATM   29  N   UNL     1       6.054  34.996  63.953  1.00  0.00    -0.188 N 
HETATM   30  H   UNL     1       6.658  35.799  64.015  1.00  0.00     0.184 HD
BRANCH  29  31
HETATM   31  C   UNL     1       5.327  34.867  65.135  1.00  0.00     0.727 A 
HETATM   32  N   UNL     1       6.055  34.659  66.244  1.00  0.00    -0.062 NA
HETATM   33  C   UNL     1       5.403  34.489  67.420  1.00  0.00     0.089 A 
HETATM   34  C   UNL     1       4.023  34.500  67.488  1.00  0.00     0.053 A 
HETATM   35  C   UNL     1       3.363  34.708  66.307  1.00  0.00     0.139 A 
HETATM   36  N   UNL     1       3.988  34.895  65.136  1.00  0.00    -0.075 NA
BRANCH  33  37
HETATM   37  C   UNL     1       6.256  34.277  68.603  1.00  0.00     0.011 A 
HETATM   38  C   UNL     1       5.849  33.451  69.655  1.00  0.00     0.130 A 
HETATM   39  N   UNL     1       6.561  33.215  70.786  1.00  0.00    -0.272 NA
HETATM   40  C   UNL     1       7.758  33.826  70.886  1.00  0.00     0.116 A 
HETATM   41  C   UNL     1       8.274  34.656  69.907  1.00  0.00     0.020 A 
HETATM   42  C   UNL     1       7.514  34.879  68.759  1.00  0.00     0.017 A 
ENDBRANCH  33  37
ENDBRANCH  29  31
ENDBRANCH   3  29
TORSDOF 9
ENDMDL
MODEL 10
REMARK VINA RESULT:      -9.8      2.827     13.187
REMARK  9 active torsions:
REMARK  status: ('A' for Active; 'I' for Inactive)
REMARK    1  A    between atoms: C_3  and  N_4 
REMARK    2  A    between atoms: N_4  and  C_5 
REMARK    3  A    between atoms: C_7  and  C_8 
REMARK    4  A    between atoms: C_19  and  N_20 
REMARK       I    between atoms: N_20  and  C_21 
REMARK    5  A    between atoms: C_21  and  C_22 
REMARK    6  A    between atoms: C_24  and  N_25 
REMARK       I    between atoms: N_25  and  C_26 
REMARK    7  A    between atoms: C_26  and  C_27 
REMARK    8  A    between atoms: C_28  and  C_29 
REMARK    9  A    between atoms: C_29  and  N_30 
ROOT
HETATM    1  C   UNL     1       8.966  30.527  59.418  1.00  0.00     0.050 C 
HETATM    2  C   UNL     1       7.595  31.143  59.524  1.00  0.00    -0.033 A 
HETATM    3  C   UNL     1       6.669  31.070  58.463  1.00  0.00     0.055 A 
HETATM    4  C   UNL     1       5.420  31.677  58.646  1.00  0.00     0.033 A 
HETATM    5  C   UNL     1       5.093  32.366  59.820  1.00  0.00     0.032 A 
HETATM    6  C   UNL     1       6.023  32.489  60.843  1.00  0.00     0.035 A 
HETATM    7  C   UNL     1       7.266  31.860  60.693  1.00  0.00     0.038 A 
ENDROOT
BRANCH   6   8
HETATM    8  N   UNL     1       5.814  33.252  62.014  1.00  0.00    -0.323 N 
HETATM    9  C   UNL     1       5.251  32.817  63.202  1.00  0.00     0.256 C 
HETATM   10  O   UNL     1       4.915  31.671  63.477  1.00  0.00    -0.267 OA
HETATM   11  H   UNL     1       6.020  34.236  61.922  1.00  0.00     0.169 HD
BRANCH   9  12
HETATM   12  C   UNL     1       4.995  33.876  64.223  1.00  0.00     0.034 A 
HETATM   13  C   UNL     1       5.581  33.854  65.498  1.00  0.00     0.046 A 
HETATM   14  C   UNL     1       5.336  34.886  66.410  1.00  0.00     0.035 A 
HETATM   15  C   UNL     1       4.468  35.924  66.048  1.00  0.00     0.029 A 
HETATM   16  C   UNL     1       3.861  35.940  64.792  1.00  0.00     0.003 A 
HETATM   17  C   UNL     1       4.125  34.919  63.882  1.00  0.00     0.017 A 
BRANCH  14  18
HETATM   18  N   UNL     1       5.912  34.947  67.699  1.00  0.00    -0.324 N 
HETATM   19  C   UNL     1       5.498  34.263  68.818  1.00  0.00     0.245 C 
HETATM   20  O   UNL     1       4.586  33.450  68.908  1.00  0.00    -0.268 OA
HETATM   21  H   UNL     1       6.716  35.556  67.779  1.00  0.00     0.169 HD
BRANCH  19  22
HETATM   22  C   UNL     1       6.320  34.582  70.022  1.00  0.00     0.072 C 
HETATM   23  C   UNL     1       7.419  33.847  70.261  1.00  0.00     0.006 C 
BRANCH  23  24
HETATM   24  C   UNL     1       8.375  34.062  71.383  1.00  0.00     0.261 C 
BRANCH  24  25
HETATM   25  N   UNL     1       8.334  32.943  72.393  1.00  0.00    -0.076 N 
HETATM   26  H   UNL     1       9.281  32.544  72.432  1.00  0.00     0.279 HD
HETATM   27  C   UNL     1       8.005  33.410  73.784  1.00  0.00     0.269 C 
HETATM   28  C   UNL     1       7.420  31.833  71.955  1.00  0.00     0.269 C 
ENDBRANCH  24  25
ENDBRANCH  23  24
ENDBRANCH  19  22
ENDBRANCH  14  18
ENDBRANCH   9  12
ENDBRANCH   6   8
BRANCH   3  29
HETATM   29  N   UNL     1       7.032  30.496  57.236  1.00  0.00    -0.188 N 
HETATM   30  H   UNL     1       7.748  30.946  56.690  1.00  0.00     0.184 HD
BRANCH  29  31
HETATM   31  C   UNL     1       6.495  29.432  56.513  1.00  0.00     0.727 A 
HETATM   32  N   UNL     1       7.059  28.234  56.736  1.00  0.00    -0.062 NA
HETATM   33  C   UNL     1       6.604  27.168  56.035  1.00  0.00     0.089 A 
HETATM   34  C   UNL     1       5.603  27.298  55.092  1.00  0.00     0.053 A 
HETATM   35  C   UNL     1       5.093  28.558  54.923  1.00  0.00     0.139 A 
HETATM   36  N   UNL     1       5.518  29.623  55.617  1.00  0.00    -0.075 NA
BRANCH  33  37
HETATM   37  C   UNL     1       7.253  25.878  56.333  1.00  0.00     0.011 A 
HETATM   38  C   UNL     1       6.840  24.696  55.713  1.00  0.00     0.130 A 
HETATM   39  N   UNL     1       7.368  23.466  55.941  1.00  0.00    -0.272 NA
HETATM   40  C   UNL     1       8.377  23.397  56.832  1.00  0.00     0.116 A 
HETATM   41  C   UNL     1       8.881  24.498  57.500  1.00  0.00     0.020 A 
HETATM   42  C   UNL     1       8.312  25.745  57.244  1.00  0.00     0.017 A 
ENDBRANCH  33  37
ENDBRANCH  29  31
ENDBRANCH   3  29
TORSDOF 9
ENDMDL
