MODEL 1
REMARK VINA RESULT:      -9.8      0.000      0.000
REMARK  3 active torsions:
REMARK  status: ('A' for Active; 'I' for Inactive)
REMARK    1  A    between atoms: C_5  and  N_6 
REMARK    2  A    between atoms: C_10  and  C_11 
REMARK    3  A    between atoms: C_21  and  O_22 
ROOT
HETATM    1  N   UNL     1       8.596  30.862  58.793  1.00  0.00    -0.231 N 
HETATM    2  N   UNL     1       9.919  30.786  58.380  1.00  0.00    -0.257 N 
HETATM    3  C   UNL     1       9.955  30.025  57.225  1.00  0.00     0.275 C 
HETATM    4  O   UNL     1      10.884  29.919  56.444  1.00  0.00    -0.266 OA
HETATM    5  C   UNL     1       8.611  29.393  57.065  1.00  0.00     0.087 C 
HETATM    6  C   UNL     1       7.867  29.977  58.022  1.00  0.00     0.178 C 
HETATM    7  H   UNL     1      10.563  31.551  58.514  1.00  0.00     0.191 HD
ENDROOT
BRANCH   5   8
HETATM    8  C   UNL     1       8.250  28.498  56.003  1.00  0.00     0.035 C 
HETATM    9  C   UNL     1       7.978  27.194  56.131  1.00  0.00    -0.005 A 
HETATM   10  C   UNL     1       7.519  26.265  55.108  1.00  0.00     0.004 A 
HETATM   11  C   UNL     1       8.059  26.356  57.359  1.00  0.00     0.129 A 
HETATM   12  C   UNL     1       7.352  25.049  55.792  1.00  0.00     0.067 A 
HETATM   13  C   UNL     1       7.225  26.389  53.761  1.00  0.00     0.014 A 
HETATM   14  C   UNL     1       6.887  23.927  55.133  1.00  0.00     0.032 A 
HETATM   15  N   UNL     1       7.689  25.122  57.165  1.00  0.00    -0.259 NA
HETATM   16  C   UNL     1       6.584  24.035  53.773  1.00  0.00     0.002 A 
HETATM   17  C   UNL     1       6.751  25.255  53.093  1.00  0.00     0.001 A 
ENDBRANCH   5   8
BRANCH   6  18
HETATM   18  O   UNL     1       6.517  29.811  58.192  1.00  0.00    -0.344 OA
HETATM   19  H   UNL     1       6.051  30.494  57.681  1.00  0.00     0.219 HD
ENDBRANCH   6  18
BRANCH   1  20
HETATM   20  C   UNL     1       8.346  31.354  60.097  1.00  0.00     0.059 A 
HETATM   21  C   UNL     1       8.951  30.766  61.222  1.00  0.00     0.032 A 
HETATM   22  C   UNL     1       8.753  31.272  62.514  1.00  0.00     0.009 A 
HETATM   23  C   UNL     1       7.932  32.382  62.721  1.00  0.00    -0.062 A 
HETATM   24  C   UNL     1       7.743  32.963  64.090  1.00  0.00     0.048 C 
HETATM   25  C   UNL     1       7.319  32.978  61.617  1.00  0.00     0.009 A 
HETATM   26  C   UNL     1       7.525  32.470  60.328  1.00  0.00     0.032 A 
ENDBRANCH   1  20
TORSDOF 3
ENDMDL
MODEL 2
REMARK VINA RESULT:      -9.6      2.095      8.604
REMARK  3 active torsions:
REMARK  status: ('A' for Active; 'I' for Inactive)
REMARK    1  A    between atoms: C_5  and  N_6 
REMARK    2  A    between atoms: C_10  and  C_11 
REMARK    3  A    between atoms: C_21  and  O_22 
ROOT
HETATM    1  N   UNL     1       7.423  25.851  55.054  1.00  0.00    -0.231 N 
HETATM    2  N   UNL     1       6.427  26.637  54.491  1.00  0.00    -0.257 N 
HETATM    3  C   UNL     1       6.303  27.776  55.267  1.00  0.00     0.275 C 
HETATM    4  O   UNL     1       5.706  28.799  54.980  1.00  0.00    -0.266 OA
HETATM    5  C   UNL     1       7.093  27.554  56.515  1.00  0.00     0.087 C 
HETATM    6  C   UNL     1       7.747  26.401  56.279  1.00  0.00     0.178 C 
HETATM    7  H   UNL     1       6.277  26.673  53.494  1.00  0.00     0.191 HD
ENDROOT
BRANCH   5   8
HETATM    8  C   UNL     1       7.192  28.491  57.597  1.00  0.00     0.035 C 
HETATM    9  C   UNL     1       8.223  29.309  57.837  1.00  0.00    -0.005 A 
HETATM   10  C   UNL     1       8.336  30.340  58.861  1.00  0.00     0.004 A 
HETATM   11  C   UNL     1       9.520  29.391  57.109  1.00  0.00     0.129 A 
HETATM   12  C   UNL     1       9.598  30.917  58.635  1.00  0.00     0.067 A 
HETATM   13  C   UNL     1       7.493  30.799  59.857  1.00  0.00     0.014 A 
HETATM   14  C   UNL     1      10.040  31.971  59.412  1.00  0.00     0.032 A 
HETATM   15  N   UNL     1      10.308  30.324  57.563  1.00  0.00    -0.259 NA
HETATM   16  C   UNL     1       9.199  32.448  60.422  1.00  0.00     0.002 A 
HETATM   17  C   UNL     1       7.938  31.867  60.642  1.00  0.00     0.001 A 
ENDBRANCH   5   8
BRANCH   6  18
HETATM   18  O   UNL     1       8.701  25.847  57.093  1.00  0.00    -0.344 OA
HETATM   19  H   UNL     1       8.837  26.430  57.858  1.00  0.00     0.219 HD
ENDBRANCH   6  18
BRANCH   1  20
HETATM   20  C   UNL     1       7.537  24.515  54.596  1.00  0.00     0.059 A 
HETATM   21  C   UNL     1       7.801  24.233  53.244  1.00  0.00     0.032 A 
HETATM   22  C   UNL     1       7.967  22.918  52.786  1.00  0.00     0.009 A 
HETATM   23  C   UNL     1       7.863  21.842  53.669  1.00  0.00    -0.062 A 
HETATM   24  C   UNL     1       8.081  20.434  53.204  1.00  0.00     0.048 C 
HETATM   25  C   UNL     1       7.598  22.102  55.014  1.00  0.00     0.009 A 
HETATM   26  C   UNL     1       7.438  23.418  55.467  1.00  0.00     0.032 A 
ENDBRANCH   1  20
TORSDOF 3
ENDMDL
MODEL 3
REMARK VINA RESULT:      -9.3      4.392      5.826
REMARK  3 active torsions:
REMARK  status: ('A' for Active; 'I' for Inactive)
REMARK    1  A    between atoms: C_5  and  N_6 
REMARK    2  A    between atoms: C_10  and  C_11 
REMARK    3  A    between atoms: C_21  and  O_22 
ROOT
HETATM    1  N   UNL     1       5.691  28.056  55.752  1.00  0.00    -0.231 N 
HETATM    2  N   UNL     1       6.644  28.209  56.750  1.00  0.00    -0.257 N 
HETATM    3  C   UNL     1       7.265  26.985  56.928  1.00  0.00     0.275 C 
HETATM    4  O   UNL     1       8.294  26.766  57.542  1.00  0.00    -0.266 OA
HETATM    5  C   UNL     1       6.474  25.969  56.171  1.00  0.00     0.087 C 
HETATM    6  C   UNL     1       5.584  26.705  55.480  1.00  0.00     0.178 C 
HETATM    7  H   UNL     1       7.156  29.070  56.870  1.00  0.00     0.191 HD
ENDROOT
BRANCH   5   8
HETATM    8  C   UNL     1       6.772  24.566  56.129  1.00  0.00     0.035 C 
HETATM    9  C   UNL     1       7.282  23.900  55.086  1.00  0.00    -0.005 A 
HETATM   10  C   UNL     1       7.688  22.503  55.020  1.00  0.00     0.004 A 
HETATM   11  C   UNL     1       7.581  24.420  53.723  1.00  0.00     0.129 A 
HETATM   12  C   UNL     1       8.187  22.348  53.716  1.00  0.00     0.067 A 
HETATM   13  C   UNL     1       7.694  21.462  55.932  1.00  0.00     0.014 A 
HETATM   14  C   UNL     1       8.701  21.134  53.298  1.00  0.00     0.032 A 
HETATM   15  N   UNL     1       8.112  23.527  52.936  1.00  0.00    -0.259 NA
HETATM   16  C   UNL     1       8.716  20.073  54.206  1.00  0.00     0.002 A 
HETATM   17  C   UNL     1       8.217  20.235  55.511  1.00  0.00     0.001 A 
ENDBRANCH   5   8
BRANCH   6  18
HETATM   18  O   UNL     1       4.713  26.224  54.537  1.00  0.00    -0.344 OA
HETATM   19  H   UNL     1       5.013  26.511  53.659  1.00  0.00     0.219 HD
ENDBRANCH   6  18
BRANCH   1  20
HETATM   20  C   UNL     1       4.743  29.097  55.589  1.00  0.00     0.059 A 
HETATM   21  C   UNL     1       4.063  29.637  56.695  1.00  0.00     0.032 A 
HETATM   22  C   UNL     1       3.160  30.700  56.555  1.00  0.00     0.009 A 
HETATM   23  C   UNL     1       2.902  31.250  55.299  1.00  0.00    -0.062 A 
HETATM   24  C   UNL     1       1.973  32.415  55.137  1.00  0.00     0.048 C 
HETATM   25  C   UNL     1       3.565  30.724  54.188  1.00  0.00     0.009 A 
HETATM   26  C   UNL     1       4.470  29.665  54.335  1.00  0.00     0.032 A 
ENDBRANCH   1  20
TORSDOF 3
ENDMDL
MODEL 4
REMARK VINA RESULT:      -9.2      3.706      5.850
REMARK  3 active torsions:
REMARK  status: ('A' for Active; 'I' for Inactive)
REMARK    1  A    between atoms: C_5  and  N_6 
REMARK    2  A    between atoms: C_10  and  C_11 
REMARK    3  A    between atoms: C_21  and  O_22 
ROOT
HETATM    1  N   UNL     1       5.558  32.934  62.692  1.00  0.00    -0.231 N 
HETATM    2  N   UNL     1       5.063  33.875  61.799  1.00  0.00    -0.257 N 
HETATM    3  C   UNL     1       5.314  33.411  60.520  1.00  0.00     0.275 C 
HETATM    4  O   UNL     1       4.840  33.833  59.479  1.00  0.00    -0.266 OA
HETATM    5  C   UNL     1       6.236  32.243  60.641  1.00  0.00     0.087 C 
HETATM    6  C   UNL     1       6.294  32.017  61.967  1.00  0.00     0.178 C 
HETATM    7  H   UNL     1       4.234  34.414  61.999  1.00  0.00     0.191 HD
ENDROOT
BRANCH   5   8
HETATM    8  C   UNL     1       6.763  31.498  59.533  1.00  0.00     0.035 C 
HETATM    9  C   UNL     1       8.041  31.476  59.137  1.00  0.00    -0.005 A 
HETATM   10  C   UNL     1       8.643  30.670  58.083  1.00  0.00     0.004 A 
HETATM   11  C   UNL     1       9.185  32.257  59.682  1.00  0.00     0.129 A 
HETATM   12  C   UNL     1      10.007  31.009  58.123  1.00  0.00     0.067 A 
HETATM   13  C   UNL     1       8.153  29.726  57.199  1.00  0.00     0.014 A 
HETATM   14  C   UNL     1      10.909  30.404  57.269  1.00  0.00     0.032 A 
HETATM   15  N   UNL     1      10.320  31.981  59.104  1.00  0.00    -0.259 NA
HETATM   16  C   UNL     1      10.430  29.447  56.370  1.00  0.00     0.002 A 
HETATM   17  C   UNL     1       9.065  29.111  56.335  1.00  0.00     0.001 A 
ENDBRANCH   5   8
BRANCH   6  18
HETATM   18  O   UNL     1       6.924  30.957  62.567  1.00  0.00    -0.344 OA
HETATM   19  H   UNL     1       7.317  31.260  63.402  1.00  0.00     0.219 HD
ENDBRANCH   6  18
BRANCH   1  20
HETATM   20  C   UNL     1       5.663  33.317  64.052  1.00  0.00     0.059 A 
HETATM   21  C   UNL     1       6.919  33.498  64.658  1.00  0.00     0.032 A 
HETATM   22  C   UNL     1       7.040  33.924  65.987  1.00  0.00     0.009 A 
HETATM   23  C   UNL     1       5.903  34.173  66.757  1.00  0.00    -0.062 A 
HETATM   24  C   UNL     1       6.014  34.671  68.167  1.00  0.00     0.048 C 
HETATM   25  C   UNL     1       4.647  33.995  66.175  1.00  0.00     0.009 A 
HETATM   26  C   UNL     1       4.533  33.574  64.844  1.00  0.00     0.032 A 
ENDBRANCH   1  20
TORSDOF 3
ENDMDL
MODEL 5
REMARK VINA RESULT:      -9.1      1.350      2.026
REMARK  3 active torsions:
REMARK  status: ('A' for Active; 'I' for Inactive)
REMARK    1  A    between atoms: C_5  and  N_6 
REMARK    2  A    between atoms: C_10  and  C_11 
REMARK    3  A    between atoms: C_21  and  O_22 
ROOT
HETATM    1  N   UNL     1       8.635  30.479  58.603  1.00  0.00    -0.231 N 
HETATM    2  N   UNL     1       9.837  30.658  57.932  1.00  0.00    -0.257 N 
HETATM    3  C   UNL     1       9.863  29.767  56.873  1.00  0.00     0.275 C 
HETATM    4  O   UNL     1      10.633  29.770  55.929  1.00  0.00    -0.266 OA
HETATM    5  C   UNL     1       8.722  28.821  57.058  1.00  0.00     0.087 C 
HETATM    6  C   UNL     1       8.035  29.346  58.089  1.00  0.00     0.178 C 
HETATM    7  H   UNL     1      10.275  31.564  57.855  1.00  0.00     0.191 HD
ENDROOT
BRANCH   5   8
HETATM    8  C   UNL     1       8.423  27.721  56.186  1.00  0.00     0.035 C 
HETATM    9  C   UNL     1       7.425  27.672  55.296  1.00  0.00    -0.005 A 
HETATM   10  C   UNL     1       7.133  26.625  54.326  1.00  0.00     0.004 A 
HETATM   11  C   UNL     1       6.360  28.685  55.054  1.00  0.00     0.129 A 
HETATM   12  C   UNL     1       6.011  27.103  53.627  1.00  0.00     0.067 A 
HETATM   13  C   UNL     1       7.732  25.419  54.007  1.00  0.00     0.014 A 
HETATM   14  C   UNL     1       5.465  26.372  52.588  1.00  0.00     0.032 A 
HETATM   15  N   UNL     1       5.551  28.360  54.085  1.00  0.00    -0.259 NA
HETATM   16  C   UNL     1       6.058  25.152  52.252  1.00  0.00     0.002 A 
HETATM   17  C   UNL     1       7.181  24.680  52.955  1.00  0.00     0.001 A 
ENDBRANCH   5   8
BRANCH   6  18
HETATM   18  O   UNL     1       6.826  28.893  58.552  1.00  0.00    -0.344 OA
HETATM   19  H   UNL     1       6.472  28.246  57.921  1.00  0.00     0.219 HD
ENDBRANCH   6  18
BRANCH   1  20
HETATM   20  C   UNL     1       8.502  31.083  59.878  1.00  0.00     0.059 A 
HETATM   21  C   UNL     1       7.693  32.218  60.060  1.00  0.00     0.032 A 
HETATM   22  C   UNL     1       7.512  32.797  61.324  1.00  0.00     0.009 A 
HETATM   23  C   UNL     1       8.146  32.260  62.446  1.00  0.00    -0.062 A 
HETATM   24  C   UNL     1       7.929  32.840  63.811  1.00  0.00     0.048 C 
HETATM   25  C   UNL     1       8.957  31.135  62.284  1.00  0.00     0.009 A 
HETATM   26  C   UNL     1       9.130  30.559  61.019  1.00  0.00     0.032 A 
ENDBRANCH   1  20
TORSDOF 3
ENDMDL
MODEL 6
REMARK VINA RESULT:      -8.9      1.515      8.225
REMARK  3 active torsions:
REMARK  status: ('A' for Active; 'I' for Inactive)
REMARK    1  A    between atoms: C_5  and  N_6 
REMARK    2  A    between atoms: C_10  and  C_11 
REMARK    3  A    between atoms: C_21  and  O_22 
ROOT
HETATM    1  N   UNL     1       8.710  28.568  56.696  1.00  0.00    -0.231 N 
HETATM    2  N   UNL     1       9.603  29.537  56.260  1.00  0.00    -0.257 N 
HETATM    3  C   UNL     1       9.891  30.357  57.337  1.00  0.00     0.275 C 
HETATM    4  O   UNL     1      10.792  31.173  57.418  1.00  0.00    -0.266 OA
HETATM    5  C   UNL     1       8.927  30.019  58.426  1.00  0.00     0.087 C 
HETATM    6  C   UNL     1       8.292  28.925  57.964  1.00  0.00     0.178 C 
HETATM    7  H   UNL     1      10.301  29.340  55.559  1.00  0.00     0.191 HD
ENDROOT
BRANCH   5   8
HETATM    8  C   UNL     1       8.873  30.672  59.703  1.00  0.00     0.035 C 
HETATM    9  C   UNL     1       7.924  31.520  60.114  1.00  0.00    -0.005 A 
HETATM   10  C   UNL     1       7.773  32.136  61.425  1.00  0.00     0.004 A 
HETATM   11  C   UNL     1       6.765  32.045  59.341  1.00  0.00     0.129 A 
HETATM   12  C   UNL     1       6.594  32.895  61.318  1.00  0.00     0.067 A 
HETATM   13  C   UNL     1       8.490  32.066  62.606  1.00  0.00     0.014 A 
HETATM   14  C   UNL     1       6.112  33.604  62.402  1.00  0.00     0.032 A 
HETATM   15  N   UNL     1       5.993  32.830  60.039  1.00  0.00    -0.259 NA
HETATM   16  C   UNL     1       6.824  33.544  63.603  1.00  0.00     0.002 A 
HETATM   17  C   UNL     1       8.002  32.782  63.704  1.00  0.00     0.001 A 
ENDBRANCH   5   8
BRANCH   6  18
HETATM   18  O   UNL     1       7.394  28.168  58.671  1.00  0.00    -0.344 OA
HETATM   19  H   UNL     1       6.690  28.748  59.004  1.00  0.00     0.219 HD
ENDBRANCH   6  18
BRANCH   1  20
HETATM   20  C   UNL     1       8.060  27.787  55.709  1.00  0.00     0.059 A 
HETATM   21  C   UNL     1       7.714  28.336  54.462  1.00  0.00     0.032 A 
HETATM   22  C   UNL     1       7.116  27.563  53.457  1.00  0.00     0.009 A 
HETATM   23  C   UNL     1       6.835  26.214  53.675  1.00  0.00    -0.062 A 
HETATM   24  C   UNL     1       6.236  25.362  52.597  1.00  0.00     0.048 C 
HETATM   25  C   UNL     1       7.167  25.651  54.909  1.00  0.00     0.009 A 
HETATM   26  C   UNL     1       7.769  26.428  55.907  1.00  0.00     0.032 A 
ENDBRANCH   1  20
TORSDOF 3
ENDMDL
MODEL 7
REMARK VINA RESULT:      -8.9      1.644      2.451
REMARK  3 active torsions:
REMARK  status: ('A' for Active; 'I' for Inactive)
REMARK    1  A    between atoms: C_5  and  N_6 
REMARK    2  A    between atoms: C_10  and  C_11 
REMARK    3  A    between atoms: C_21  and  O_22 
ROOT
HETATM    1  N   UNL     1       7.469  30.454  58.231  1.00  0.00    -0.231 N 
HETATM    2  N   UNL     1       8.850  30.381  58.113  1.00  0.00    -0.257 N 
HETATM    3  C   UNL     1       9.152  29.214  57.434  1.00  0.00     0.275 C 
HETATM    4  O   UNL     1      10.223  28.907  56.941  1.00  0.00    -0.266 OA
HETATM    5  C   UNL     1       7.898  28.407  57.353  1.00  0.00     0.087 C 
HETATM    6  C   UNL     1       6.950  29.240  57.821  1.00  0.00     0.178 C 
HETATM    7  H   UNL     1       9.419  31.206  58.000  1.00  0.00     0.191 HD
ENDROOT
BRANCH   5   8
HETATM    8  C   UNL     1       7.799  27.108  56.751  1.00  0.00     0.035 C 
HETATM    9  C   UNL     1       7.626  26.855  55.448  1.00  0.00    -0.005 A 
HETATM   10  C   UNL     1       7.611  25.564  54.775  1.00  0.00     0.004 A 
HETATM   11  C   UNL     1       7.418  27.832  54.344  1.00  0.00     0.129 A 
HETATM   12  C   UNL     1       7.438  25.882  53.417  1.00  0.00     0.067 A 
HETATM   13  C   UNL     1       7.761  24.257  55.204  1.00  0.00     0.014 A 
HETATM   14  C   UNL     1       7.409  24.887  52.458  1.00  0.00     0.032 A 
HETATM   15  N   UNL     1       7.320  27.271  53.172  1.00  0.00    -0.259 NA
HETATM   16  C   UNL     1       7.560  23.561  52.874  1.00  0.00     0.002 A 
HETATM   17  C   UNL     1       7.734  23.249  54.234  1.00  0.00     0.001 A 
ENDBRANCH   5   8
BRANCH   6  18
HETATM   18  O   UNL     1       5.602  28.990  57.826  1.00  0.00    -0.344 OA
HETATM   19  H   UNL     1       5.209  29.410  58.609  1.00  0.00     0.219 HD
ENDBRANCH   6  18
BRANCH   1  20
HETATM   20  C   UNL     1       6.939  31.415  59.126  1.00  0.00     0.059 A 
HETATM   21  C   UNL     1       5.816  32.187  58.779  1.00  0.00     0.032 A 
HETATM   22  C   UNL     1       5.250  33.107  59.672  1.00  0.00     0.009 A 
HETATM   23  C   UNL     1       5.800  33.289  60.943  1.00  0.00    -0.062 A 
HETATM   24  C   UNL     1       5.181  34.237  61.926  1.00  0.00     0.048 C 
HETATM   25  C   UNL     1       6.917  32.535  61.304  1.00  0.00     0.009 A 
HETATM   26  C   UNL     1       7.475  31.614  60.408  1.00  0.00     0.032 A 
ENDBRANCH   1  20
TORSDOF 3
ENDMDL
MODEL 8
REMARK VINA RESULT:      -8.7      2.383      8.826
REMARK  3 active torsions:
REMARK  status: ('A' for Active; 'I' for Inactive)
REMARK    1  A    between atoms: C_5  and  N_6 
REMARK    2  A    between atoms: C_10  and  C_11 
REMARK    3  A    between atoms: C_21  and  O_22 
ROOT
HETATM    1  N   UNL     1       6.850  30.328  57.669  1.00  0.00    -0.231 N 
HETATM    2  N   UNL     1       5.948  31.348  57.400  1.00  0.00    -0.257 N 
HETATM    3  C   UNL     1       6.013  32.252  58.446  1.00  0.00     0.275 C 
HETATM    4  O   UNL     1       5.549  33.379  58.474  1.00  0.00    -0.266 OA
HETATM    5  C   UNL     1       6.817  31.619  59.534  1.00  0.00     0.087 C 
HETATM    6  C   UNL     1       7.298  30.498  58.966  1.00  0.00     0.178 C 
HETATM    7  H   UNL     1       5.762  31.660  56.459  1.00  0.00     0.191 HD
ENDROOT
BRANCH   5   8
HETATM    8  C   UNL     1       7.090  32.224  60.807  1.00  0.00     0.035 C 
HETATM    9  C   UNL     1       6.192  32.477  61.766  1.00  0.00    -0.005 A 
HETATM   10  C   UNL     1       6.427  33.000  63.105  1.00  0.00     0.004 A 
HETATM   11  C   UNL     1       4.717  32.274  61.719  1.00  0.00     0.129 A 
HETATM   12  C   UNL     1       5.152  33.026  63.696  1.00  0.00     0.067 A 
HETATM   13  C   UNL     1       7.560  33.384  63.799  1.00  0.00     0.014 A 
HETATM   14  C   UNL     1       4.990  33.444  65.004  1.00  0.00     0.032 A 
HETATM   15  N   UNL     1       4.119  32.582  62.836  1.00  0.00    -0.259 NA
HETATM   16  C   UNL     1       6.125  33.834  65.720  1.00  0.00     0.002 A 
HETATM   17  C   UNL     1       7.398  33.804  65.123  1.00  0.00     0.001 A 
ENDBRANCH   5   8
BRANCH   6  18
HETATM   18  O   UNL     1       8.201  29.640  59.537  1.00  0.00    -0.344 OA
HETATM   19  H   UNL     1       7.895  29.413  60.431  1.00  0.00     0.219 HD
ENDBRANCH   6  18
BRANCH   1  20
HETATM   20  C   UNL     1       6.762  29.154  56.882  1.00  0.00     0.059 A 
HETATM   21  C   UNL     1       7.671  28.913  55.837  1.00  0.00     0.032 A 
HETATM   22  C   UNL     1       7.628  27.733  55.082  1.00  0.00     0.009 A 
HETATM   23  C   UNL     1       6.663  26.759  55.344  1.00  0.00    -0.062 A 
HETATM   24  C   UNL     1       6.630  25.473  54.575  1.00  0.00     0.048 C 
HETATM   25  C   UNL     1       5.749  26.982  56.375  1.00  0.00     0.009 A 
HETATM   26  C   UNL     1       5.800  28.161  57.129  1.00  0.00     0.032 A 
ENDBRANCH   1  20
TORSDOF 3
ENDMDL
MODEL 9
REMARK VINA RESULT:      -8.5      2.847      8.548
REMARK  3 active torsions:
REMARK  status: ('A' for Active; 'I' for Inactive)
REMARK    1  A    between atoms: C_5  and  N_6 
REMARK    2  A    between atoms: C_10  and  C_11 
REMARK    3  A    between atoms: C_21  and  O_22 
ROOT
HETATM    1  N   UNL     1       7.649  25.471  54.584  1.00  0.00    -0.231 N 
HETATM    2  N   UNL     1       7.615  26.345  53.506  1.00  0.00    -0.257 N 
HETATM    3  C   UNL     1       7.007  27.513  53.932  1.00  0.00     0.275 C 
HETATM    4  O   UNL     1       6.992  28.586  53.355  1.00  0.00    -0.266 OA
HETATM    5  C   UNL     1       6.411  27.242  55.275  1.00  0.00     0.087 C 
HETATM    6  C   UNL     1       6.875  26.019  55.590  1.00  0.00     0.178 C 
HETATM    7  H   UNL     1       8.351  26.368  52.817  1.00  0.00     0.191 HD
ENDROOT
BRANCH   5   8
HETATM    8  C   UNL     1       5.661  28.195  56.044  1.00  0.00     0.035 C 
HETATM    9  C   UNL     1       6.172  29.138  56.843  1.00  0.00    -0.005 A 
HETATM   10  C   UNL     1       5.464  30.183  57.569  1.00  0.00     0.004 A 
HETATM   11  C   UNL     1       7.602  29.375  57.186  1.00  0.00     0.129 A 
HETATM   12  C   UNL     1       6.482  30.912  58.208  1.00  0.00     0.067 A 
HETATM   13  C   UNL     1       4.132  30.542  57.679  1.00  0.00     0.014 A 
HETATM   14  C   UNL     1       6.179  32.021  58.977  1.00  0.00     0.032 A 
HETATM   15  N   UNL     1       7.781  30.404  57.965  1.00  0.00    -0.259 NA
HETATM   16  C   UNL     1       4.838  32.397  59.097  1.00  0.00     0.002 A 
HETATM   17  C   UNL     1       3.825  31.664  58.454  1.00  0.00     0.001 A 
ENDBRANCH   5   8
BRANCH   6  18
HETATM   18  O   UNL     1       6.700  25.387  56.794  1.00  0.00    -0.344 OA
HETATM   19  H   UNL     1       7.554  25.024  57.084  1.00  0.00     0.219 HD
ENDBRANCH   6  18
BRANCH   1  20
HETATM   20  C   UNL     1       7.973  24.118  54.318  1.00  0.00     0.059 A 
HETATM   21  C   UNL     1       8.744  23.368  55.223  1.00  0.00     0.032 A 
HETATM   22  C   UNL     1       9.032  22.014  54.999  1.00  0.00     0.009 A 
HETATM   23  C   UNL     1       8.562  21.371  53.852  1.00  0.00    -0.062 A 
HETATM   24  C   UNL     1       8.823  19.914  53.618  1.00  0.00     0.048 C 
HETATM   25  C   UNL     1       7.798  22.101  52.940  1.00  0.00     0.009 A 
HETATM   26  C   UNL     1       7.510  23.452  53.173  1.00  0.00     0.032 A 
ENDBRANCH   1  20
TORSDOF 3
ENDMDL
MODEL 10
REMARK VINA RESULT:      -8.2      2.752      3.803
REMARK  3 active torsions:
REMARK  status: ('A' for Active; 'I' for Inactive)
REMARK    1  A    between atoms: C_5  and  N_6 
REMARK    2  A    between atoms: C_10  and  C_11 
REMARK    3  A    between atoms: C_21  and  O_22 
ROOT
HETATM    1  N   UNL     1       6.405  29.258  57.258  1.00  0.00    -0.231 N 
HETATM    2  N   UNL     1       7.779  29.273  57.457  1.00  0.00    -0.257 N 
HETATM    3  C   UNL     1       8.262  28.016  57.137  1.00  0.00     0.275 C 
HETATM    4  O   UNL     1       9.426  27.698  56.966  1.00  0.00    -0.266 OA
HETATM    5  C   UNL     1       7.084  27.112  56.976  1.00  0.00     0.087 C 
HETATM    6  C   UNL     1       6.030  27.947  57.032  1.00  0.00     0.178 C 
HETATM    7  H   UNL     1       8.333  30.098  57.284  1.00  0.00     0.191 HD
ENDROOT
BRANCH   5   8
HETATM    8  C   UNL     1       7.164  25.711  56.675  1.00  0.00     0.035 C 
HETATM    9  C   UNL     1       7.364  25.177  55.465  1.00  0.00    -0.005 A 
HETATM   10  C   UNL     1       7.545  23.773  55.118  1.00  0.00     0.004 A 
HETATM   11  C   UNL     1       7.471  25.880  54.156  1.00  0.00     0.129 A 
HETATM   12  C   UNL     1       7.758  23.783  53.729  1.00  0.00     0.067 A 
HETATM   13  C   UNL     1       7.574  22.600  55.852  1.00  0.00     0.014 A 
HETATM   14  C   UNL     1       8.004  22.607  53.046  1.00  0.00     0.032 A 
HETATM   15  N   UNL     1       7.707  25.077  53.158  1.00  0.00    -0.259 NA
HETATM   16  C   UNL     1       8.037  21.413  53.772  1.00  0.00     0.002 A 
HETATM   17  C   UNL     1       7.824  21.410  55.162  1.00  0.00     0.001 A 
ENDBRANCH   5   8
BRANCH   6  18
HETATM   18  O   UNL     1       4.724  27.596  56.806  1.00  0.00    -0.344 OA
HETATM   19  H   UNL     1       4.638  27.286  55.890  1.00  0.00     0.219 HD
ENDBRANCH   6  18
BRANCH   1  20
HETATM   20  C   UNL     1       5.658  30.342  57.780  1.00  0.00     0.059 A 
HETATM   21  C   UNL     1       4.256  30.372  57.677  1.00  0.00     0.032 A 
HETATM   22  C   UNL     1       3.499  31.413  58.232  1.00  0.00     0.009 A 
HETATM   23  C   UNL     1       4.126  32.465  58.902  1.00  0.00    -0.062 A 
HETATM   24  C   UNL     1       3.330  33.564  59.539  1.00  0.00     0.048 C 
HETATM   25  C   UNL     1       5.518  32.455  59.011  1.00  0.00     0.009 A 
HETATM   26  C   UNL     1       6.268  31.409  58.458  1.00  0.00     0.032 A 
ENDBRANCH   1  20
TORSDOF 3
ENDMDL
