MODEL 1
REMARK VINA RESULT:      -9.7      0.000      0.000
REMARK  6 active torsions:
REMARK  status: ('A' for Active; 'I' for Inactive)
REMARK    1  A    between atoms: C_4  and  O_5 
REMARK    2  A    between atoms: O_5  and  C_6 
REMARK    3  A    between atoms: C_6  and  C_7 
REMARK       I    between atoms: C_7  and  N_8 
REMARK    4  A    between atoms: N_8  and  N_9 
REMARK       I    between atoms: N_9  and  C_10 
REMARK    5  A    between atoms: C_10  and  C_11 
REMARK    6  A    between atoms: C_12  and  C_13 
ROOT
HETATM    1  N   UNL     1       7.641  28.885  56.326  1.00  0.00    -0.263 N 
HETATM    2  C   UNL     1       8.234  28.921  57.575  1.00  0.00     0.274 C 
HETATM    3  O   UNL     1       7.932  28.114  58.453  1.00  0.00    -0.266 OA
HETATM    4  H   UNL     1       8.113  29.318  55.532  1.00  0.00     0.190 HD
ENDROOT
BRANCH   1   5
HETATM    5  N   UNL     1       6.855  27.758  56.010  1.00  0.00    -0.265 N 
HETATM    6  C   UNL     1       7.056  27.191  54.762  1.00  0.00     0.260 C 
HETATM    7  O   UNL     1       7.776  27.723  53.917  1.00  0.00    -0.269 OA
HETATM    8  H   UNL     1       6.566  27.192  56.808  1.00  0.00     0.190 HD
BRANCH   6   9
HETATM    9  C   UNL     1       6.291  25.889  54.542  1.00  0.00     0.280 C 
BRANCH   9  10
HETATM   10  O   UNL     1       6.997  25.116  53.574  1.00  0.00    -0.342 OA
BRANCH  10  11
HETATM   11  C   UNL     1       7.262  23.843  53.996  1.00  0.00     0.069 A 
HETATM   12  C   UNL     1       7.614  22.813  53.121  1.00  0.00     0.043 A 
HETATM   13  C   UNL     1       7.931  21.543  53.622  1.00  0.00    -0.059 A 
HETATM   14  C   UNL     1       8.354  20.441  52.697  1.00  0.00     0.048 C 
HETATM   15  C   UNL     1       7.922  21.333  55.007  1.00  0.00     0.007 A 
HETATM   16  C   UNL     1       7.592  22.372  55.879  1.00  0.00     0.003 A 
HETATM   17  C   UNL     1       7.272  23.630  55.372  1.00  0.00     0.037 A 
ENDBRANCH  10  11
ENDBRANCH   9  10
ENDBRANCH   6   9
ENDBRANCH   1   5
BRANCH   2  18
HETATM   18  C   UNL     1       9.233  29.963  57.744  1.00  0.00     0.081 A 
HETATM   19  C   UNL     1       9.278  31.020  58.709  1.00  0.00     0.104 A 
HETATM   20  N   UNL     1      10.335  31.823  58.490  1.00  0.00    -0.174 NA
HETATM   21  N   UNL     1      10.965  31.283  57.444  1.00  0.00    -0.288 N 
HETATM   22  H   UNL     1      11.808  31.737  57.105  1.00  0.00     0.188 HD
HETATM   23  C   UNL     1      10.354  30.169  56.957  1.00  0.00     0.128 A 
BRANCH  19  24
HETATM   24  C   UNL     1       8.381  31.290  59.834  1.00  0.00    -0.004 A 
HETATM   25  C   UNL     1       8.708  30.884  61.135  1.00  0.00     0.015 A 
HETATM   26  C   UNL     1       7.851  31.167  62.203  1.00  0.00     0.024 A 
HETATM   27  C   UNL     1       6.667  31.864  61.976  1.00  0.00     0.034 A 
HETATM   28 CL   UNL     1       5.615  32.213  63.291  1.00  0.00    -0.084 Cl
HETATM   29  C   UNL     1       6.333  32.287  60.691  1.00  0.00     0.024 A 
HETATM   30  C   UNL     1       7.192  32.004  59.624  1.00  0.00     0.015 A 
ENDBRANCH  19  24
ENDBRANCH   2  18
TORSDOF 6
ENDMDL
MODEL 2
REMARK VINA RESULT:      -9.4      3.334      9.478
REMARK  6 active torsions:
REMARK  status: ('A' for Active; 'I' for Inactive)
REMARK    1  A    between atoms: C_4  and  O_5 
REMARK    2  A    between atoms: O_5  and  C_6 
REMARK    3  A    between atoms: C_6  and  C_7 
REMARK       I    between atoms: C_7  and  N_8 
REMARK    4  A    between atoms: N_8  and  N_9 
REMARK       I    between atoms: N_9  and  C_10 
REMARK    5  A    between atoms: C_10  and  C_11 
REMARK    6  A    between atoms: C_12  and  C_13 
ROOT
HETATM    1  N   UNL     1       6.228  28.824  54.709  1.00  0.00    -0.263 N 
HETATM    2  C   UNL     1       6.905  28.018  53.811  1.00  0.00     0.274 C 
HETATM    3  O   UNL     1       8.134  27.961  53.800  1.00  0.00    -0.266 OA
HETATM    4  H   UNL     1       5.254  28.622  54.931  1.00  0.00     0.190 HD
ENDROOT
BRANCH   1   5
HETATM    5  N   UNL     1       6.973  29.395  55.761  1.00  0.00    -0.265 N 
HETATM    6  C   UNL     1       6.731  28.901  57.033  1.00  0.00     0.260 C 
HETATM    7  O   UNL     1       5.817  28.108  57.256  1.00  0.00    -0.269 OA
HETATM    8  H   UNL     1       7.891  29.755  55.499  1.00  0.00     0.190 HD
BRANCH   6   9
HETATM    9  C   UNL     1       7.674  29.448  58.100  1.00  0.00     0.280 C 
BRANCH   9  10
HETATM   10  O   UNL     1       7.278  30.784  58.403  1.00  0.00    -0.342 OA
BRANCH  10  11
HETATM   11  C   UNL     1       7.732  31.214  59.618  1.00  0.00     0.069 A 
HETATM   12  C   UNL     1       7.075  32.189  60.370  1.00  0.00     0.043 A 
HETATM   13  C   UNL     1       7.559  32.546  61.636  1.00  0.00    -0.059 A 
HETATM   14  C   UNL     1       6.836  33.560  62.473  1.00  0.00     0.048 C 
HETATM   15  C   UNL     1       8.686  31.889  62.147  1.00  0.00     0.007 A 
HETATM   16  C   UNL     1       9.326  30.898  61.401  1.00  0.00     0.003 A 
HETATM   17  C   UNL     1       8.842  30.554  60.140  1.00  0.00     0.037 A 
ENDBRANCH  10  11
ENDBRANCH   9  10
ENDBRANCH   6   9
ENDBRANCH   1   5
BRANCH   2  18
HETATM   18  C   UNL     1       6.051  27.253  52.917  1.00  0.00     0.081 A 
HETATM   19  C   UNL     1       6.002  25.837  52.711  1.00  0.00     0.104 A 
HETATM   20  N   UNL     1       5.120  25.525  51.744  1.00  0.00    -0.174 NA
HETATM   21  N   UNL     1       4.597  26.694  51.366  1.00  0.00    -0.288 N 
HETATM   22  H   UNL     1       3.893  26.691  50.634  1.00  0.00     0.188 HD
HETATM   23  C   UNL     1       5.113  27.761  52.034  1.00  0.00     0.128 A 
BRANCH  19  24
HETATM   24  C   UNL     1       6.735  24.772  53.397  1.00  0.00    -0.004 A 
HETATM   25  C   UNL     1       6.546  24.528  54.764  1.00  0.00     0.015 A 
HETATM   26  C   UNL     1       7.238  23.493  55.402  1.00  0.00     0.024 A 
HETATM   27  C   UNL     1       8.115  22.693  54.674  1.00  0.00     0.034 A 
HETATM   28 CL   UNL     1       8.963  21.420  55.460  1.00  0.00    -0.084 Cl
HETATM   29  C   UNL     1       8.304  22.914  53.311  1.00  0.00     0.024 A 
HETATM   30  C   UNL     1       7.611  23.948  52.675  1.00  0.00     0.015 A 
ENDBRANCH  19  24
ENDBRANCH   2  18
TORSDOF 6
ENDMDL
MODEL 3
REMARK VINA RESULT:      -9.2      5.457      8.562
REMARK  6 active torsions:
REMARK  status: ('A' for Active; 'I' for Inactive)
REMARK    1  A    between atoms: C_4  and  O_5 
REMARK    2  A    between atoms: O_5  and  C_6 
REMARK    3  A    between atoms: C_6  and  C_7 
REMARK       I    between atoms: C_7  and  N_8 
REMARK    4  A    between atoms: N_8  and  N_9 
REMARK       I    between atoms: N_9  and  C_10 
REMARK    5  A    between atoms: C_10  and  C_11 
REMARK    6  A    between atoms: C_12  and  C_13 
ROOT
HETATM    1  N   UNL     1       4.599  26.786  54.009  1.00  0.00    -0.263 N 
HETATM    2  C   UNL     1       5.974  26.897  53.894  1.00  0.00     0.274 C 
HETATM    3  O   UNL     1       6.509  27.150  52.816  1.00  0.00    -0.266 OA
HETATM    4  H   UNL     1       4.160  26.906  54.922  1.00  0.00     0.190 HD
ENDROOT
BRANCH   1   5
HETATM    5  N   UNL     1       3.819  27.202  52.912  1.00  0.00    -0.265 N 
HETATM    6  C   UNL     1       3.446  28.536  52.885  1.00  0.00     0.260 C 
HETATM    7  O   UNL     1       3.661  29.287  53.837  1.00  0.00    -0.269 OA
HETATM    8  H   UNL     1       3.965  26.676  52.050  1.00  0.00     0.190 HD
BRANCH   6   9
HETATM    9  C   UNL     1       2.737  28.957  51.601  1.00  0.00     0.280 C 
BRANCH   9  10
HETATM   10  O   UNL     1       3.676  28.886  50.531  1.00  0.00    -0.342 OA
BRANCH  10  11
HETATM   11  C   UNL     1       3.295  28.023  49.542  1.00  0.00     0.069 A 
HETATM   12  C   UNL     1       2.085  28.144  48.857  1.00  0.00     0.043 A 
HETATM   13  C   UNL     1       1.776  27.261  47.812  1.00  0.00    -0.059 A 
HETATM   14  C   UNL     1       0.500  27.409  47.038  1.00  0.00     0.048 C 
HETATM   15  C   UNL     1       2.710  26.283  47.447  1.00  0.00     0.007 A 
HETATM   16  C   UNL     1       3.929  26.180  48.120  1.00  0.00     0.003 A 
HETATM   17  C   UNL     1       4.224  27.057  49.162  1.00  0.00     0.037 A 
ENDBRANCH  10  11
ENDBRANCH   9  10
ENDBRANCH   6   9
ENDBRANCH   1   5
BRANCH   2  18
HETATM   18  C   UNL     1       6.705  26.706  55.136  1.00  0.00     0.081 A 
HETATM   19  C   UNL     1       7.395  25.543  55.606  1.00  0.00     0.104 A 
HETATM   20  N   UNL     1       7.889  25.746  56.841  1.00  0.00    -0.174 NA
HETATM   21  N   UNL     1       7.558  27.004  57.140  1.00  0.00    -0.288 N 
HETATM   22  H   UNL     1       7.841  27.373  58.043  1.00  0.00     0.188 HD
HETATM   23  C   UNL     1       6.853  27.629  56.158  1.00  0.00     0.128 A 
BRANCH  19  24
HETATM   24  C   UNL     1       7.621  24.262  54.934  1.00  0.00    -0.004 A 
HETATM   25  C   UNL     1       7.473  23.049  55.619  1.00  0.00     0.015 A 
HETATM   26  C   UNL     1       7.673  21.832  54.959  1.00  0.00     0.024 A 
HETATM   27  C   UNL     1       8.014  21.824  53.609  1.00  0.00     0.034 A 
HETATM   28 CL   UNL     1       8.257  20.327  52.797  1.00  0.00    -0.084 Cl
HETATM   29  C   UNL     1       8.152  23.021  52.909  1.00  0.00     0.024 A 
HETATM   30  C   UNL     1       7.951  24.236  53.571  1.00  0.00     0.015 A 
ENDBRANCH  19  24
ENDBRANCH   2  18
TORSDOF 6
ENDMDL
MODEL 4
REMARK VINA RESULT:      -9.1      3.703      8.813
REMARK  6 active torsions:
REMARK  status: ('A' for Active; 'I' for Inactive)
REMARK    1  A    between atoms: C_4  and  O_5 
REMARK    2  A    between atoms: O_5  and  C_6 
REMARK    3  A    between atoms: C_6  and  C_7 
REMARK       I    between atoms: C_7  and  N_8 
REMARK    4  A    between atoms: N_8  and  N_9 
REMARK       I    between atoms: N_9  and  C_10 
REMARK    5  A    between atoms: C_10  and  C_11 
REMARK    6  A    between atoms: C_12  and  C_13 
ROOT
HETATM    1  N   UNL     1       5.292  29.212  53.802  1.00  0.00    -0.263 N 
HETATM    2  C   UNL     1       6.154  28.278  53.253  1.00  0.00     0.274 C 
HETATM    3  O   UNL     1       7.310  28.156  53.656  1.00  0.00    -0.266 OA
HETATM    4  H   UNL     1       4.285  29.086  53.703  1.00  0.00     0.190 HD
ENDROOT
BRANCH   1   5
HETATM    5  N   UNL     1       5.699  29.854  54.989  1.00  0.00    -0.265 N 
HETATM    6  C   UNL     1       4.938  29.609  56.120  1.00  0.00     0.260 C 
HETATM    7  O   UNL     1       3.882  28.979  56.065  1.00  0.00    -0.269 OA
HETATM    8  H   UNL     1       6.697  30.053  55.055  1.00  0.00     0.190 HD
BRANCH   6   9
HETATM    9  C   UNL     1       5.517  30.207  57.399  1.00  0.00     0.280 C 
BRANCH   9  10
HETATM   10  O   UNL     1       6.511  29.314  57.897  1.00  0.00    -0.342 OA
BRANCH  10  11
HETATM   11  C   UNL     1       7.702  29.933  58.157  1.00  0.00     0.069 A 
HETATM   12  C   UNL     1       8.905  29.537  57.568  1.00  0.00     0.043 A 
HETATM   13  C   UNL     1      10.084  30.248  57.831  1.00  0.00    -0.059 A 
HETATM   14  C   UNL     1      11.373  29.861  57.170  1.00  0.00     0.048 C 
HETATM   15  C   UNL     1      10.031  31.375  58.662  1.00  0.00     0.007 A 
HETATM   16  C   UNL     1       8.821  31.780  59.230  1.00  0.00     0.003 A 
HETATM   17  C   UNL     1       7.656  31.063  58.969  1.00  0.00     0.037 A 
ENDBRANCH  10  11
ENDBRANCH   9  10
ENDBRANCH   6   9
ENDBRANCH   1   5
BRANCH   2  18
HETATM   18  C   UNL     1       5.576  27.466  52.194  1.00  0.00     0.081 A 
HETATM   19  C   UNL     1       5.746  26.068  51.938  1.00  0.00     0.104 A 
HETATM   20  N   UNL     1       5.096  25.705  50.817  1.00  0.00    -0.174 NA
HETATM   21  N   UNL     1       4.503  26.822  50.387  1.00  0.00    -0.288 N 
HETATM   22  H   UNL     1       3.947  26.774  49.539  1.00  0.00     0.188 HD
HETATM   23  C   UNL     1       4.752  27.905  51.172  1.00  0.00     0.128 A 
BRANCH  19  24
HETATM   24  C   UNL     1       6.475  25.062  52.712  1.00  0.00    -0.004 A 
HETATM   25  C   UNL     1       7.576  24.388  52.169  1.00  0.00     0.015 A 
HETATM   26  C   UNL     1       8.276  23.445  52.928  1.00  0.00     0.024 A 
HETATM   27  C   UNL     1       7.882  23.178  54.237  1.00  0.00     0.034 A 
HETATM   28 CL   UNL     1       8.746  22.019  55.170  1.00  0.00    -0.084 Cl
HETATM   29  C   UNL     1       6.797  23.849  54.798  1.00  0.00     0.024 A 
HETATM   30  C   UNL     1       6.099  24.793  54.038  1.00  0.00     0.015 A 
ENDBRANCH  19  24
ENDBRANCH   2  18
TORSDOF 6
ENDMDL
MODEL 5
REMARK VINA RESULT:      -9.1      3.323      9.701
REMARK  6 active torsions:
REMARK  status: ('A' for Active; 'I' for Inactive)
REMARK    1  A    between atoms: C_4  and  O_5 
REMARK    2  A    between atoms: O_5  and  C_6 
REMARK    3  A    between atoms: C_6  and  C_7 
REMARK       I    between atoms: C_7  and  N_8 
REMARK    4  A    between atoms: N_8  and  N_9 
REMARK       I    between atoms: N_9  and  C_10 
REMARK    5  A    between atoms: C_10  and  C_11 
REMARK    6  A    between atoms: C_12  and  C_13 
ROOT
HETATM    1  N   UNL     1       6.297  27.819  56.220  1.00  0.00    -0.263 N 
HETATM    2  C   UNL     1       6.743  27.426  54.971  1.00  0.00     0.274 C 
HETATM    3  O   UNL     1       7.883  27.681  54.586  1.00  0.00    -0.266 OA
HETATM    4  H   UNL     1       5.507  27.336  56.648  1.00  0.00     0.190 HD
ENDROOT
BRANCH   1   5
HETATM    5  N   UNL     1       7.256  28.313  57.128  1.00  0.00    -0.265 N 
HETATM    6  C   UNL     1       7.187  29.663  57.432  1.00  0.00     0.260 C 
HETATM    7  O   UNL     1       6.422  30.422  56.836  1.00  0.00    -0.269 OA
HETATM    8  H   UNL     1       7.601  27.635  57.807  1.00  0.00     0.190 HD
BRANCH   6   9
HETATM    9  C   UNL     1       8.148  30.101  58.532  1.00  0.00     0.280 C 
BRANCH   9  10
HETATM   10  O   UNL     1       8.112  31.524  58.616  1.00  0.00    -0.342 OA
BRANCH  10  11
HETATM   11  C   UNL     1       7.485  31.978  59.742  1.00  0.00     0.069 A 
HETATM   12  C   UNL     1       8.089  31.968  61.001  1.00  0.00     0.043 A 
HETATM   13  C   UNL     1       7.414  32.501  62.108  1.00  0.00    -0.059 A 
HETATM   14  C   UNL     1       8.071  32.538  63.456  1.00  0.00     0.048 C 
HETATM   15  C   UNL     1       6.147  33.070  61.927  1.00  0.00     0.007 A 
HETATM   16  C   UNL     1       5.557  33.097  60.663  1.00  0.00     0.003 A 
HETATM   17  C   UNL     1       6.231  32.559  59.569  1.00  0.00     0.037 A 
ENDBRANCH  10  11
ENDBRANCH   9  10
ENDBRANCH   6   9
ENDBRANCH   1   5
BRANCH   2  18
HETATM   18  C   UNL     1       5.769  26.687  54.183  1.00  0.00     0.081 A 
HETATM   19  C   UNL     1       5.757  25.297  53.839  1.00  0.00     0.104 A 
HETATM   20  N   UNL     1       4.717  25.013  53.035  1.00  0.00    -0.174 NA
HETATM   21  N   UNL     1       4.066  26.170  52.894  1.00  0.00    -0.288 N 
HETATM   22  H   UNL     1       3.230  26.183  52.316  1.00  0.00     0.188 HD
HETATM   23  C   UNL     1       4.647  27.205  53.560  1.00  0.00     0.128 A 
BRANCH  19  24
HETATM   24  C   UNL     1       6.670  24.230  54.251  1.00  0.00    -0.004 A 
HETATM   25  C   UNL     1       7.367  23.467  53.305  1.00  0.00     0.015 A 
HETATM   26  C   UNL     1       8.251  22.464  53.714  1.00  0.00     0.024 A 
HETATM   27  C   UNL     1       8.448  22.225  55.072  1.00  0.00     0.034 A 
HETATM   28 CL   UNL     1       9.538  20.992  55.573  1.00  0.00    -0.084 Cl
HETATM   29  C   UNL     1       7.773  22.983  56.026  1.00  0.00     0.024 A 
HETATM   30  C   UNL     1       6.890  23.986  55.616  1.00  0.00     0.015 A 
ENDBRANCH  19  24
ENDBRANCH   2  18
TORSDOF 6
ENDMDL
MODEL 6
REMARK VINA RESULT:      -8.9      1.586      2.123
REMARK  6 active torsions:
REMARK  status: ('A' for Active; 'I' for Inactive)
REMARK    1  A    between atoms: C_4  and  O_5 
REMARK    2  A    between atoms: O_5  and  C_6 
REMARK    3  A    between atoms: C_6  and  C_7 
REMARK       I    between atoms: C_7  and  N_8 
REMARK    4  A    between atoms: N_8  and  N_9 
REMARK       I    between atoms: N_9  and  C_10 
REMARK    5  A    between atoms: C_10  and  C_11 
REMARK    6  A    between atoms: C_12  and  C_13 
ROOT
HETATM    1  N   UNL     1       7.965  28.487  57.417  1.00  0.00    -0.263 N 
HETATM    2  C   UNL     1       7.412  29.670  57.874  1.00  0.00     0.274 C 
HETATM    3  O   UNL     1       6.199  29.867  57.841  1.00  0.00    -0.266 OA
HETATM    4  H   UNL     1       8.890  28.205  57.742  1.00  0.00     0.190 HD
ENDROOT
BRANCH   1   5
HETATM    5  N   UNL     1       7.084  27.424  57.133  1.00  0.00    -0.265 N 
HETATM    6  C   UNL     1       7.593  26.142  57.263  1.00  0.00     0.260 C 
HETATM    7  O   UNL     1       8.789  25.940  57.477  1.00  0.00    -0.269 OA
HETATM    8  H   UNL     1       6.097  27.621  57.302  1.00  0.00     0.190 HD
BRANCH   6   9
HETATM    9  C   UNL     1       6.552  25.040  57.094  1.00  0.00     0.280 C 
BRANCH   9  10
HETATM   10  O   UNL     1       6.199  24.970  55.714  1.00  0.00    -0.342 OA
BRANCH  10  11
HETATM   11  C   UNL     1       6.900  24.017  55.030  1.00  0.00     0.069 A 
HETATM   12  C   UNL     1       7.294  22.808  55.607  1.00  0.00     0.043 A 
HETATM   13  C   UNL     1       7.961  21.845  54.836  1.00  0.00    -0.059 A 
HETATM   14  C   UNL     1       8.348  20.524  55.432  1.00  0.00     0.048 C 
HETATM   15  C   UNL     1       8.196  22.100  53.479  1.00  0.00     0.007 A 
HETATM   16  C   UNL     1       7.780  23.302  52.902  1.00  0.00     0.003 A 
HETATM   17  C   UNL     1       7.124  24.255  53.677  1.00  0.00     0.037 A 
ENDBRANCH  10  11
ENDBRANCH   9  10
ENDBRANCH   6   9
ENDBRANCH   1   5
BRANCH   2  18
HETATM   18  C   UNL     1       8.374  30.628  58.397  1.00  0.00     0.081 A 
HETATM   19  C   UNL     1       8.168  31.688  59.337  1.00  0.00     0.104 A 
HETATM   20  N   UNL     1       9.298  32.398  59.512  1.00  0.00    -0.174 NA
HETATM   21  N   UNL     1      10.204  31.795  58.739  1.00  0.00    -0.288 N 
HETATM   22  H   UNL     1      11.147  32.173  58.722  1.00  0.00     0.188 HD
HETATM   23  C   UNL     1       9.710  30.730  58.052  1.00  0.00     0.128 A 
BRANCH  19  24
HETATM   24  C   UNL     1       6.962  32.046  60.086  1.00  0.00    -0.004 A 
HETATM   25  C   UNL     1       6.871  31.816  61.465  1.00  0.00     0.015 A 
HETATM   26  C   UNL     1       5.721  32.182  62.171  1.00  0.00     0.024 A 
HETATM   27  C   UNL     1       4.659  32.786  61.502  1.00  0.00     0.034 A 
HETATM   28 CL   UNL     1       3.246  33.236  62.373  1.00  0.00    -0.084 Cl
HETATM   29  C   UNL     1       4.738  33.033  60.133  1.00  0.00     0.024 A 
HETATM   30  C   UNL     1       5.889  32.668  59.429  1.00  0.00     0.015 A 
ENDBRANCH  19  24
ENDBRANCH   2  18
TORSDOF 6
ENDMDL
MODEL 7
REMARK VINA RESULT:      -8.5      2.330      3.233
REMARK  6 active torsions:
REMARK  status: ('A' for Active; 'I' for Inactive)
REMARK    1  A    between atoms: C_4  and  O_5 
REMARK    2  A    between atoms: O_5  and  C_6 
REMARK    3  A    between atoms: C_6  and  C_7 
REMARK       I    between atoms: C_7  and  N_8 
REMARK    4  A    between atoms: N_8  and  N_9 
REMARK       I    between atoms: N_9  and  C_10 
REMARK    5  A    between atoms: C_10  and  C_11 
REMARK    6  A    between atoms: C_12  and  C_13 
ROOT
HETATM    1  N   UNL     1       5.648  28.414  56.908  1.00  0.00    -0.263 N 
HETATM    2  C   UNL     1       6.187  29.383  56.079  1.00  0.00     0.274 C 
HETATM    3  O   UNL     1       6.983  29.094  55.187  1.00  0.00    -0.266 OA
HETATM    4  H   UNL     1       4.775  28.602  57.400  1.00  0.00     0.190 HD
ENDROOT
BRANCH   1   5
HETATM    5  N   UNL     1       5.855  27.066  56.553  1.00  0.00    -0.265 N 
HETATM    6  C   UNL     1       6.844  26.386  57.245  1.00  0.00     0.260 C 
HETATM    7  O   UNL     1       7.600  26.963  58.027  1.00  0.00    -0.269 OA
HETATM    8  H   UNL     1       5.034  26.581  56.191  1.00  0.00     0.190 HD
BRANCH   6   9
HETATM    9  C   UNL     1       6.913  24.896  56.924  1.00  0.00     0.280 C 
BRANCH   9  10
HETATM   10  O   UNL     1       6.527  24.714  55.564  1.00  0.00    -0.342 OA
BRANCH  10  11
HETATM   11  C   UNL     1       7.127  23.635  54.978  1.00  0.00     0.069 A 
HETATM   12  C   UNL     1       7.489  22.490  55.691  1.00  0.00     0.043 A 
HETATM   13  C   UNL     1       8.048  21.393  55.021  1.00  0.00    -0.059 A 
HETATM   14  C   UNL     1       8.399  20.141  55.769  1.00  0.00     0.048 C 
HETATM   15  C   UNL     1       8.206  21.449  53.631  1.00  0.00     0.007 A 
HETATM   16  C   UNL     1       7.821  22.587  52.919  1.00  0.00     0.003 A 
HETATM   17  C   UNL     1       7.273  23.676  53.593  1.00  0.00     0.037 A 
ENDBRANCH  10  11
ENDBRANCH   9  10
ENDBRANCH   6   9
ENDBRANCH   1   5
BRANCH   2  18
HETATM   18  C   UNL     1       5.723  30.735  56.343  1.00  0.00     0.081 A 
HETATM   19  C   UNL     1       6.014  31.586  57.458  1.00  0.00     0.104 A 
HETATM   20  N   UNL     1       5.333  32.743  57.366  1.00  0.00    -0.174 NA
HETATM   21  N   UNL     1       4.655  32.653  56.219  1.00  0.00    -0.288 N 
HETATM   22  H   UNL     1       4.067  33.434  55.948  1.00  0.00     0.188 HD
HETATM   23  C   UNL     1       4.852  31.477  55.563  1.00  0.00     0.128 A 
BRANCH  19  24
HETATM   24  C   UNL     1       6.916  31.361  58.587  1.00  0.00    -0.004 A 
HETATM   25  C   UNL     1       6.638  31.892  59.854  1.00  0.00     0.015 A 
HETATM   26  C   UNL     1       7.499  31.651  60.929  1.00  0.00     0.024 A 
HETATM   27  C   UNL     1       8.638  30.872  60.744  1.00  0.00     0.034 A 
HETATM   28 CL   UNL     1       9.695  30.575  62.069  1.00  0.00    -0.084 Cl
HETATM   29  C   UNL     1       8.923  30.325  59.495  1.00  0.00     0.024 A 
HETATM   30  C   UNL     1       8.061  30.565  58.421  1.00  0.00     0.015 A 
ENDBRANCH  19  24
ENDBRANCH   2  18
TORSDOF 6
ENDMDL
MODEL 8
REMARK VINA RESULT:      -8.4      7.255     10.275
REMARK  6 active torsions:
REMARK  status: ('A' for Active; 'I' for Inactive)
REMARK    1  A    between atoms: C_4  and  O_5 
REMARK    2  A    between atoms: O_5  and  C_6 
REMARK    3  A    between atoms: C_6  and  C_7 
REMARK       I    between atoms: C_7  and  N_8 
REMARK    4  A    between atoms: N_8  and  N_9 
REMARK       I    between atoms: N_9  and  C_10 
REMARK    5  A    between atoms: C_10  and  C_11 
REMARK    6  A    between atoms: C_12  and  C_13 
ROOT
HETATM    1  N   UNL     1       4.313  26.815  49.545  1.00  0.00    -0.263 N 
HETATM    2  C   UNL     1       4.167  26.932  48.174  1.00  0.00     0.274 C 
HETATM    3  O   UNL     1       5.074  26.623  47.402  1.00  0.00    -0.266 OA
HETATM    4  H   UNL     1       3.485  26.752  50.136  1.00  0.00     0.190 HD
ENDROOT
BRANCH   1   5
HETATM    5  N   UNL     1       5.440  26.113  50.021  1.00  0.00    -0.265 N 
HETATM    6  C   UNL     1       5.688  26.189  51.382  1.00  0.00     0.260 C 
HETATM    7  O   UNL     1       5.047  26.940  52.116  1.00  0.00    -0.269 OA
HETATM    8  H   UNL     1       5.698  25.288  49.481  1.00  0.00     0.190 HD
BRANCH   6   9
HETATM    9  C   UNL     1       6.824  25.287  51.856  1.00  0.00     0.280 C 
BRANCH   9  10
HETATM   10  O   UNL     1       6.826  25.285  53.282  1.00  0.00    -0.342 OA
BRANCH  10  11
HETATM   11  C   UNL     1       7.136  24.065  53.814  1.00  0.00     0.069 A 
HETATM   12  C   UNL     1       7.495  22.966  53.030  1.00  0.00     0.043 A 
HETATM   13  C   UNL     1       7.858  21.757  53.639  1.00  0.00    -0.059 A 
HETATM   14  C   UNL     1       8.290  20.584  52.810  1.00  0.00     0.048 C 
HETATM   15  C   UNL     1       7.887  21.678  55.037  1.00  0.00     0.007 A 
HETATM   16  C   UNL     1       7.549  22.786  55.817  1.00  0.00     0.003 A 
HETATM   17  C   UNL     1       7.183  23.982  55.203  1.00  0.00     0.037 A 
ENDBRANCH  10  11
ENDBRANCH   9  10
ENDBRANCH   6   9
ENDBRANCH   1   5
BRANCH   2  18
HETATM   18  C   UNL     1       2.869  27.425  47.741  1.00  0.00     0.081 A 
HETATM   19  C   UNL     1       2.494  28.751  47.352  1.00  0.00     0.104 A 
HETATM   20  N   UNL     1       1.177  28.816  47.085  1.00  0.00    -0.174 NA
HETATM   21  N   UNL     1       0.729  27.570  47.263  1.00  0.00    -0.288 N 
HETATM   22  H   UNL     1      -0.258  27.389  47.108  1.00  0.00     0.188 HD
HETATM   23  C   UNL     1       1.696  26.696  47.652  1.00  0.00     0.128 A 
BRANCH  19  24
HETATM   24  C   UNL     1       3.324  29.947  47.206  1.00  0.00    -0.004 A 
HETATM   25  C   UNL     1       3.344  30.673  46.008  1.00  0.00     0.015 A 
HETATM   26  C   UNL     1       4.127  31.826  45.889  1.00  0.00     0.024 A 
HETATM   27  C   UNL     1       4.888  32.261  46.971  1.00  0.00     0.034 A 
HETATM   28 CL   UNL     1       5.849  33.680  46.824  1.00  0.00    -0.084 Cl
HETATM   29  C   UNL     1       4.870  31.558  48.174  1.00  0.00     0.024 A 
HETATM   30  C   UNL     1       4.086  30.407  48.291  1.00  0.00     0.015 A 
ENDBRANCH  19  24
ENDBRANCH   2  18
TORSDOF 6
ENDMDL
MODEL 9
REMARK VINA RESULT:      -8.4      6.762      9.483
REMARK  6 active torsions:
REMARK  status: ('A' for Active; 'I' for Inactive)
REMARK    1  A    between atoms: C_4  and  O_5 
REMARK    2  A    between atoms: O_5  and  C_6 
REMARK    3  A    between atoms: C_6  and  C_7 
REMARK       I    between atoms: C_7  and  N_8 
REMARK    4  A    between atoms: N_8  and  N_9 
REMARK       I    between atoms: N_9  and  C_10 
REMARK    5  A    between atoms: C_10  and  C_11 
REMARK    6  A    between atoms: C_12  and  C_13 
ROOT
HETATM    1  N   UNL     1       4.599  25.869  50.383  1.00  0.00    -0.263 N 
HETATM    2  C   UNL     1       4.660  26.885  49.446  1.00  0.00     0.274 C 
HETATM    3  O   UNL     1       5.507  27.774  49.518  1.00  0.00    -0.266 OA
HETATM    4  H   UNL     1       4.137  24.991  50.144  1.00  0.00     0.190 HD
ENDROOT
BRANCH   1   5
HETATM    5  N   UNL     1       5.675  25.749  51.284  1.00  0.00    -0.265 N 
HETATM    6  C   UNL     1       5.422  26.089  52.603  1.00  0.00     0.260 C 
HETATM    7  O   UNL     1       4.358  26.603  52.946  1.00  0.00    -0.269 OA
HETATM    8  H   UNL     1       6.366  25.037  51.045  1.00  0.00     0.190 HD
BRANCH   6   9
HETATM    9  C   UNL     1       6.578  25.791  53.554  1.00  0.00     0.280 C 
BRANCH   9  10
HETATM   10  O   UNL     1       6.166  24.759  54.448  1.00  0.00    -0.342 OA
BRANCH  10  11
HETATM   11  C   UNL     1       6.963  23.651  54.389  1.00  0.00     0.069 A 
HETATM   12  C   UNL     1       7.307  22.905  55.518  1.00  0.00     0.043 A 
HETATM   13  C   UNL     1       8.081  21.744  55.385  1.00  0.00    -0.059 A 
HETATM   14  C   UNL     1       8.418  20.909  56.584  1.00  0.00     0.048 C 
HETATM   15  C   UNL     1       8.473  21.328  54.106  1.00  0.00     0.007 A 
HETATM   16  C   UNL     1       8.107  22.064  52.978  1.00  0.00     0.003 A 
HETATM   17  C   UNL     1       7.344  23.221  53.120  1.00  0.00     0.037 A 
ENDBRANCH  10  11
ENDBRANCH   9  10
ENDBRANCH   6   9
ENDBRANCH   1   5
BRANCH   2  18
HETATM   18  C   UNL     1       3.666  26.798  48.388  1.00  0.00     0.081 A 
HETATM   19  C   UNL     1       2.651  27.740  48.026  1.00  0.00     0.104 A 
HETATM   20  N   UNL     1       1.884  27.257  47.031  1.00  0.00    -0.174 NA
HETATM   21  N   UNL     1       2.408  26.064  46.742  1.00  0.00    -0.288 N 
HETATM   22  H   UNL     1       1.976  25.517  46.003  1.00  0.00     0.188 HD
HETATM   23  C   UNL     1       3.477  25.737  47.518  1.00  0.00     0.128 A 
BRANCH  19  24
HETATM   24  C   UNL     1       2.388  29.076  48.563  1.00  0.00    -0.004 A 
HETATM   25  C   UNL     1       1.537  29.260  49.661  1.00  0.00     0.015 A 
HETATM   26  C   UNL     1       1.311  30.541  50.176  1.00  0.00     0.024 A 
HETATM   27  C   UNL     1       1.943  31.640  49.602  1.00  0.00     0.034 A 
HETATM   28 CL   UNL     1       1.666  33.215  50.239  1.00  0.00    -0.084 Cl
HETATM   29  C   UNL     1       2.803  31.474  48.518  1.00  0.00     0.024 A 
HETATM   30  C   UNL     1       3.028  30.193  48.004  1.00  0.00     0.015 A 
ENDBRANCH  19  24
ENDBRANCH   2  18
TORSDOF 6
ENDMDL
MODEL 10
REMARK VINA RESULT:      -8.3      2.455      3.630
REMARK  6 active torsions:
REMARK  status: ('A' for Active; 'I' for Inactive)
REMARK    1  A    between atoms: C_4  and  O_5 
REMARK    2  A    between atoms: O_5  and  C_6 
REMARK    3  A    between atoms: C_6  and  C_7 
REMARK       I    between atoms: C_7  and  N_8 
REMARK    4  A    between atoms: N_8  and  N_9 
REMARK       I    between atoms: N_9  and  C_10 
REMARK    5  A    between atoms: C_10  and  C_11 
REMARK    6  A    between atoms: C_12  and  C_13 
ROOT
HETATM    1  N   UNL     1       8.013  29.452  58.907  1.00  0.00    -0.263 N 
HETATM    2  C   UNL     1       8.579  30.646  59.317  1.00  0.00     0.274 C 
HETATM    3  O   UNL     1       9.276  31.320  58.559  1.00  0.00    -0.266 OA
HETATM    4  H   UNL     1       7.201  29.084  59.402  1.00  0.00     0.190 HD
ENDROOT
BRANCH   1   5
HETATM    5  N   UNL     1       8.061  29.147  57.531  1.00  0.00    -0.265 N 
HETATM    6  C   UNL     1       7.865  27.821  57.181  1.00  0.00     0.260 C 
HETATM    7  O   UNL     1       7.796  26.932  58.030  1.00  0.00    -0.269 OA
HETATM    8  H   UNL     1       7.782  29.905  56.908  1.00  0.00     0.190 HD
BRANCH   6   9
HETATM    9  C   UNL     1       7.775  27.583  55.677  1.00  0.00     0.280 C 
BRANCH   9  10
HETATM   10  O   UNL     1       6.797  26.571  55.444  1.00  0.00    -0.342 OA
BRANCH  10  11
HETATM   11  C   UNL     1       7.231  25.596  54.591  1.00  0.00     0.069 A 
HETATM   12  C   UNL     1       7.331  24.254  54.965  1.00  0.00     0.043 A 
HETATM   13  C   UNL     1       7.728  23.291  54.026  1.00  0.00    -0.059 A 
HETATM   14  C   UNL     1       7.795  21.840  54.403  1.00  0.00     0.048 C 
HETATM   15  C   UNL     1       7.989  23.688  52.709  1.00  0.00     0.007 A 
HETATM   16  C   UNL     1       7.865  25.027  52.335  1.00  0.00     0.003 A 
HETATM   17  C   UNL     1       7.477  25.978  53.275  1.00  0.00     0.037 A 
ENDBRANCH  10  11
ENDBRANCH   9  10
ENDBRANCH   6   9
ENDBRANCH   1   5
BRANCH   2  18
HETATM   18  C   UNL     1       8.270  31.027  60.685  1.00  0.00     0.081 A 
HETATM   19  C   UNL     1       7.248  31.908  61.165  1.00  0.00     0.104 A 
HETATM   20  N   UNL     1       7.332  32.055  62.500  1.00  0.00    -0.174 NA
HETATM   21  N   UNL     1       8.349  31.273  62.868  1.00  0.00    -0.288 N 
HETATM   22  H   UNL     1       8.590  31.230  63.854  1.00  0.00     0.188 HD
HETATM   23  C   UNL     1       8.946  30.631  61.827  1.00  0.00     0.128 A 
BRANCH  19  24
HETATM   24  C   UNL     1       6.190  32.596  60.424  1.00  0.00    -0.004 A 
HETATM   25  C   UNL     1       5.928  32.287  59.082  1.00  0.00     0.015 A 
HETATM   26  C   UNL     1       4.900  32.939  58.392  1.00  0.00     0.024 A 
HETATM   27  C   UNL     1       4.126  33.895  59.044  1.00  0.00     0.034 A 
HETATM   28 CL   UNL     1       2.860  34.693  58.194  1.00  0.00    -0.084 Cl
HETATM   29  C   UNL     1       4.364  34.205  60.381  1.00  0.00     0.024 A 
HETATM   30  C   UNL     1       5.391  33.552  61.069  1.00  0.00     0.015 A 
ENDBRANCH  19  24
ENDBRANCH   2  18
TORSDOF 6
ENDMDL
